@<TRIPOS>MOLECULE
Molport-051-896-426
 39 43 0 0 0
SMALL
GASTEIGER

@<TRIPOS>ATOM
      1 C           4.2101   42.3076   10.4120 C.ar    1  UNL1        0.0537
      2 C           5.2550   41.4791   10.8518 C.ar    1  UNL1        0.0042
      3 C           6.5330   41.5948   10.2911 C.ar    1  UNL1       -0.0028
      4 C           6.7742   42.5385    9.2862 C.ar    1  UNL1       -0.0061
      5 C           5.7410   43.3776    8.8532 C.ar    1  UNL1       -0.0028
      6 C           4.4646   43.2617    9.4137 C.ar    1  UNL1        0.0042
      7 C           2.8557   42.1787   10.9807 C.2     1  UNL1        0.2516
      8 O           1.8845   41.8718   10.2380 O.2     1  UNL1       -0.2697
      9 N           2.6530   42.4060   12.3818 N.am    1  UNL1       -0.2519
     10 H           3.4487   42.6139   12.9230 H       1  UNL1        0.1580
     11 C          -0.0211   42.3230   14.6254 C.ar    1  UNL1        0.1547
     12 C          -0.7089   42.3043   13.4312 C.ar    1  UNL1        0.1253
     13 C           1.3942   42.3571   13.0626 C.ar    1  UNL1        0.2008
     14 N           0.1997   42.3266   12.4356 N.ar    1  UNL1       -0.2118
     15 N           1.3059   42.3549   14.4051 N.ar    1  UNL1       -0.3201
     16 H           2.0354   42.3724   15.0660 H       1  UNL1        0.1688
     17 C          -0.6255   42.3051   15.9620 C.2     1  UNL1        0.3587
     18 O          -1.7148   41.6958   16.1537 O.2     1  UNL1       -0.2432
     19 O           0.0103   42.9724   17.0133 O.3     1  UNL1       -0.4444
     20 C          -0.7905   44.5423   18.6640 C.3     1  UNL1        0.0513
     21 C          -0.1974   44.3553   17.2778 C.3     1  UNL1        0.2089
     22 C           8.1252   42.6303    8.6588 C.3     1  UNL1        0.0992
     23 C          10.2404   42.2891    9.6112 C.3     1  UNL1        0.0899
     24 C          11.5056   41.7465    8.9388 C.3     1  UNL1        0.0899
     25 C          10.3528   39.6564    8.4585 C.3     1  UNL1        0.0899
     26 C           9.2443   40.6550    8.0896 C.3     1  UNL1        0.0899
     27 N           9.0070   41.5984    9.1869 N.3     1  UNL1       -0.2665
     28 N          11.5458   40.2868    9.0502 N.3     1  UNL1       -0.2665
     29 C          12.6880   39.8284    8.2702 C.3     1  UNL1        0.0992
     30 C          13.4039   40.9926    7.6516 C.ar    1  UNL1       -0.0061
     31 C          12.7527   41.7329    6.6547 C.ar    1  UNL1       -0.0029
     32 C          13.3818   42.8295    6.0557 C.ar    1  UNL1       -0.0003
     33 C          14.6720   43.1972    6.4453 C.ar    1  UNL1       -0.0000
     34 C          15.3396   42.4686    7.4342 C.ar    1  UNL1       -0.0003
     35 C          16.6312   42.8421    7.8162 C.ar    1  UNL1       -0.0000
     36 C          17.3042   42.1228    8.8091 C.ar    1  UNL1       -0.0000
     37 C          16.6883   41.0266    9.4230 C.ar    1  UNL1       -0.0000
     38 C          15.3971   40.6443    9.0447 C.ar    1  UNL1       -0.0003
     39 C          14.7090   41.3561    8.0480 C.ar    1  UNL1       -0.0027
@<TRIPOS>BOND
     1    20    21    1
     2    21    19    1
     3    17    19    1
     4    17    11    1
     5    12    14   ar
     6    13     9    1
     7    13    15   ar
     8     7     1    1
     9     2     3   ar
    10     4     5   ar
    11    22     4    1
    12    22    27    1
    13    23    27    1
    14    23    24    1
    15    24    28    1
    16    29    28    1
    17    29    30    1
    18    31    32   ar
    19    33    34   ar
    20    35    36   ar
    21    37    38   ar
    22    39    30   ar
    23    39    34   ar
    24    25    28    1
    25    25    26    1
    26    26    27    1
    27     6     1   ar
    28     9     7   am
    29    15    11   ar
    30    17    18    2
    31    11    12   ar
    32    13    14   ar
    33     7     8    2
    34     1     2   ar
    35     3     4   ar
    36    30    31   ar
    37    32    33   ar
    38    34    35   ar
    39    36    37   ar
    40    38    39   ar
    41     5     6   ar
    42     9    10    1
    43    15    16    1
@<TRIPOS>MOLECULE
Molport-051-896-426
 39 43 0 0 0
SMALL
GASTEIGER

@<TRIPOS>ATOM
      1 C           2.9914   42.0673   11.3534 C.ar    1  UNL1        0.0537
      2 C           4.3248   41.7112   11.6131 C.ar    1  UNL1        0.0042
      3 C           5.1440   41.2375   10.5808 C.ar    1  UNL1       -0.0028
      4 C           4.6351   41.1153    9.2829 C.ar    1  UNL1       -0.0061
      5 C           3.3114   41.4822    9.0139 C.ar    1  UNL1       -0.0028
      6 C           2.4936   41.9554   10.0454 C.ar    1  UNL1        0.0042
      7 C           2.1145   42.5464   12.4379 C.2     1  UNL1        0.2516
      8 O           2.5876   43.2537   13.3679 O.2     1  UNL1       -0.2697
      9 N           0.7230   42.2008   12.4262 N.am    1  UNL1       -0.2519
     10 H           0.3979   41.6716   11.6624 H       1  UNL1        0.1580
     11 C          -1.1264   43.5449   15.0653 C.ar    1  UNL1        0.1547
     12 C          -2.0317   42.6251   14.5816 C.ar    1  UNL1        0.1253
     13 C          -0.2350   42.5582   13.4287 C.ar    1  UNL1        0.2008
     14 N          -1.4577   41.9974   13.5357 N.ar    1  UNL1       -0.2118
     15 N           0.0107   43.5105   14.3468 N.ar    1  UNL1       -0.3201
     16 H           0.8251   44.0510   14.4643 H       1  UNL1        0.1688
     17 C          -1.3440   44.4429   16.2048 C.2     1  UNL1        0.3587
     18 O          -1.6346   45.6555   16.0060 O.2     1  UNL1       -0.2432
     19 O          -1.2195   43.9458   17.5057 O.3     1  UNL1       -0.4444
     20 C           1.0633   44.6973   17.7396 C.3     1  UNL1        0.0513
     21 C          -0.2678   44.4577   18.4318 C.3     1  UNL1        0.2089
     22 C           5.4961   40.5687    8.1933 C.3     1  UNL1        0.0992
     23 C           7.8276   40.5775    7.9449 C.3     1  UNL1        0.0899
     24 C           8.8878   40.9924    8.9701 C.3     1  UNL1        0.0899
     25 C           7.9495   43.2383    9.0302 C.3     1  UNL1        0.0899
     26 C           6.6523   42.4143    9.0505 C.3     1  UNL1        0.0899
     27 N           6.6336   41.4452    7.9501 N.3     1  UNL1       -0.2665
     28 N           9.1655   42.4255    8.8521 N.3     1  UNL1       -0.2665
     29 C          10.0650   42.7792    9.9425 C.3     1  UNL1        0.0992
     30 C          11.2211   41.8252   10.0014 C.ar    1  UNL1       -0.0061
     31 C          11.2297   40.8358   10.9949 C.ar    1  UNL1       -0.0029
     32 C          12.2855   39.9221   11.0819 C.ar    1  UNL1       -0.0003
     33 C          13.3477   39.9892   10.1769 C.ar    1  UNL1       -0.0000
     34 C          13.3595   40.9715    9.1823 C.ar    1  UNL1       -0.0003
     35 C          14.4273   41.0327    8.2824 C.ar    1  UNL1       -0.0000
     36 C          14.4446   42.0082    7.2802 C.ar    1  UNL1       -0.0000
     37 C          13.3943   42.9266    7.1748 C.ar    1  UNL1       -0.0000
     38 C          12.3233   42.8742    8.0729 C.ar    1  UNL1       -0.0003
     39 C          12.2926   41.9011    9.0857 C.ar    1  UNL1       -0.0027
@<TRIPOS>BOND
     1    20    21    1
     2    21    19    1
     3    17    19    1
     4    17    11    1
     5    12    14   ar
     6    13     9    1
     7    13    15   ar
     8     7     1    1
     9     2     3   ar
    10     4     5   ar
    11    22     4    1
    12    22    27    1
    13    23    27    1
    14    23    24    1
    15    24    28    1
    16    29    28    1
    17    29    30    1
    18    31    32   ar
    19    33    34   ar
    20    35    36   ar
    21    37    38   ar
    22    39    30   ar
    23    39    34   ar
    24    25    28    1
    25    25    26    1
    26    26    27    1
    27     6     1   ar
    28     9     7   am
    29    15    11   ar
    30    17    18    2
    31    11    12   ar
    32    13    14   ar
    33     7     8    2
    34     1     2   ar
    35     3     4   ar
    36    30    31   ar
    37    32    33   ar
    38    34    35   ar
    39    36    37   ar
    40    38    39   ar
    41     5     6   ar
    42     9    10    1
    43    15    16    1
@<TRIPOS>MOLECULE
Molport-051-896-426
 39 43 0 0 0
SMALL
GASTEIGER

@<TRIPOS>ATOM
      1 C          10.7054   41.2985    9.9784 C.ar    1  UNL1        0.0537
      2 C          11.1027   40.4331   11.0105 C.ar    1  UNL1        0.0042
      3 C          12.4206   39.9633   11.0713 C.ar    1  UNL1       -0.0028
      4 C          13.3491   40.3543   10.1000 C.ar    1  UNL1       -0.0061
      5 C          12.9639   41.2283    9.0768 C.ar    1  UNL1       -0.0028
      6 C          11.6474   41.6973    9.0165 C.ar    1  UNL1        0.0042
      7 C           9.3147   41.7813    9.8932 C.2     1  UNL1        0.2516
      8 O           9.0273   42.7528    9.1431 O.2     1  UNL1       -0.2697
      9 N           8.2948   41.1390   10.6699 N.am    1  UNL1       -0.2519
     10 H           8.5661   40.3665   11.2167 H       1  UNL1        0.1580
     11 C           5.0721   42.3876   10.1738 C.ar    1  UNL1        0.1547
     12 C           4.8863   41.7072   11.3579 C.ar    1  UNL1        0.1253
     13 C           6.9162   41.5231   10.7197 C.ar    1  UNL1        0.2008
     14 N           6.0675   41.1562   11.7025 N.ar    1  UNL1       -0.2118
     15 N           6.3487   42.2795    9.7628 N.ar    1  UNL1       -0.3201
     16 H           6.7663   42.6613    8.9571 H       1  UNL1        0.1688
     17 C           4.0419   43.1370    9.4462 C.2     1  UNL1        0.3587
     18 O           2.8993   42.6295    9.2692 O.2     1  UNL1       -0.2432
     19 O           4.3399   44.4088    8.9477 O.3     1  UNL1       -0.4444
     20 C           6.0142   44.4431    7.2081 C.3     1  UNL1        0.0513
     21 C           4.5522   44.6564    7.5624 C.3     1  UNL1        0.2089
     22 C          14.7411   39.8178   10.1410 C.3     1  UNL1        0.0992
     23 C          16.0930   37.9457   10.5475 C.3     1  UNL1        0.0899
     24 C          16.7538   37.0148    9.5259 C.3     1  UNL1        0.0899
     25 C          14.5602   36.4087    8.6606 C.3     1  UNL1        0.0899
     26 C          14.3686   37.9258    8.8145 C.3     1  UNL1        0.0899
     27 N          14.7288   38.3616   10.1675 N.3     1  UNL1       -0.2665
     28 N          15.8456   35.9171    9.1869 N.3     1  UNL1       -0.2665
     29 C          16.4719   35.1587    8.1118 C.3     1  UNL1        0.0992
     30 C          17.1334   33.9261    8.6536 C.ar    1  UNL1       -0.0061
     31 C          18.4465   34.0216    9.1360 C.ar    1  UNL1       -0.0029
     32 C          19.0986   32.8979    9.6552 C.ar    1  UNL1       -0.0003
     33 C          18.4451   31.6638    9.6954 C.ar    1  UNL1       -0.0000
     34 C          17.1375   31.5475    9.2147 C.ar    1  UNL1       -0.0003
     35 C          16.4921   30.3084    9.2568 C.ar    1  UNL1       -0.0000
     36 C          15.1817   30.1840    8.7838 C.ar    1  UNL1       -0.0000
     37 C          14.5122   31.2983    8.2664 C.ar    1  UNL1       -0.0000
     38 C          15.1517   32.5414    8.2180 C.ar    1  UNL1       -0.0003
     39 C          16.4681   32.6817    8.6879 C.ar    1  UNL1       -0.0027
@<TRIPOS>BOND
     1    20    21    1
     2    21    19    1
     3    17    19    1
     4    17    11    1
     5    12    14   ar
     6    13     9    1
     7    13    15   ar
     8     7     1    1
     9     2     3   ar
    10     4     5   ar
    11    22     4    1
    12    22    27    1
    13    23    27    1
    14    23    24    1
    15    24    28    1
    16    29    28    1
    17    29    30    1
    18    31    32   ar
    19    33    34   ar
    20    35    36   ar
    21    37    38   ar
    22    39    30   ar
    23    39    34   ar
    24    25    28    1
    25    25    26    1
    26    26    27    1
    27     6     1   ar
    28     9     7   am
    29    15    11   ar
    30    17    18    2
    31    11    12   ar
    32    13    14   ar
    33     7     8    2
    34     1     2   ar
    35     3     4   ar
    36    30    31   ar
    37    32    33   ar
    38    34    35   ar
    39    36    37   ar
    40    38    39   ar
    41     5     6   ar
    42     9    10    1
    43    15    16    1
@<TRIPOS>MOLECULE
Molport-051-896-426
 39 43 0 0 0
SMALL
GASTEIGER

@<TRIPOS>ATOM
      1 C          10.7526   39.9191    9.4550 C.ar    1  UNL1        0.0537
      2 C          11.3974   40.0071   10.6993 C.ar    1  UNL1        0.0042
      3 C          12.1948   38.9516   11.1587 C.ar    1  UNL1       -0.0028
      4 C          12.3515   37.8008   10.3779 C.ar    1  UNL1       -0.0061
      5 C          11.7236   37.7123    9.1301 C.ar    1  UNL1       -0.0028
      6 C          10.9273   38.7670    8.6716 C.ar    1  UNL1        0.0042
      7 C           9.8934   41.0160    8.9722 C.2     1  UNL1        0.2516
      8 O          10.4058   42.1121    8.6188 O.2     1  UNL1       -0.2697
      9 N           8.4736   40.8261    8.9094 N.am    1  UNL1       -0.2519
     10 H           8.1266   39.9419    9.1684 H       1  UNL1        0.1580
     11 C           5.8133   43.0538    8.5196 C.ar    1  UNL1        0.1547
     12 C           6.5463   43.3554    7.3921 C.ar    1  UNL1        0.1253
     13 C           7.5162   41.8103    8.5027 C.ar    1  UNL1        0.2008
     14 N           7.6336   42.5585    7.3859 N.ar    1  UNL1       -0.2118
     15 N           6.4148   42.0798    9.2267 N.ar    1  UNL1       -0.3201
     16 H           6.1203   41.6649   10.0696 H       1  UNL1        0.1688
     17 C           4.5494   43.6858    8.9137 C.2     1  UNL1        0.3587
     18 O           4.2708   44.8477    8.5053 O.2     1  UNL1       -0.2432
     19 O           3.6654   42.9944    9.7475 O.3     1  UNL1       -0.4444
     20 C           3.4473   40.6537   10.2991 C.3     1  UNL1        0.0513
     21 C           3.0423   41.7755    9.3579 C.3     1  UNL1        0.2089
     22 C          13.1656   36.6590   10.8885 C.3     1  UNL1        0.0992
     23 C          14.4881   38.3443   11.8415 C.3     1  UNL1        0.0899
     24 C          15.2117   39.4945   11.1339 C.3     1  UNL1        0.0899
     25 C          16.5264   37.8854    9.8649 C.3     1  UNL1        0.0899
     26 C          15.1430   37.2226    9.7702 C.3     1  UNL1        0.0899
     27 N          14.5470   37.0688   11.1012 N.3     1  UNL1       -0.2665
     28 N          16.5568   39.0722   10.7376 N.3     1  UNL1       -0.2665
     29 C          17.1307   40.1539    9.9479 C.3     1  UNL1        0.0992
     30 C          16.0877   40.7699    9.0629 C.ar    1  UNL1       -0.0061
     31 C          14.8459   40.1310    8.9378 C.ar    1  UNL1       -0.0029
     32 C          13.8432   40.6744    8.1276 C.ar    1  UNL1       -0.0003
     33 C          14.0721   41.8630    7.4301 C.ar    1  UNL1       -0.0000
     34 C          15.3055   42.5122    7.5382 C.ar    1  UNL1       -0.0003
     35 C          15.5266   43.6998    6.8350 C.ar    1  UNL1       -0.0000
     36 C          16.7553   44.3596    6.9421 C.ar    1  UNL1       -0.0000
     37 C          17.7676   43.8335    7.7522 C.ar    1  UNL1       -0.0000
     38 C          17.5556   42.6442    8.4571 C.ar    1  UNL1       -0.0003
     39 C          16.3274   41.9693    8.3585 C.ar    1  UNL1       -0.0027
@<TRIPOS>BOND
     1    20    21    1
     2    21    19    1
     3    17    19    1
     4    17    11    1
     5    12    14   ar
     6    13     9    1
     7    13    15   ar
     8     7     1    1
     9     2     3   ar
    10     4     5   ar
    11    22     4    1
    12    22    27    1
    13    23    27    1
    14    23    24    1
    15    24    28    1
    16    29    28    1
    17    29    30    1
    18    31    32   ar
    19    33    34   ar
    20    35    36   ar
    21    37    38   ar
    22    39    30   ar
    23    39    34   ar
    24    25    28    1
    25    25    26    1
    26    26    27    1
    27     6     1   ar
    28     9     7   am
    29    15    11   ar
    30    17    18    2
    31    11    12   ar
    32    13    14   ar
    33     7     8    2
    34     1     2   ar
    35     3     4   ar
    36    30    31   ar
    37    32    33   ar
    38    34    35   ar
    39    36    37   ar
    40    38    39   ar
    41     5     6   ar
    42     9    10    1
    43    15    16    1
@<TRIPOS>MOLECULE
Molport-051-896-426
 39 43 0 0 0
SMALL
GASTEIGER

@<TRIPOS>ATOM
      1 C          13.1925   37.3488   10.0925 C.ar    1  UNL1        0.0537
      2 C          11.9301   37.3402    9.4774 C.ar    1  UNL1        0.0042
      3 C          11.0549   38.4206    9.6444 C.ar    1  UNL1       -0.0028
      4 C          11.4354   39.5156   10.4284 C.ar    1  UNL1       -0.0061
      5 C          12.6979   39.5375   11.0323 C.ar    1  UNL1       -0.0028
      6 C          13.5718   38.4581   10.8652 C.ar    1  UNL1        0.0042
      7 C          14.1126   36.2065    9.9406 C.2     1  UNL1        0.2516
      8 O          15.2393   36.2225   10.5056 O.2     1  UNL1       -0.2697
      9 N          13.7164   35.0809    9.1457 N.am    1  UNL1       -0.2519
     10 H          12.8151   35.1050    8.7503 H       1  UNL1        0.1580
     11 C          15.0475   31.9351    8.4222 C.ar    1  UNL1        0.1547
     12 C          16.2093   32.6693    8.5261 C.ar    1  UNL1        0.1253
     13 C          14.5174   33.9248    8.8766 C.ar    1  UNL1        0.2008
     14 N          15.8653   33.9401    8.8162 N.ar    1  UNL1       -0.2118
     15 N          13.9744   32.7163    8.6427 N.ar    1  UNL1       -0.3201
     16 H          13.0227   32.4645    8.6348 H       1  UNL1        0.1688
     17 C          14.9645   30.5018    8.1208 C.2     1  UNL1        0.3587
     18 O          15.3296   29.6537    8.9822 O.2     1  UNL1       -0.2432
     19 O          14.4865   30.0878    6.8738 O.3     1  UNL1       -0.4444
     20 C          12.6690   29.9717    5.2881 C.3     1  UNL1        0.0513
     21 C          13.5826   30.8716    6.1030 C.3     1  UNL1        0.2089
     22 C          10.4845   40.6460   10.6413 C.3     1  UNL1        0.0992
     23 C          10.0318   41.0518    8.3769 C.3     1  UNL1        0.0899
     24 C          10.9990   40.9842    7.1906 C.3     1  UNL1        0.0899
     25 C          12.3551   42.7378    8.1976 C.3     1  UNL1        0.0899
     26 C          12.0688   41.8836    9.4428 C.3     1  UNL1        0.0899
     27 N          10.6297   41.6432    9.5897 N.3     1  UNL1       -0.2665
     28 N          11.6397   42.2859    6.9913 N.3     1  UNL1       -0.2665
     29 C          12.6458   42.1140    5.9515 C.3     1  UNL1        0.0992
     30 C          13.8578   42.9465    6.2492 C.ar    1  UNL1       -0.0061
     31 C          13.9998   44.1851    5.6075 C.ar    1  UNL1       -0.0029
     32 C          15.1117   44.9956    5.8608 C.ar    1  UNL1       -0.0003
     33 C          16.0968   44.5750    6.7576 C.ar    1  UNL1       -0.0000
     34 C          15.9754   43.3411    7.4035 C.ar    1  UNL1       -0.0003
     35 C          16.9669   42.9272    8.2976 C.ar    1  UNL1       -0.0000
     36 C          16.8506   41.6971    8.9531 C.ar    1  UNL1       -0.0000
     37 C          15.7426   40.8760    8.7162 C.ar    1  UNL1       -0.0000
     38 C          14.7473   41.2814    7.8210 C.ar    1  UNL1       -0.0003
     39 C          14.8508   42.5134    7.1540 C.ar    1  UNL1       -0.0027
@<TRIPOS>BOND
     1    20    21    1
     2    21    19    1
     3    17    19    1
     4    17    11    1
     5    12    14   ar
     6    13     9    1
     7    13    15   ar
     8     7     1    1
     9     2     3   ar
    10     4     5   ar
    11    22     4    1
    12    22    27    1
    13    23    27    1
    14    23    24    1
    15    24    28    1
    16    29    28    1
    17    29    30    1
    18    31    32   ar
    19    33    34   ar
    20    35    36   ar
    21    37    38   ar
    22    39    30   ar
    23    39    34   ar
    24    25    28    1
    25    25    26    1
    26    26    27    1
    27     6     1   ar
    28     9     7   am
    29    15    11   ar
    30    17    18    2
    31    11    12   ar
    32    13    14   ar
    33     7     8    2
    34     1     2   ar
    35     3     4   ar
    36    30    31   ar
    37    32    33   ar
    38    34    35   ar
    39    36    37   ar
    40    38    39   ar
    41     5     6   ar
    42     9    10    1
    43    15    16    1
@<TRIPOS>MOLECULE
Molport-051-896-426
 39 43 0 0 0
SMALL
GASTEIGER

@<TRIPOS>ATOM
      1 C           9.8060   41.1550    9.6846 C.ar    1  UNL1        0.0537
      2 C           9.2042   40.6942    8.5025 C.ar    1  UNL1        0.0042
      3 C           7.8147   40.7651    8.3423 C.ar    1  UNL1       -0.0028
      4 C           7.0182   41.2956    9.3633 C.ar    1  UNL1       -0.0061
      5 C           7.6126   41.7702   10.5382 C.ar    1  UNL1       -0.0028
      6 C           9.0005   41.6993   10.6977 C.ar    1  UNL1        0.0042
      7 C          11.2659   41.0646    9.8717 C.2     1  UNL1        0.2516
      8 O          12.0109   42.0112    9.5002 O.2     1  UNL1       -0.2697
      9 N          11.8296   39.8934   10.4770 N.am    1  UNL1       -0.2519
     10 H          11.2024   39.1962   10.7763 H       1  UNL1        0.1580
     11 C          15.3155   39.7046   10.4110 C.ar    1  UNL1        0.1547
     12 C          15.0564   38.9654   11.5450 C.ar    1  UNL1        0.1253
     13 C          13.2254   39.6495   10.6843 C.ar    1  UNL1        0.2008
     14 N          13.7196   38.9333   11.7156 N.ar    1  UNL1       -0.2118
     15 N          14.1681   40.1399    9.8592 N.ar    1  UNL1       -0.3201
     16 H          14.0477   40.6850    9.0483 H       1  UNL1        0.1688
     17 C          16.6447   39.9872    9.8582 C.2     1  UNL1        0.3587
     18 O          17.3936   39.0362    9.4985 O.2     1  UNL1       -0.2432
     19 O          17.0734   41.3128    9.7416 O.3     1  UNL1       -0.4444
     20 C          16.1572   42.4296    7.8065 C.3     1  UNL1        0.0513
     21 C          17.4073   41.9009    8.4893 C.3     1  UNL1        0.2089
     22 C           5.5341   41.3298    9.2092 C.3     1  UNL1        0.0992
     23 C           4.6647   40.8212   11.3265 C.3     1  UNL1        0.0899
     24 C           3.1956   40.6867   11.7399 C.3     1  UNL1        0.0899
     25 C           2.8060   43.0050   11.1059 C.3     1  UNL1        0.0899
     26 C           3.6674   42.5518    9.9165 C.3     1  UNL1        0.0899
     27 N           4.9105   41.9280   10.3815 N.3     1  UNL1       -0.2665
     28 N           2.6729   41.9876   12.1633 N.3     1  UNL1       -0.2665
     29 C           1.2451   41.8194   12.4007 C.3     1  UNL1        0.0992
     30 C           0.8087   42.6341   13.5823 C.ar    1  UNL1       -0.0061
     31 C           1.4716   43.8397   13.8527 C.ar    1  UNL1       -0.0029
     32 C           1.0926   44.6329   14.9410 C.ar    1  UNL1       -0.0003
     33 C           0.0469   44.2278   15.7740 C.ar    1  UNL1       -0.0000
     34 C          -0.6231   43.0266   15.5236 C.ar    1  UNL1       -0.0003
     35 C          -1.6667   42.6279   16.3636 C.ar    1  UNL1       -0.0000
     36 C          -2.3467   41.4308   16.1170 C.ar    1  UNL1       -0.0000
     37 C          -1.9850   40.6276   15.0299 C.ar    1  UNL1       -0.0000
     38 C          -0.9399   41.0178   14.1860 C.ar    1  UNL1       -0.0003
     39 C          -0.2466   42.2167   14.4217 C.ar    1  UNL1       -0.0027
@<TRIPOS>BOND
     1    20    21    1
     2    21    19    1
     3    17    19    1
     4    17    11    1
     5    12    14   ar
     6    13     9    1
     7    13    15   ar
     8     7     1    1
     9     2     3   ar
    10     4     5   ar
    11    22     4    1
    12    22    27    1
    13    23    27    1
    14    23    24    1
    15    24    28    1
    16    29    28    1
    17    29    30    1
    18    31    32   ar
    19    33    34   ar
    20    35    36   ar
    21    37    38   ar
    22    39    30   ar
    23    39    34   ar
    24    25    28    1
    25    25    26    1
    26    26    27    1
    27     6     1   ar
    28     9     7   am
    29    15    11   ar
    30    17    18    2
    31    11    12   ar
    32    13    14   ar
    33     7     8    2
    34     1     2   ar
    35     3     4   ar
    36    30    31   ar
    37    32    33   ar
    38    34    35   ar
    39    36    37   ar
    40    38    39   ar
    41     5     6   ar
    42     9    10    1
    43    15    16    1
@<TRIPOS>MOLECULE
Molport-051-896-426
 39 43 0 0 0
SMALL
GASTEIGER

@<TRIPOS>ATOM
      1 C           9.3531   41.5359   10.9266 C.ar    1  UNL1        0.0537
      2 C           9.6488   42.4162    9.8733 C.ar    1  UNL1        0.0042
      3 C          10.9158   42.4049    9.2770 C.ar    1  UNL1       -0.0028
      4 C          11.8956   41.5147    9.7307 C.ar    1  UNL1       -0.0061
      5 C          11.6032   40.6243   10.7703 C.ar    1  UNL1       -0.0028
      6 C          10.3374   40.6359   11.3656 C.ar    1  UNL1        0.0042
      7 C           8.0291   41.5550   11.5756 C.2     1  UNL1        0.2516
      8 O           7.9164   41.9370   12.7716 O.2     1  UNL1       -0.2697
      9 N           6.8740   41.1352   10.8371 N.am    1  UNL1       -0.2519
     10 H           7.0115   40.8745    9.8978 H       1  UNL1        0.1580
     11 C           3.5276   41.5667   11.7354 C.ar    1  UNL1        0.1547
     12 C           3.7821   40.3515   12.3339 C.ar    1  UNL1        0.1253
     13 C           5.5377   41.0621   11.3466 C.ar    1  UNL1        0.2008
     14 N           5.0677   40.0332   12.0824 N.ar    1  UNL1       -0.2118
     15 N           4.6280   42.0248   11.1111 N.ar    1  UNL1       -0.3201
     16 H           4.7401   42.8616   10.6047 H       1  UNL1        0.1688
     17 C           2.2483   42.2842   11.7645 C.2     1  UNL1        0.3587
     18 O           1.5795   42.4248   10.7027 O.2     1  UNL1       -0.2432
     19 O           1.7841   42.8137   12.9724 O.3     1  UNL1       -0.4444
     20 C           0.3974   42.4188   14.9094 C.3     1  UNL1        0.0513
     21 C           0.4388   42.6562   13.4092 C.3     1  UNL1        0.2089
     22 C          13.2589   41.5344    9.1238 C.3     1  UNL1        0.0992
     23 C          13.0347   42.1870    6.8830 C.3     1  UNL1        0.0899
     24 C          11.7972   42.0839    5.9857 C.3     1  UNL1        0.0899
     25 C          11.8053   39.6640    6.2541 C.3     1  UNL1        0.0899
     26 C          12.0894   40.0871    7.7041 C.3     1  UNL1        0.0899
     27 N          13.2219   41.0169    7.7629 N.3     1  UNL1       -0.2665
     28 N          11.7798   40.7886    5.3025 N.3     1  UNL1       -0.2665
     29 C          10.5141   40.6984    4.5865 C.3     1  UNL1        0.0992
     30 C           9.4559   40.0952    5.4622 C.ar    1  UNL1       -0.0061
     31 C           9.4173   38.7016    5.6116 C.ar    1  UNL1       -0.0029
     32 C           8.4508   38.0983    6.4234 C.ar    1  UNL1       -0.0003
     33 C           7.5089   38.8826    7.0939 C.ar    1  UNL1       -0.0000
     34 C           7.5283   40.2734    6.9538 C.ar    1  UNL1       -0.0003
     35 C           6.5808   41.0502    7.6265 C.ar    1  UNL1       -0.0000
     36 C           6.5964   42.4428    7.4972 C.ar    1  UNL1       -0.0000
     37 C           7.5592   43.0636    6.6938 C.ar    1  UNL1       -0.0000
     38 C           8.5093   42.2936    6.0150 C.ar    1  UNL1       -0.0003
     39 C           8.5054   40.8938    6.1339 C.ar    1  UNL1       -0.0027
@<TRIPOS>BOND
     1    20    21    1
     2    21    19    1
     3    17    19    1
     4    17    11    1
     5    12    14   ar
     6    13     9    1
     7    13    15   ar
     8     7     1    1
     9     2     3   ar
    10     4     5   ar
    11    22     4    1
    12    22    27    1
    13    23    27    1
    14    23    24    1
    15    24    28    1
    16    29    28    1
    17    29    30    1
    18    31    32   ar
    19    33    34   ar
    20    35    36   ar
    21    37    38   ar
    22    39    30   ar
    23    39    34   ar
    24    25    28    1
    25    25    26    1
    26    26    27    1
    27     6     1   ar
    28     9     7   am
    29    15    11   ar
    30    17    18    2
    31    11    12   ar
    32    13    14   ar
    33     7     8    2
    34     1     2   ar
    35     3     4   ar
    36    30    31   ar
    37    32    33   ar
    38    34    35   ar
    39    36    37   ar
    40    38    39   ar
    41     5     6   ar
    42     9    10    1
    43    15    16    1
@<TRIPOS>MOLECULE
Molport-051-896-426
 39 43 0 0 0
SMALL
GASTEIGER

@<TRIPOS>ATOM
      1 C          12.9238   39.0390    9.3980 C.ar    1  UNL1        0.0537
      2 C          13.1105   37.6699    9.1477 C.ar    1  UNL1        0.0042
      3 C          14.4009   37.1501    8.9867 C.ar    1  UNL1       -0.0028
      4 C          15.5126   37.9957    9.0733 C.ar    1  UNL1       -0.0061
      5 C          15.3348   39.3588    9.3372 C.ar    1  UNL1       -0.0028
      6 C          14.0456   39.8775    9.4980 C.ar    1  UNL1        0.0042
      7 C          11.5682   39.5998    9.5473 C.2     1  UNL1        0.2516
      8 O          10.6012   39.0932    8.9171 O.2     1  UNL1       -0.2697
      9 N          11.3601   40.7244   10.4122 N.am    1  UNL1       -0.2519
     10 H          12.1424   41.0638   10.9041 H       1  UNL1        0.1580
     11 C           8.0630   41.7113   11.0011 C.ar    1  UNL1        0.1547
     12 C           8.6662   42.9452   10.8865 C.ar    1  UNL1        0.1253
     13 C          10.1135   41.3968   10.6229 C.ar    1  UNL1        0.2008
     14 N           9.9764   42.7390   10.6452 N.ar    1  UNL1       -0.2118
     15 N           8.9659   40.7276   10.8353 N.ar    1  UNL1       -0.3201
     16 H           8.8218   39.7541   10.8627 H       1  UNL1        0.1688
     17 C           6.6386   41.4754   11.2610 C.2     1  UNL1        0.3587
     18 O           6.2551   41.1409   12.4167 O.2     1  UNL1       -0.2432
     19 O           5.7168   41.6171   10.2194 O.3     1  UNL1       -0.4444
     20 C           3.3337   42.0068   10.2208 C.3     1  UNL1        0.0513
     21 C           4.4475   40.9734   10.2292 C.3     1  UNL1        0.2089
     22 C          16.8840   37.4481    8.8576 C.3     1  UNL1        0.0992
     23 C          18.2913   35.5770    8.9834 C.3     1  UNL1        0.0899
     24 C          18.1407   34.2289    8.2712 C.3     1  UNL1        0.0899
     25 C          16.0134   33.8713    9.4003 C.3     1  UNL1        0.0899
     26 C          15.8572   35.3508    9.0146 C.3     1  UNL1        0.0899
     27 N          17.0124   36.1320    9.4679 N.3     1  UNL1       -0.2665
     28 N          17.3424   33.3152    9.0914 N.3     1  UNL1       -0.2665
     29 C          17.1160   32.1139    8.2984 C.3     1  UNL1        0.0992
     30 C          17.0748   32.4483    6.8366 C.ar    1  UNL1       -0.0061
     31 C          16.2015   31.7329    6.0050 C.ar    1  UNL1       -0.0029
     32 C          16.1272   32.0166    4.6371 C.ar    1  UNL1       -0.0003
     33 C          16.9284   33.0184    4.0839 C.ar    1  UNL1       -0.0000
     34 C          17.8089   33.7395    4.8959 C.ar    1  UNL1       -0.0003
     35 C          18.6085   34.7386    4.3336 C.ar    1  UNL1       -0.0000
     36 C          19.4877   35.4693    5.1394 C.ar    1  UNL1       -0.0000
     37 C          19.5711   35.2030    6.5105 C.ar    1  UNL1       -0.0000
     38 C          18.7766   34.2030    7.0808 C.ar    1  UNL1       -0.0003
     39 C          17.8898   33.4596    6.2841 C.ar    1  UNL1       -0.0027
@<TRIPOS>BOND
     1    20    21    1
     2    21    19    1
     3    17    19    1
     4    17    11    1
     5    12    14   ar
     6    13     9    1
     7    13    15   ar
     8     7     1    1
     9     2     3   ar
    10     4     5   ar
    11    22     4    1
    12    22    27    1
    13    23    27    1
    14    23    24    1
    15    24    28    1
    16    29    28    1
    17    29    30    1
    18    31    32   ar
    19    33    34   ar
    20    35    36   ar
    21    37    38   ar
    22    39    30   ar
    23    39    34   ar
    24    25    28    1
    25    25    26    1
    26    26    27    1
    27     6     1   ar
    28     9     7   am
    29    15    11   ar
    30    17    18    2
    31    11    12   ar
    32    13    14   ar
    33     7     8    2
    34     1     2   ar
    35     3     4   ar
    36    30    31   ar
    37    32    33   ar
    38    34    35   ar
    39    36    37   ar
    40    38    39   ar
    41     5     6   ar
    42     9    10    1
    43    15    16    1
@<TRIPOS>MOLECULE
Molport-051-896-426
 39 43 0 0 0
SMALL
GASTEIGER

@<TRIPOS>ATOM
      1 C          13.0483   38.9562    9.5408 C.ar    1  UNL1        0.0537
      2 C          13.1934   37.6256    9.1161 C.ar    1  UNL1        0.0042
      3 C          14.4411   36.9935    9.1848 C.ar    1  UNL1       -0.0028
      4 C          15.5520   37.6880    9.6769 C.ar    1  UNL1       -0.0061
      5 C          15.4115   39.0097   10.1156 C.ar    1  UNL1       -0.0028
      6 C          14.1649   39.6406   10.0469 C.ar    1  UNL1        0.0042
      7 C          11.7435   39.6375    9.4522 C.2     1  UNL1        0.2516
      8 O          10.8844   39.2522    8.6140 O.2     1  UNL1       -0.2697
      9 N          11.4613   40.7400   10.3244 N.am    1  UNL1       -0.2519
     10 H          12.1539   40.9823   10.9807 H       1  UNL1        0.1580
     11 C           8.2107   42.0138   10.2771 C.ar    1  UNL1        0.1547
     12 C           8.9252   43.1841   10.4169 C.ar    1  UNL1        0.1253
     13 C          10.2600   41.5194   10.3240 C.ar    1  UNL1        0.2008
     14 N          10.2341   42.8629   10.4468 N.ar    1  UNL1       -0.2118
     15 N           9.0423   40.9578   10.2160 N.ar    1  UNL1       -0.3201
     16 H           8.8148   40.0051   10.1165 H       1  UNL1        0.1688
     17 C           6.7498   41.9069   10.1973 C.2     1  UNL1        0.3587
     18 O           6.1415   42.3258    9.1731 O.2     1  UNL1       -0.2432
     19 O           6.0420   41.3461   11.2647 O.3     1  UNL1       -0.4444
     20 C           3.9013   40.3148   10.8347 C.3     1  UNL1        0.0513
     21 C           4.6366   41.5089   11.4195 C.3     1  UNL1        0.2089
     22 C          16.8899   37.0276    9.7081 C.3     1  UNL1        0.0992
     23 C          18.1324   35.0714    9.3515 C.3     1  UNL1        0.0899
     24 C          18.8478   34.6235    8.0729 C.3     1  UNL1        0.0899
     25 C          16.7195   34.6030    6.8905 C.3     1  UNL1        0.0899
     26 C          16.5693   35.9174    7.6727 C.3     1  UNL1        0.0899
     27 N          16.8232   35.7052    9.1013 N.3     1  UNL1       -0.2665
     28 N          17.9346   33.8439    7.2344 N.3     1  UNL1       -0.2665
     29 C          18.6265   33.5767    5.9802 C.3     1  UNL1        0.0992
     30 C          18.7971   34.8425    5.1934 C.ar    1  UNL1       -0.0061
     31 C          19.4662   35.9218    5.7881 C.ar    1  UNL1       -0.0029
     32 C          19.6522   37.1184    5.0876 C.ar    1  UNL1       -0.0003
     33 C          19.1682   37.2507    3.7838 C.ar    1  UNL1       -0.0000
     34 C          18.4943   36.1875    3.1756 C.ar    1  UNL1       -0.0003
     35 C          18.0114   36.3294    1.8716 C.ar    1  UNL1       -0.0000
     36 C          17.3414   35.2689    1.2528 C.ar    1  UNL1       -0.0000
     37 C          17.1513   34.0629    1.9362 C.ar    1  UNL1       -0.0000
     38 C          17.6288   33.9135    3.2424 C.ar    1  UNL1       -0.0003
     39 C          18.3023   34.9701    3.8776 C.ar    1  UNL1       -0.0027
@<TRIPOS>BOND
     1    20    21    1
     2    21    19    1
     3    17    19    1
     4    17    11    1
     5    12    14   ar
     6    13     9    1
     7    13    15   ar
     8     7     1    1
     9     2     3   ar
    10     4     5   ar
    11    22     4    1
    12    22    27    1
    13    23    27    1
    14    23    24    1
    15    24    28    1
    16    29    28    1
    17    29    30    1
    18    31    32   ar
    19    33    34   ar
    20    35    36   ar
    21    37    38   ar
    22    39    30   ar
    23    39    34   ar
    24    25    28    1
    25    25    26    1
    26    26    27    1
    27     6     1   ar
    28     9     7   am
    29    15    11   ar
    30    17    18    2
    31    11    12   ar
    32    13    14   ar
    33     7     8    2
    34     1     2   ar
    35     3     4   ar
    36    30    31   ar
    37    32    33   ar
    38    34    35   ar
    39    36    37   ar
    40    38    39   ar
    41     5     6   ar
    42     9    10    1
    43    15    16    1
@<TRIPOS>MOLECULE
Molport-051-896-426
 39 43 0 0 0
SMALL
GASTEIGER

@<TRIPOS>ATOM
      1 C          12.5586   38.9769    9.8865 C.ar    1  UNL1        0.0537
      2 C          13.9474   39.1641    9.9765 C.ar    1  UNL1        0.0042
      3 C          14.8170   38.0726    9.8596 C.ar    1  UNL1       -0.0028
      4 C          14.3038   36.7871    9.6534 C.ar    1  UNL1       -0.0061
      5 C          12.9213   36.5953    9.5480 C.ar    1  UNL1       -0.0028
      6 C          12.0532   37.6859    9.6648 C.ar    1  UNL1        0.0042
      7 C          11.6338   40.1165   10.0300 C.2     1  UNL1        0.2516
      8 O          12.0658   41.2971    9.9379 O.2     1  UNL1       -0.2697
      9 N          10.2427   39.8709   10.2760 N.am    1  UNL1       -0.2519
     10 H           9.9514   38.9311   10.3096 H       1  UNL1        0.1580
     11 C           7.6000   42.1469   10.1098 C.ar    1  UNL1        0.1547
     12 C           8.0298   42.3717   11.3999 C.ar    1  UNL1        0.1253
     13 C           9.2401   40.8734   10.4769 C.ar    1  UNL1        0.2008
     14 N           9.0777   41.5553   11.6299 N.ar    1  UNL1       -0.2118
     15 N           8.3569   41.2050    9.5178 N.ar    1  UNL1       -0.3201
     16 H           8.2825   40.8457    8.6042 H       1  UNL1        0.1688
     17 C           6.4819   42.8287    9.4488 C.2     1  UNL1        0.3587
     18 O           5.2942   42.4789    9.6970 O.2     1  UNL1       -0.2432
     19 O           6.7445   43.8590    8.5409 O.3     1  UNL1       -0.4444
     20 C           6.9826   42.9014    6.3370 C.3     1  UNL1        0.0513
     21 C           6.2130   43.8684    7.2207 C.3     1  UNL1        0.2089
     22 C          15.2294   35.6191    9.5733 C.3     1  UNL1        0.0992
     23 C          15.5321   35.8753    7.2624 C.3     1  UNL1        0.0899
     24 C          16.0435   34.8417    6.2537 C.3     1  UNL1        0.0899
     25 C          18.1543   34.7103    7.4601 C.3     1  UNL1        0.0899
     26 C          17.1769   34.7104    8.6462 C.3     1  UNL1        0.0899
     27 N          16.2459   35.8395    8.5537 N.3     1  UNL1       -0.2665
     28 N          17.5028   34.9171    6.1549 N.3     1  UNL1       -0.2665
     29 C          17.9318   33.8196    5.2978 C.3     1  UNL1        0.0992
     30 C          18.1684   32.5800    6.1088 C.ar    1  UNL1       -0.0061
     31 C          19.3807   32.4474    6.8007 C.ar    1  UNL1       -0.0029
     32 C          19.6397   31.3103    7.5735 C.ar    1  UNL1       -0.0003
     33 C          18.6892   30.2903    7.6612 C.ar    1  UNL1       -0.0000
     34 C          17.4764   30.4020    6.9748 C.ar    1  UNL1       -0.0003
     35 C          16.5320   29.3756    7.0663 C.ar    1  UNL1       -0.0000
     36 C          15.3134   29.4816    6.3880 C.ar    1  UNL1       -0.0000
     37 C          15.0351   30.6142    5.6150 C.ar    1  UNL1       -0.0000
     38 C          15.9757   31.6446    5.5158 C.ar    1  UNL1       -0.0003
     39 C          17.2047   31.5519    6.1900 C.ar    1  UNL1       -0.0027
@<TRIPOS>BOND
     1    20    21    1
     2    21    19    1
     3    17    19    1
     4    17    11    1
     5    12    14   ar
     6    13     9    1
     7    13    15   ar
     8     7     1    1
     9     2     3   ar
    10     4     5   ar
    11    22     4    1
    12    22    27    1
    13    23    27    1
    14    23    24    1
    15    24    28    1
    16    29    28    1
    17    29    30    1
    18    31    32   ar
    19    33    34   ar
    20    35    36   ar
    21    37    38   ar
    22    39    30   ar
    23    39    34   ar
    24    25    28    1
    25    25    26    1
    26    26    27    1
    27     6     1   ar
    28     9     7   am
    29    15    11   ar
    30    17    18    2
    31    11    12   ar
    32    13    14   ar
    33     7     8    2
    34     1     2   ar
    35     3     4   ar
    36    30    31   ar
    37    32    33   ar
    38    34    35   ar
    39    36    37   ar
    40    38    39   ar
    41     5     6   ar
    42     9    10    1
    43    15    16    1
