@<TRIPOS>MOLECULE
MolPort-049-666-434 MolPort-051-561-886 CHEMBL5184668 CHEMBL5222013 CSSS06623406600 CSSS06623407334 MCULE-1265556255 MCULE-7926030787 PubChem-145426155 PubChem-160110221 PubChem-161609045 PubChem-163196447 Z5889958807
 37 41 0 0 0
SMALL
GASTEIGER

@<TRIPOS>ATOM
      1 C          12.3101   39.7299    9.1042 C.ar    1  UNL1        0.0272
      2 C          11.7577   40.5360   10.1291 C.ar    1  UNL1        0.1401
      3 C          11.4521   41.8783    9.8818 C.ar    1  UNL1        0.0293
      4 C          11.6889   42.4388    8.6264 C.ar    1  UNL1       -0.0016
      5 C          12.2388   41.6592    7.6084 C.ar    1  UNL1       -0.0160
      6 C          12.5410   40.3164    7.8477 C.ar    1  UNL1       -0.0016
      7 F          11.5004   40.0423   11.3655 F       1  UNL1       -0.2042
      8 C          14.7780   34.3963    8.9250 C.ar    1  UNL1        0.2029
      9 C          13.2375   35.5984    9.6994 C.ar    1  UNL1        0.0997
     10 C          12.1327   36.1240   10.3591 C.ar    1  UNL1        0.0207
     11 C          11.8442   37.4847   10.1507 C.ar    1  UNL1        0.0017
     12 C          12.6490   38.2913    9.3006 C.ar    1  UNL1        0.0037
     13 C          13.7605   37.7028    8.6544 C.ar    1  UNL1        0.0186
     14 C          14.0177   36.3544    8.8821 C.ar    1  UNL1        0.0765
     15 N          13.6971   34.3405    9.7484 N.ar    1  UNL1       -0.2136
     16 N          15.0116   35.6142    8.3718 N.ar    1  UNL1       -0.3252
     17 H          15.7284   35.8846    7.7534 H       1  UNL1        0.1686
     18 C          15.1565   31.9370    8.4051 C.2     1  UNL1        0.4075
     19 O          13.9231   31.6715    8.4106 O.2     1  UNL1       -0.2260
     20 N          15.6177   33.2696    8.6505 N.am    1  UNL1       -0.2212
     21 H          16.5898   33.4237    8.6288 H       1  UNL1        0.1610
     22 O          16.0945   30.9332    8.1515 O.3     1  UNL1       -0.4344
     23 C          18.4357   31.3997    7.7818 C.3     1  UNL1        0.0513
     24 C          17.3812   30.9126    8.7589 C.3     1  UNL1        0.2102
     25 C          12.4678   42.2467    6.2570 C.3     1  UNL1        0.0738
     26 C          13.6993   43.0997    6.2558 C.ar    1  UNL1        0.0829
     27 C          15.9335   44.7246    6.1130 C.ar    1  UNL1        0.2731
     28 C          15.9657   43.6048    6.9536 C.ar    1  UNL1        0.0585
     29 C          17.1023   43.2960    7.7155 C.ar    1  UNL1        0.0048
     30 C          17.1095   42.1717    8.5449 C.ar    1  UNL1        0.0002
     31 C          15.9829   41.3490    8.6199 C.ar    1  UNL1        0.0000
     32 C          14.8456   41.6482    7.8655 C.ar    1  UNL1        0.0014
     33 C          14.8265   42.7740    7.0276 C.ar    1  UNL1        0.0202
     34 O          16.9275   45.4938    6.0182 O.2     1  UNL1       -0.2658
     35 N          13.7377   44.1982    5.4561 N.ar    1  UNL1       -0.1743
     36 N          14.8141   44.9834    5.3890 N.ar    1  UNL1       -0.2424
     37 H          14.7964   45.7714    4.7991 H       1  UNL1        0.1921
@<TRIPOS>BOND
     1    23    24    1
     2    24    22    1
     3    18    22    1
     4    18    20   am
     5     9    15   ar
     6    10    11   ar
     7    12    13   ar
     8    12     1    1
     9    14    16   ar
    10    14     9   ar
    11     2     7    1
    12     2     3   ar
    13     4     5   ar
    14    25     5    1
    15    25    26    1
    16    27    28   ar
    17    29    30   ar
    18    31    32   ar
    19    33    26   ar
    20    33    28   ar
    21     6     1   ar
    22    20     8    1
    23    16     8   ar
    24    36    35   ar
    25    36    27   ar
    26    18    19    2
    27     8    15   ar
    28     9    10   ar
    29    11    12   ar
    30    13    14   ar
    31     1     2   ar
    32     3     4   ar
    33     5     6   ar
    34    26    35   ar
    35    27    34    2
    36    28    29   ar
    37    30    31   ar
    38    32    33   ar
    39    20    21    1
    40    16    17    1
    41    36    37    1
@<TRIPOS>MOLECULE
MolPort-049-666-434 MolPort-051-561-886 CHEMBL5184668 CHEMBL5222013 CSSS06623406600 CSSS06623407334 MCULE-1265556255 MCULE-7926030787 PubChem-145426155 PubChem-160110221 PubChem-161609045 PubChem-163196447 Z5889958807
 37 41 0 0 0
SMALL
GASTEIGER

@<TRIPOS>ATOM
      1 C          11.7403   40.6752   10.1326 C.ar    1  UNL1        0.0272
      2 C          12.7978   40.1302   10.9009 C.ar    1  UNL1        0.1401
      3 C          14.0315   39.8516   10.3035 C.ar    1  UNL1        0.0293
      4 C          14.2344   40.1047    8.9466 C.ar    1  UNL1       -0.0016
      5 C          13.2003   40.6353    8.1751 C.ar    1  UNL1       -0.0160
      6 C          11.9676   40.9208    8.7673 C.ar    1  UNL1       -0.0016
      7 F          12.6588   39.8707   12.2245 F       1  UNL1       -0.2042
      8 C           6.0998   42.1194   10.9505 C.ar    1  UNL1        0.2029
      9 C           7.9341   41.6104   11.8418 C.ar    1  UNL1        0.0997
     10 C           8.9828   41.3079   12.7025 C.ar    1  UNL1        0.0207
     11 C          10.2267   41.0029   12.1212 C.ar    1  UNL1        0.0017
     12 C          10.4058   41.0030   10.7109 C.ar    1  UNL1        0.0037
     13 C           9.3035   41.3192    9.8837 C.ar    1  UNL1        0.0186
     14 C           8.0874   41.6163   10.4910 C.ar    1  UNL1        0.0765
     15 N           6.6739   41.9282   12.1684 N.ar    1  UNL1       -0.2136
     16 N           6.9319   41.9380    9.8928 N.ar    1  UNL1       -0.3252
     17 H           6.7363   42.0214    8.9315 H       1  UNL1        0.1686
     18 C           3.6083   41.7658   11.3088 C.2     1  UNL1        0.4075
     19 O           3.7820   40.7260   12.0020 O.2     1  UNL1       -0.2260
     20 N           4.7262   42.4832   10.7758 N.am    1  UNL1       -0.2212
     21 H           4.5354   43.2913   10.2469 H       1  UNL1        0.1610
     22 O           2.3184   42.2391   11.0555 O.3     1  UNL1       -0.4344
     23 C           1.2045   42.7992   13.1245 C.3     1  UNL1        0.0513
     24 C           1.2069   41.9223   11.8855 C.3     1  UNL1        0.2102
     25 C          13.4216   40.9332    6.7307 C.3     1  UNL1        0.0738
     26 C          14.0325   42.2904    6.5610 C.ar    1  UNL1        0.0829
     27 C          15.0829   44.8105    6.1150 C.ar    1  UNL1        0.2731
     28 C          15.7929   43.9170    6.9270 C.ar    1  UNL1        0.0585
     29 C          17.0170   44.2755    7.5106 C.ar    1  UNL1        0.0048
     30 C          17.7067   43.3649    8.3151 C.ar    1  UNL1        0.0002
     31 C          17.1792   42.0916    8.5430 C.ar    1  UNL1        0.0000
     32 C          15.9603   41.7250    7.9667 C.ar    1  UNL1        0.0014
     33 C          15.2587   42.6302    7.1556 C.ar    1  UNL1        0.0202
     34 O          15.5224   45.9694    5.8862 O.2     1  UNL1       -0.2658
     35 N          13.3989   43.2038    5.7788 N.ar    1  UNL1       -0.1743
     36 N          13.9038   44.4201    5.5657 N.ar    1  UNL1       -0.2424
     37 H          13.4087   45.0513    4.9951 H       1  UNL1        0.1921
@<TRIPOS>BOND
     1    23    24    1
     2    24    22    1
     3    18    22    1
     4    18    20   am
     5     9    15   ar
     6    10    11   ar
     7    12    13   ar
     8    12     1    1
     9    14    16   ar
    10    14     9   ar
    11     2     7    1
    12     2     3   ar
    13     4     5   ar
    14    25     5    1
    15    25    26    1
    16    27    28   ar
    17    29    30   ar
    18    31    32   ar
    19    33    26   ar
    20    33    28   ar
    21     6     1   ar
    22    20     8    1
    23    16     8   ar
    24    36    35   ar
    25    36    27   ar
    26    18    19    2
    27     8    15   ar
    28     9    10   ar
    29    11    12   ar
    30    13    14   ar
    31     1     2   ar
    32     3     4   ar
    33     5     6   ar
    34    26    35   ar
    35    27    34    2
    36    28    29   ar
    37    30    31   ar
    38    32    33   ar
    39    20    21    1
    40    16    17    1
    41    36    37    1
@<TRIPOS>MOLECULE
MolPort-049-666-434 MolPort-051-561-886 CHEMBL5184668 CHEMBL5222013 CSSS06623406600 CSSS06623407334 MCULE-1265556255 MCULE-7926030787 PubChem-145426155 PubChem-160110221 PubChem-161609045 PubChem-163196447 Z5889958807
 37 41 0 0 0
SMALL
GASTEIGER

@<TRIPOS>ATOM
      1 C          11.7452   40.5702   10.3681 C.ar    1  UNL1        0.0272
      2 C          12.7156   40.1032   11.2878 C.ar    1  UNL1        0.1401
      3 C          13.9998   39.7676   10.8468 C.ar    1  UNL1        0.0293
      4 C          14.3392   39.8864    9.4988 C.ar    1  UNL1       -0.0016
      5 C          13.3921   40.3387    8.5797 C.ar    1  UNL1       -0.0160
      6 C          12.1095   40.6808    9.0150 C.ar    1  UNL1       -0.0016
      7 F          12.4431   39.9748   12.6098 F       1  UNL1       -0.2042
      8 C           6.1180   42.2709   10.4785 C.ar    1  UNL1        0.2029
      9 C           7.7952   41.6613   11.5891 C.ar    1  UNL1        0.0997
     10 C           8.7078   41.2960   12.5719 C.ar    1  UNL1        0.0207
     11 C          10.0016   40.9404   12.1503 C.ar    1  UNL1        0.0017
     12 C          10.3629   40.9529   10.7755 C.ar    1  UNL1        0.0037
     13 C           9.3936   41.3340    9.8193 C.ar    1  UNL1        0.0186
     14 C           8.1234   41.6800   10.2699 C.ar    1  UNL1        0.0765
     15 N           6.5190   42.0343   11.7563 N.ar    1  UNL1       -0.2136
     16 N           7.0717   42.0656    9.5339 N.ar    1  UNL1       -0.3252
     17 H           7.0072   42.1727    8.5574 H       1  UNL1        0.1686
     18 C           4.4376   43.3771    8.9247 C.2     1  UNL1        0.4075
     19 O           5.3081   43.6338    8.0482 O.2     1  UNL1       -0.2260
     20 N           4.7969   42.7028   10.1350 N.am    1  UNL1       -0.2212
     21 H           4.0782   42.5215   10.7830 H       1  UNL1        0.1610
     22 O           3.1039   43.7415    8.7244 O.3     1  UNL1       -0.4344
     23 C           3.9077   45.4774    7.2492 C.3     1  UNL1        0.0513
     24 C           2.7265   44.9208    8.0232 C.3     1  UNL1        0.2102
     25 C          13.7589   40.4936    7.1425 C.3     1  UNL1        0.0738
     26 C          14.1674   41.9054    6.8529 C.ar    1  UNL1        0.0829
     27 C          14.8394   44.5052    6.1878 C.ar    1  UNL1        0.2731
     28 C          15.6887   43.7844    7.0368 C.ar    1  UNL1        0.0585
     29 C          16.8641   44.3535    7.5488 C.ar    1  UNL1        0.0048
     30 C          17.6955   43.6123    8.3923 C.ar    1  UNL1        0.0002
     31 C          17.3592   42.2994    8.7308 C.ar    1  UNL1        0.0000
     32 C          16.1903   41.7235    8.2265 C.ar    1  UNL1        0.0014
     33 C          15.3477   42.4573    7.3772 C.ar    1  UNL1        0.0202
     34 O          15.1048   45.6929    5.8598 O.2     1  UNL1       -0.2658
     35 N          13.3916   42.6588    6.0294 N.ar    1  UNL1       -0.1743
     36 N          13.7140   43.9134    5.7106 N.ar    1  UNL1       -0.2424
     37 H          13.1204   44.4239    5.1137 H       1  UNL1        0.1921
@<TRIPOS>BOND
     1    23    24    1
     2    24    22    1
     3    18    22    1
     4    18    20   am
     5     9    15   ar
     6    10    11   ar
     7    12    13   ar
     8    12     1    1
     9    14    16   ar
    10    14     9   ar
    11     2     7    1
    12     2     3   ar
    13     4     5   ar
    14    25     5    1
    15    25    26    1
    16    27    28   ar
    17    29    30   ar
    18    31    32   ar
    19    33    26   ar
    20    33    28   ar
    21     6     1   ar
    22    20     8    1
    23    16     8   ar
    24    36    35   ar
    25    36    27   ar
    26    18    19    2
    27     8    15   ar
    28     9    10   ar
    29    11    12   ar
    30    13    14   ar
    31     1     2   ar
    32     3     4   ar
    33     5     6   ar
    34    26    35   ar
    35    27    34    2
    36    28    29   ar
    37    30    31   ar
    38    32    33   ar
    39    20    21    1
    40    16    17    1
    41    36    37    1
@<TRIPOS>MOLECULE
MolPort-049-666-434 MolPort-051-561-886 CHEMBL5184668 CHEMBL5222013 CSSS06623406600 CSSS06623407334 MCULE-1265556255 MCULE-7926030787 PubChem-145426155 PubChem-160110221 PubChem-161609045 PubChem-163196447 Z5889958807
 37 41 0 0 0
SMALL
GASTEIGER

@<TRIPOS>ATOM
      1 C          10.1989   40.9729    9.7475 C.ar    1  UNL1        0.0272
      2 C          10.7008   40.8218   11.0631 C.ar    1  UNL1        0.1401
      3 C          12.0443   40.4925   11.2709 C.ar    1  UNL1        0.0293
      4 C          12.9036   40.3072   10.1876 C.ar    1  UNL1       -0.0016
      5 C          12.4224   40.4460    8.8855 C.ar    1  UNL1       -0.0160
      6 C          11.0829   40.7804    8.6717 C.ar    1  UNL1       -0.0016
      7 F           9.9129   40.9968   12.1526 F       1  UNL1       -0.2042
      8 C           4.5028   42.3807   10.1248 C.ar    1  UNL1        0.2029
      9 C           6.1423   41.9980    8.8664 C.ar    1  UNL1        0.0997
     10 C           7.0149   41.8016    7.8023 C.ar    1  UNL1        0.0207
     11 C           8.3448   41.4653    8.1126 C.ar    1  UNL1        0.0017
     12 C           8.7808   41.3318    9.4591 C.ar    1  UNL1        0.0037
     13 C           7.8490   41.5423   10.5015 C.ar    1  UNL1        0.0186
     14 C           6.5414   41.8735   10.1600 C.ar    1  UNL1        0.0765
     15 N           4.8432   42.3218    8.8094 N.ar    1  UNL1       -0.2136
     16 N           5.5156   42.1124   10.9888 N.ar    1  UNL1       -0.3252
     17 H           5.5002   42.0973   11.9730 H       1  UNL1        0.1686
     18 C           2.5421   42.1139   11.7204 C.2     1  UNL1        0.4075
     19 O           3.1350   41.2464   12.4188 O.2     1  UNL1       -0.2260
     20 N           3.1847   42.6998   10.5835 N.am    1  UNL1       -0.2212
     21 H           2.6800   43.3762   10.0766 H       1  UNL1        0.1610
     22 O           1.2477   42.5231   12.0506 O.3     1  UNL1       -0.4344
     23 C          -0.5559   42.2255   13.6298 C.3     1  UNL1        0.0513
     24 C           0.8393   42.7736   13.3905 C.3     1  UNL1        0.2102
     25 C          13.3439   40.2762    7.7253 C.3     1  UNL1        0.0738
     26 C          13.7421   41.6093    7.1701 C.ar    1  UNL1        0.0829
     27 C          14.3863   44.0429    6.0233 C.ar    1  UNL1        0.2731
     28 C          15.2864   43.4624    6.9257 C.ar    1  UNL1        0.0585
     29 C          16.4984   44.0884    7.2528 C.ar    1  UNL1        0.0048
     30 C          17.3802   43.4871    8.1545 C.ar    1  UNL1        0.0002
     31 C          17.0581   42.2584    8.7359 C.ar    1  UNL1        0.0000
     32 C          15.8531   41.6271    8.4172 C.ar    1  UNL1        0.0014
     33 C          14.9597   42.2202    7.5118 C.ar    1  UNL1        0.0202
     34 O          14.6373   45.1514    5.4784 O.2     1  UNL1       -0.2658
     35 N          12.9172   42.2249    6.2822 N.ar    1  UNL1       -0.1743
     36 N          13.2264   43.3998    5.7311 N.ar    1  UNL1       -0.2424
     37 H          12.5970   43.8115    5.0957 H       1  UNL1        0.1921
@<TRIPOS>BOND
     1    23    24    1
     2    24    22    1
     3    18    22    1
     4    18    20   am
     5     9    15   ar
     6    10    11   ar
     7    12    13   ar
     8    12     1    1
     9    14    16   ar
    10    14     9   ar
    11     2     7    1
    12     2     3   ar
    13     4     5   ar
    14    25     5    1
    15    25    26    1
    16    27    28   ar
    17    29    30   ar
    18    31    32   ar
    19    33    26   ar
    20    33    28   ar
    21     6     1   ar
    22    20     8    1
    23    16     8   ar
    24    36    35   ar
    25    36    27   ar
    26    18    19    2
    27     8    15   ar
    28     9    10   ar
    29    11    12   ar
    30    13    14   ar
    31     1     2   ar
    32     3     4   ar
    33     5     6   ar
    34    26    35   ar
    35    27    34    2
    36    28    29   ar
    37    30    31   ar
    38    32    33   ar
    39    20    21    1
    40    16    17    1
    41    36    37    1
@<TRIPOS>MOLECULE
MolPort-049-666-434 MolPort-051-561-886 CHEMBL5184668 CHEMBL5222013 CSSS06623406600 CSSS06623407334 MCULE-1265556255 MCULE-7926030787 PubChem-145426155 PubChem-160110221 PubChem-161609045 PubChem-163196447 Z5889958807
 37 41 0 0 0
SMALL
GASTEIGER

@<TRIPOS>ATOM
      1 C           9.4453   41.0194    6.8976 C.ar    1  UNL1        0.0272
      2 C           9.3785   40.3197    5.6682 C.ar    1  UNL1        0.1401
      3 C          10.5454   39.8303    5.0721 C.ar    1  UNL1        0.0293
      4 C          11.7864   40.0267    5.6786 C.ar    1  UNL1       -0.0016
      5 C          11.8691   40.7199    6.8864 C.ar    1  UNL1       -0.0160
      6 C          10.7065   41.2062    7.4895 C.ar    1  UNL1       -0.0016
      7 F           8.1994   40.0939    5.0380 F       1  UNL1       -0.2042
      8 C           5.0901   42.1361   10.6864 C.ar    1  UNL1        0.2029
      9 C           5.9747   42.5949    8.8357 C.ar    1  UNL1        0.0997
     10 C           6.3189   43.1063    7.5898 C.ar    1  UNL1        0.0207
     11 C           7.4636   42.5754    6.9687 C.ar    1  UNL1        0.0017
     12 C           8.2386   41.5576    7.5886 C.ar    1  UNL1        0.0037
     13 C           7.8407   41.0744    8.8564 C.ar    1  UNL1        0.0186
     14 C           6.7034   41.6210    9.4429 C.ar    1  UNL1        0.0765
     15 N           4.9355   42.9466    9.6053 N.ar    1  UNL1       -0.2136
     16 N           6.1632   41.3060   10.6284 N.ar    1  UNL1       -0.3252
     17 H           6.4670   40.6421   11.2888 H       1  UNL1        0.1686
     18 C           2.7725   42.1544   11.7305 C.2     1  UNL1        0.4075
     19 O           2.1894   42.1516   10.6116 O.2     1  UNL1       -0.2260
     20 N           4.2016   42.1429   11.8090 N.am    1  UNL1       -0.2212
     21 H           4.6059   42.1395   12.7067 H       1  UNL1        0.1610
     22 O           2.0306   42.1613   12.9142 O.3     1  UNL1       -0.4344
     23 C           0.0367   42.1298   14.2777 C.3     1  UNL1        0.0513
     24 C           0.6639   42.5546   12.9622 C.3     1  UNL1        0.2102
     25 C          13.1903   40.9079    7.5521 C.3     1  UNL1        0.0738
     26 C          13.8712   42.1368    7.0322 C.ar    1  UNL1        0.0829
     27 C          15.0393   44.3971    5.9463 C.ar    1  UNL1        0.2731
     28 C          15.7631   43.6455    6.8805 C.ar    1  UNL1        0.0585
     29 C          17.0590   44.0160    7.2693 C.ar    1  UNL1        0.0048
     30 C          17.7607   43.2477    8.2017 C.ar    1  UNL1        0.0002
     31 C          17.1740   42.1059    8.7525 C.ar    1  UNL1        0.0000
     32 C          15.8834   41.7287    8.3724 C.ar    1  UNL1        0.0014
     33 C          15.1689   42.4913    7.4356 C.ar    1  UNL1        0.0202
     34 O          15.5310   45.4352    5.4273 O.2     1  UNL1       -0.2658
     35 N          13.2274   42.9078    6.1163 N.ar    1  UNL1       -0.1743
     36 N          13.7894   43.9993    5.5945 N.ar    1  UNL1       -0.2424
     37 H          13.2847   44.5305    4.9369 H       1  UNL1        0.1921
@<TRIPOS>BOND
     1    23    24    1
     2    24    22    1
     3    18    22    1
     4    18    20   am
     5     9    15   ar
     6    10    11   ar
     7    12    13   ar
     8    12     1    1
     9    14    16   ar
    10    14     9   ar
    11     2     7    1
    12     2     3   ar
    13     4     5   ar
    14    25     5    1
    15    25    26    1
    16    27    28   ar
    17    29    30   ar
    18    31    32   ar
    19    33    26   ar
    20    33    28   ar
    21     6     1   ar
    22    20     8    1
    23    16     8   ar
    24    36    35   ar
    25    36    27   ar
    26    18    19    2
    27     8    15   ar
    28     9    10   ar
    29    11    12   ar
    30    13    14   ar
    31     1     2   ar
    32     3     4   ar
    33     5     6   ar
    34    26    35   ar
    35    27    34    2
    36    28    29   ar
    37    30    31   ar
    38    32    33   ar
    39    20    21    1
    40    16    17    1
    41    36    37    1
@<TRIPOS>MOLECULE
MolPort-049-666-434 MolPort-051-561-886 CHEMBL5184668 CHEMBL5222013 CSSS06623406600 CSSS06623407334 MCULE-1265556255 MCULE-7926030787 PubChem-145426155 PubChem-160110221 PubChem-161609045 PubChem-163196447 Z5889958807
 37 41 0 0 0
SMALL
GASTEIGER

@<TRIPOS>ATOM
      1 C          13.2818   40.9727   10.5104 C.ar    1  UNL1        0.0272
      2 C          13.7004   39.9996   11.4504 C.ar    1  UNL1        0.1401
      3 C          14.9464   39.3789   11.3140 C.ar    1  UNL1        0.0293
      4 C          15.7892   39.7083   10.2521 C.ar    1  UNL1       -0.0016
      5 C          15.3881   40.6601    9.3143 C.ar    1  UNL1       -0.0160
      6 C          14.1471   41.2876    9.4483 C.ar    1  UNL1       -0.0016
      7 F          12.9254   39.6458   12.5052 F       1  UNL1       -0.2042
      8 C           7.5833   42.4153   10.3879 C.ar    1  UNL1        0.2029
      9 C           9.5489   43.0385   10.7954 C.ar    1  UNL1        0.0997
     10 C          10.7068   43.7262   11.1395 C.ar    1  UNL1        0.0207
     11 C          11.9245   43.0297   11.0393 C.ar    1  UNL1        0.0017
     12 C          11.9711   41.6770   10.6045 C.ar    1  UNL1        0.0037
     13 C          10.7615   41.0275   10.2665 C.ar    1  UNL1        0.0186
     14 C           9.5746   41.7453   10.3767 C.ar    1  UNL1        0.0765
     15 N           8.2897   43.4966   10.8137 N.ar    1  UNL1       -0.2136
     16 N           8.3329   41.3180   10.1086 N.ar    1  UNL1       -0.3252
     17 H           8.0391   40.4340    9.7902 H       1  UNL1        0.1686
     18 C           5.2912   41.3412   10.6206 C.2     1  UNL1        0.4075
     19 O           5.7568   40.2897   11.1398 O.2     1  UNL1       -0.2260
     20 N           6.1593   42.4136   10.2399 N.am    1  UNL1       -0.2212
     21 H           5.7440   43.2140    9.8447 H       1  UNL1        0.1610
     22 O           3.9163   41.4790   10.4150 O.3     1  UNL1       -0.4344
     23 C           1.6875   40.8009    9.7761 C.3     1  UNL1        0.0513
     24 C           3.1781   40.6197    9.5540 C.3     1  UNL1        0.2102
     25 C          16.2974   41.0353    8.1934 C.3     1  UNL1        0.0738
     26 C          15.6378   42.0341    7.2927 C.ar    1  UNL1        0.0829
     27 C          14.5263   43.9816    5.6726 C.ar    1  UNL1        0.2731
     28 C          13.7145   42.9319    6.1206 C.ar    1  UNL1        0.0585
     29 C          12.3596   42.8540    5.7659 C.ar    1  UNL1        0.0048
     30 C          11.5707   41.7974    6.2280 C.ar    1  UNL1        0.0002
     31 C          12.1286   40.8119    7.0459 C.ar    1  UNL1        0.0000
     32 C          13.4773   40.8801    7.4044 C.ar    1  UNL1        0.0014
     33 C          14.2798   41.9371    6.9479 C.ar    1  UNL1        0.0202
     34 O          14.0630   44.8896    4.9313 O.2     1  UNL1       -0.2658
     35 N          16.3669   43.0830    6.8280 N.ar    1  UNL1       -0.1743
     36 N          15.8319   44.0208    6.0446 N.ar    1  UNL1       -0.2424
     37 H          16.3984   44.7610    5.7276 H       1  UNL1        0.1921
@<TRIPOS>BOND
     1    23    24    1
     2    24    22    1
     3    18    22    1
     4    18    20   am
     5     9    15   ar
     6    10    11   ar
     7    12    13   ar
     8    12     1    1
     9    14    16   ar
    10    14     9   ar
    11     2     7    1
    12     2     3   ar
    13     4     5   ar
    14    25     5    1
    15    25    26    1
    16    27    28   ar
    17    29    30   ar
    18    31    32   ar
    19    33    26   ar
    20    33    28   ar
    21     6     1   ar
    22    20     8    1
    23    16     8   ar
    24    36    35   ar
    25    36    27   ar
    26    18    19    2
    27     8    15   ar
    28     9    10   ar
    29    11    12   ar
    30    13    14   ar
    31     1     2   ar
    32     3     4   ar
    33     5     6   ar
    34    26    35   ar
    35    27    34    2
    36    28    29   ar
    37    30    31   ar
    38    32    33   ar
    39    20    21    1
    40    16    17    1
    41    36    37    1
@<TRIPOS>MOLECULE
MolPort-049-666-434 MolPort-051-561-886 CHEMBL5184668 CHEMBL5222013 CSSS06623406600 CSSS06623407334 MCULE-1265556255 MCULE-7926030787 PubChem-145426155 PubChem-160110221 PubChem-161609045 PubChem-163196447 Z5889958807
 37 41 0 0 0
SMALL
GASTEIGER

@<TRIPOS>ATOM
      1 C          11.5476   38.8763    8.9985 C.ar    1  UNL1        0.0272
      2 C          11.7254   37.6527    9.6891 C.ar    1  UNL1        0.1401
      3 C          12.9811   37.3084   10.2001 C.ar    1  UNL1        0.0293
      4 C          14.0715   38.1628   10.0347 C.ar    1  UNL1       -0.0016
      5 C          13.9137   39.3686    9.3509 C.ar    1  UNL1       -0.0160
      6 C          12.6607   39.7206    8.8431 C.ar    1  UNL1       -0.0016
      7 F          10.6998   36.7877    9.8851 F       1  UNL1       -0.2042
      8 C           6.4432   41.5857    7.9152 C.ar    1  UNL1        0.2029
      9 C           7.7836   40.0665    7.3556 C.ar    1  UNL1        0.0997
     10 C           8.4528   39.0040    6.7593 C.ar    1  UNL1        0.0207
     11 C           9.6893   38.6277    7.3140 C.ar    1  UNL1        0.0017
     12 C          10.2342   39.3055    8.4385 C.ar    1  UNL1        0.0037
     13 C           9.5089   40.3790    9.0048 C.ar    1  UNL1        0.0186
     14 C           8.2892   40.7255    8.4319 C.ar    1  UNL1        0.0765
     15 N           6.6034   40.5924    7.0002 N.ar    1  UNL1       -0.2136
     16 N           7.4551   41.7029    8.8132 N.ar    1  UNL1       -0.3252
     17 H           7.5515   42.3427    9.5552 H       1  UNL1        0.1686
     18 C           4.5819   42.8250    9.1239 C.2     1  UNL1        0.4075
     19 O           4.9327   42.3948   10.2569 O.2     1  UNL1       -0.2260
     20 N           5.3037   42.4519    7.9456 N.am    1  UNL1       -0.2212
     21 H           4.9918   42.8204    7.0876 H       1  UNL1        0.1610
     22 O           3.4843   43.6808    9.0015 O.3     1  UNL1       -0.4344
     23 C           4.8547   45.1374    7.6465 C.3     1  UNL1        0.0513
     24 C           3.4477   44.7551    8.0691 C.3     1  UNL1        0.2102
     25 C          15.0700   40.2975    9.1959 C.3     1  UNL1        0.0738
     26 C          14.7446   41.3839    8.2171 C.ar    1  UNL1        0.0829
     27 C          14.0337   43.2986    6.3512 C.ar    1  UNL1        0.2731
     28 C          15.3311   43.3186    6.8787 C.ar    1  UNL1        0.0585
     29 C          16.2672   44.2836    6.4784 C.ar    1  UNL1        0.0048
     30 C          17.5559   44.2805    7.0183 C.ar    1  UNL1        0.0002
     31 C          17.9183   43.3155    7.9611 C.ar    1  UNL1        0.0000
     32 C          16.9931   42.3504    8.3668 C.ar    1  UNL1        0.0014
     33 C          15.6960   42.3420    7.8308 C.ar    1  UNL1        0.0202
     34 O          13.6656   44.1525    5.5005 O.2     1  UNL1       -0.2658
     35 N          13.5049   41.4182    7.6608 N.ar    1  UNL1       -0.1743
     36 N          13.1609   42.3430    6.7630 N.ar    1  UNL1       -0.2424
     37 H          12.2503   42.3326    6.3890 H       1  UNL1        0.1921
@<TRIPOS>BOND
     1    23    24    1
     2    24    22    1
     3    18    22    1
     4    18    20   am
     5     9    15   ar
     6    10    11   ar
     7    12    13   ar
     8    12     1    1
     9    14    16   ar
    10    14     9   ar
    11     2     7    1
    12     2     3   ar
    13     4     5   ar
    14    25     5    1
    15    25    26    1
    16    27    28   ar
    17    29    30   ar
    18    31    32   ar
    19    33    26   ar
    20    33    28   ar
    21     6     1   ar
    22    20     8    1
    23    16     8   ar
    24    36    35   ar
    25    36    27   ar
    26    18    19    2
    27     8    15   ar
    28     9    10   ar
    29    11    12   ar
    30    13    14   ar
    31     1     2   ar
    32     3     4   ar
    33     5     6   ar
    34    26    35   ar
    35    27    34    2
    36    28    29   ar
    37    30    31   ar
    38    32    33   ar
    39    20    21    1
    40    16    17    1
    41    36    37    1
@<TRIPOS>MOLECULE
MolPort-049-666-434 MolPort-051-561-886 CHEMBL5184668 CHEMBL5222013 CSSS06623406600 CSSS06623407334 MCULE-1265556255 MCULE-7926030787 PubChem-145426155 PubChem-160110221 PubChem-161609045 PubChem-163196447 Z5889958807
 37 41 0 0 0
SMALL
GASTEIGER

@<TRIPOS>ATOM
      1 C          11.5616   41.2102   10.3101 C.ar    1  UNL1        0.0272
      2 C          11.6532   40.5372   11.5528 C.ar    1  UNL1        0.1401
      3 C          12.6997   39.6408   11.7928 C.ar    1  UNL1        0.0293
      4 C          13.6627   39.3978   10.8130 C.ar    1  UNL1       -0.0016
      5 C          13.5822   40.0481    9.5814 C.ar    1  UNL1       -0.0160
      6 C          12.5424   40.9487    9.3377 C.ar    1  UNL1       -0.0016
      7 F          10.7496   40.7402   12.5432 F       1  UNL1       -0.2042
      8 C           6.5189   43.7844    8.7245 C.ar    1  UNL1        0.2029
      9 C           8.4855   44.0436    9.4196 C.ar    1  UNL1        0.0997
     10 C           9.7091   44.5245    9.8710 C.ar    1  UNL1        0.0207
     11 C          10.7080   43.5770   10.1586 C.ar    1  UNL1        0.0017
     12 C          10.4770   42.1838    9.9955 C.ar    1  UNL1        0.0037
     13 C           9.2130   41.7518    9.5322 C.ar    1  UNL1        0.0186
     14 C           8.2474   42.7151    9.2567 C.ar    1  UNL1        0.0765
     15 N           7.3995   44.7551    9.0875 N.ar    1  UNL1       -0.2136
     16 N           6.9981   42.5170    8.8134 N.ar    1  UNL1       -0.3252
     17 H           6.5438   41.6687    8.6053 H       1  UNL1        0.1686
     18 C           3.9912   43.6356    8.9484 C.2     1  UNL1        0.4075
     19 O           4.0526   42.9741   10.0210 O.2     1  UNL1       -0.2260
     20 N           5.1852   44.0571    8.2810 N.am    1  UNL1       -0.2212
     21 H           5.0811   44.5758    7.4508 H       1  UNL1        0.1610
     22 O           2.7531   43.9746    8.3969 O.3     1  UNL1       -0.4344
     23 C           3.9168   45.6994    7.1695 C.3     1  UNL1        0.0513
     24 C           2.5737   45.1001    7.5449 C.3     1  UNL1        0.2102
     25 C          14.6248   39.8122    8.5414 C.3     1  UNL1        0.0738
     26 C          15.5595   40.9800    8.4592 C.ar    1  UNL1        0.0829
     27 C          17.3356   43.1009    8.4492 C.ar    1  UNL1        0.2731
     28 C          16.2027   43.1650    7.6282 C.ar    1  UNL1        0.0585
     29 C          15.9557   44.2775    6.8102 C.ar    1  UNL1        0.0048
     30 C          14.8168   44.3177    6.0019 C.ar    1  UNL1        0.0002
     31 C          13.9179   43.2484    6.0040 C.ar    1  UNL1        0.0000
     32 C          14.1552   42.1355    6.8147 C.ar    1  UNL1        0.0014
     33 C          15.2948   42.0838    7.6321 C.ar    1  UNL1        0.0202
     34 O          18.1726   44.0429    8.4752 O.2     1  UNL1       -0.2658
     35 N          16.6751   40.9855    9.2359 N.ar    1  UNL1       -0.1743
     36 N          17.5331   42.0069    9.2293 N.ar    1  UNL1       -0.2424
     37 H          18.3306   41.9666    9.8052 H       1  UNL1        0.1921
@<TRIPOS>BOND
     1    23    24    1
     2    24    22    1
     3    18    22    1
     4    18    20   am
     5     9    15   ar
     6    10    11   ar
     7    12    13   ar
     8    12     1    1
     9    14    16   ar
    10    14     9   ar
    11     2     7    1
    12     2     3   ar
    13     4     5   ar
    14    25     5    1
    15    25    26    1
    16    27    28   ar
    17    29    30   ar
    18    31    32   ar
    19    33    26   ar
    20    33    28   ar
    21     6     1   ar
    22    20     8    1
    23    16     8   ar
    24    36    35   ar
    25    36    27   ar
    26    18    19    2
    27     8    15   ar
    28     9    10   ar
    29    11    12   ar
    30    13    14   ar
    31     1     2   ar
    32     3     4   ar
    33     5     6   ar
    34    26    35   ar
    35    27    34    2
    36    28    29   ar
    37    30    31   ar
    38    32    33   ar
    39    20    21    1
    40    16    17    1
    41    36    37    1
@<TRIPOS>MOLECULE
MolPort-049-666-434 MolPort-051-561-886 CHEMBL5184668 CHEMBL5222013 CSSS06623406600 CSSS06623407334 MCULE-1265556255 MCULE-7926030787 PubChem-145426155 PubChem-160110221 PubChem-161609045 PubChem-163196447 Z5889958807
 37 41 0 0 0
SMALL
GASTEIGER

@<TRIPOS>ATOM
      1 C           7.0207   41.2497    9.0997 C.ar    1  UNL1        0.0272
      2 C           7.1889   40.6793    7.8144 C.ar    1  UNL1        0.1401
      3 C           8.4671   40.3491    7.3523 C.ar    1  UNL1        0.0293
      4 C           9.5893   40.5786    8.1487 C.ar    1  UNL1       -0.0016
      5 C           9.4403   41.1460    9.4145 C.ar    1  UNL1       -0.0160
      6 C           8.1657   41.4729    9.8839 C.ar    1  UNL1       -0.0016
      7 F           6.1337   40.4280    7.0009 F       1  UNL1       -0.2042
      8 C           2.2292   41.8459   12.4547 C.ar    1  UNL1        0.2029
      9 C           3.1805   42.3249   10.6427 C.ar    1  UNL1        0.0997
     10 C           3.5401   42.8026    9.3878 C.ar    1  UNL1        0.0207
     11 C           4.8071   42.4381    8.8977 C.ar    1  UNL1        0.0017
     12 C           5.6857   41.6152    9.6540 C.ar    1  UNL1        0.0037
     13 C           5.2666   41.1574   10.9244 C.ar    1  UNL1        0.0186
     14 C           4.0074   41.5362   11.3793 C.ar    1  UNL1        0.0765
     15 N           2.0345   42.5417   11.3026 N.ar    1  UNL1       -0.2136
     16 N           3.4275   41.2133   12.5437 N.ar    1  UNL1       -0.3252
     17 H           3.7804   40.6588   13.2766 H       1  UNL1        0.1686
     18 C           0.2300   42.7399   13.7452 C.2     1  UNL1        0.4075
     19 O           0.1127   43.7535   13.0032 O.2     1  UNL1       -0.2260
     20 N           1.2587   41.7742   13.5048 N.am    1  UNL1       -0.2212
     21 H           1.3024   40.9987   14.1099 H       1  UNL1        0.1610
     22 O          -0.6492   42.5394   14.8123 O.3     1  UNL1       -0.4344
     23 C          -1.9564   40.5184   14.6071 C.3     1  UNL1        0.0513
     24 C          -1.9685   42.0360   14.6367 C.3     1  UNL1        0.2102
     25 C          10.6343   41.3675   10.2802 C.3     1  UNL1        0.0738
     26 C          11.8656   41.5391    9.4444 C.ar    1  UNL1        0.0829
     27 C          14.0486   41.9000    7.7840 C.ar    1  UNL1        0.2731
     28 C          14.1600   41.0138    8.8628 C.ar    1  UNL1        0.0585
     29 C          15.3487   40.3117    9.1113 C.ar    1  UNL1        0.0048
     30 C          15.4333   39.4317   10.1933 C.ar    1  UNL1        0.0002
     31 C          14.3332   39.2472   11.0342 C.ar    1  UNL1        0.0000
     32 C          13.1448   39.9422   10.7955 C.ar    1  UNL1        0.0014
     33 C          13.0469   40.8279    9.7112 C.ar    1  UNL1        0.0202
     34 O          15.0180   42.0970    7.0030 O.2     1  UNL1       -0.2658
     35 N          11.8238   42.3790    8.3764 N.ar    1  UNL1       -0.1743
     36 N          12.8772   42.5552    7.5771 N.ar    1  UNL1       -0.2424
     37 H          12.8034   43.1767    6.8172 H       1  UNL1        0.1921
@<TRIPOS>BOND
     1    23    24    1
     2    24    22    1
     3    18    22    1
     4    18    20   am
     5     9    15   ar
     6    10    11   ar
     7    12    13   ar
     8    12     1    1
     9    14    16   ar
    10    14     9   ar
    11     2     7    1
    12     2     3   ar
    13     4     5   ar
    14    25     5    1
    15    25    26    1
    16    27    28   ar
    17    29    30   ar
    18    31    32   ar
    19    33    26   ar
    20    33    28   ar
    21     6     1   ar
    22    20     8    1
    23    16     8   ar
    24    36    35   ar
    25    36    27   ar
    26    18    19    2
    27     8    15   ar
    28     9    10   ar
    29    11    12   ar
    30    13    14   ar
    31     1     2   ar
    32     3     4   ar
    33     5     6   ar
    34    26    35   ar
    35    27    34    2
    36    28    29   ar
    37    30    31   ar
    38    32    33   ar
    39    20    21    1
    40    16    17    1
    41    36    37    1
@<TRIPOS>MOLECULE
MolPort-049-666-434 MolPort-051-561-886 CHEMBL5184668 CHEMBL5222013 CSSS06623406600 CSSS06623407334 MCULE-1265556255 MCULE-7926030787 PubChem-145426155 PubChem-160110221 PubChem-161609045 PubChem-163196447 Z5889958807
 37 41 0 0 0
SMALL
GASTEIGER

@<TRIPOS>ATOM
      1 C           9.8484   40.9731    7.6180 C.ar    1  UNL1        0.0272
      2 C           9.6069   39.9659    6.6521 C.ar    1  UNL1        0.1401
      3 C          10.4775   39.8054    5.5692 C.ar    1  UNL1        0.0293
      4 C          11.5904   40.6345    5.4263 C.ar    1  UNL1       -0.0016
      5 C          11.8380   41.6355    6.3660 C.ar    1  UNL1       -0.0160
      6 C          10.9752   41.7972    7.4528 C.ar    1  UNL1       -0.0016
      7 F           8.5452   39.1277    6.7445 F       1  UNL1       -0.2042
      8 C           5.2852   41.8940   11.2094 C.ar    1  UNL1        0.2029
      9 C           7.3583   41.5929   11.0383 C.ar    1  UNL1        0.0997
     10 C           8.7224   41.4208   11.2429 C.ar    1  UNL1        0.0207
     11 C           9.5246   41.2181   10.1056 C.ar    1  UNL1        0.0017
     12 C           8.9647   41.1896    8.7992 C.ar    1  UNL1        0.0037
     13 C           7.5704   41.3714    8.6508 C.ar    1  UNL1        0.0186
     14 C           6.8059   41.5697    9.7964 C.ar    1  UNL1        0.0765
     15 N           6.4121   41.7986   11.9647 N.ar    1  UNL1       -0.2136
     16 N           5.4812   41.7592    9.8725 N.ar    1  UNL1       -0.3252
     17 H           4.8191   41.7922    9.1446 H       1  UNL1        0.1686
     18 C           2.7716   42.2140   11.0066 C.2     1  UNL1        0.4075
     19 O           2.7846   42.0929    9.7509 O.2     1  UNL1       -0.2260
     20 N           3.9836   42.1182   11.7620 N.am    1  UNL1       -0.2212
     21 H           3.9169   42.2141   12.7396 H       1  UNL1        0.1610
     22 O           1.5696   42.4371   11.6829 O.3     1  UNL1       -0.4344
     23 C           0.0299   42.6220   13.5350 C.3     1  UNL1        0.0513
     24 C           1.4312   42.2488   13.0865 C.3     1  UNL1        0.2102
     25 C          13.0416   42.5059    6.2322 C.3     1  UNL1        0.0738
     26 C          14.1322   42.0398    7.1472 C.ar    1  UNL1        0.0829
     27 C          16.0376   41.1187    8.9287 C.ar    1  UNL1        0.2731
     28 C          16.3523   42.2085    8.1071 C.ar    1  UNL1        0.0585
     29 C          17.6054   42.8354    8.1737 C.ar    1  UNL1        0.0048
     30 C          17.8936   43.9222    7.3444 C.ar    1  UNL1        0.0002
     31 C          16.9341   44.3899    6.4433 C.ar    1  UNL1        0.0000
     32 C          15.6831   43.7720    6.3688 C.ar    1  UNL1        0.0014
     33 C          15.3811   42.6803    7.1975 C.ar    1  UNL1        0.0202
     34 O          16.8754   40.6643    9.7535 O.2     1  UNL1       -0.2658
     35 N          13.8907   40.9910    7.9776 N.ar    1  UNL1       -0.1743
     36 N          14.8103   40.5450    8.8349 N.ar    1  UNL1       -0.2424
     37 H          14.5935   39.7796    9.4149 H       1  UNL1        0.1921
@<TRIPOS>BOND
     1    23    24    1
     2    24    22    1
     3    18    22    1
     4    18    20   am
     5     9    15   ar
     6    10    11   ar
     7    12    13   ar
     8    12     1    1
     9    14    16   ar
    10    14     9   ar
    11     2     7    1
    12     2     3   ar
    13     4     5   ar
    14    25     5    1
    15    25    26    1
    16    27    28   ar
    17    29    30   ar
    18    31    32   ar
    19    33    26   ar
    20    33    28   ar
    21     6     1   ar
    22    20     8    1
    23    16     8   ar
    24    36    35   ar
    25    36    27   ar
    26    18    19    2
    27     8    15   ar
    28     9    10   ar
    29    11    12   ar
    30    13    14   ar
    31     1     2   ar
    32     3     4   ar
    33     5     6   ar
    34    26    35   ar
    35    27    34    2
    36    28    29   ar
    37    30    31   ar
    38    32    33   ar
    39    20    21    1
    40    16    17    1
    41    36    37    1
