@<TRIPOS>MOLECULE
MolPort-020-295-123 MCULE-1159495392 PubChem-110267218
 35 38 0 0 0
SMALL
GASTEIGER

@<TRIPOS>ATOM
      1 C          13.4412   39.5883   10.0334 C.3     1  UNL1        0.0564
      2 C          13.0445   38.4133    9.1325 C.3     1  UNL1        0.0087
      3 C          11.5388   38.3647    8.8618 C.3     1  UNL1        0.0178
      4 C          10.7672   39.0439    9.9903 C.3     1  UNL1        0.0725
      5 C          12.5102   40.7899    9.8298 C.3     1  UNL1        0.0784
      6 N          11.0894   40.4764   10.0826 N.3     1  UNL1       -0.2647
      7 C          16.4667   41.4032    8.8321 C.ar    1  UNL1        0.2214
      8 C          17.2180   39.6575   10.2438 C.ar    1  UNL1        0.1031
      9 C          15.9025   39.2539   10.4637 C.ar    1  UNL1        0.0355
     10 C          14.8738   39.9663    9.8374 C.ar    1  UNL1        0.0644
     11 N          17.4763   40.7187    9.4363 N.ar    1  UNL1       -0.2120
     12 N          15.1781   41.0210    9.0366 N.ar    1  UNL1       -0.2179
     13 N          16.7360   42.5198    7.9761 N.pl3   1  UNL1       -0.2678
     14 H          17.6644   42.8465    7.9517 H       1  UNL1        0.1565
     15 C          13.6210   43.3010    6.1140 C.ar    1  UNL1        0.1331
     16 C          15.1656   45.0693    5.8293 C.ar    1  UNL1        0.2012
     17 C          15.7876   43.2078    7.1519 C.ar    1  UNL1        0.1389
     18 C          14.5455   42.6211    6.9142 C.ar    1  UNL1        0.0686
     19 N          13.9515   44.5095    5.5885 N.ar    1  UNL1       -0.2091
     20 N          16.0724   44.4209    6.6052 N.ar    1  UNL1       -0.2088
     21 C          11.9709   41.3789    6.1837 C.3     1  UNL1        0.1096
     22 N          12.3339   42.7444    5.8368 N.pl3   1  UNL1       -0.3166
     23 H          11.6629   43.3105    5.3912 H       1  UNL1        0.1482
     24 C          10.7909   40.8860   11.4462 C.3     1  UNL1        0.1587
     25 C           9.3396   41.1968   11.5837 C.2     1  UNL1        0.2425
     26 N           8.5446   41.3527   10.4015 N.am    1  UNL1       -0.2828
     27 O           8.8336   41.3118   12.7317 O.2     1  UNL1       -0.2733
     28 H           8.9975   41.1982    9.5412 H       1  UNL1        0.1549
     29 C           7.1570   41.7109   10.3428 C.ar    1  UNL1        0.0505
     30 C           6.7164   42.5235    9.2926 C.ar    1  UNL1        0.0170
     31 C           5.3721   42.8956    9.2015 C.ar    1  UNL1        0.0309
     32 C           4.4593   42.4587   10.1652 C.ar    1  UNL1        0.1402
     33 C           4.8910   41.6506   11.2195 C.ar    1  UNL1        0.0309
     34 C           6.2353   41.2780   11.3088 C.ar    1  UNL1        0.0170
     35 F           3.1573   42.8207   10.0791 F       1  UNL1       -0.2042
@<TRIPOS>BOND
     1    21    22    1
     2    16    19   ar
     3    17    20   ar
     4    17    13    1
     5    18    15   ar
     6     7    12   ar
     7     8    11   ar
     8     9    10   ar
     9     1    10    1
    10     1     2    1
    11     2     3    1
    12     3     4    1
    13     4     6    1
    14     5     6    1
    15     5     1    1
    16    24     6    1
    17    24    25    1
    18    25    26   am
    19    30    31   ar
    20    32    33   ar
    21    32    35    1
    22    34    29   ar
    23    22    15    1
    24    13     7    1
    25    26    29    1
    26    15    19   ar
    27    16    20   ar
    28    17    18   ar
    29     7    11   ar
    30     8     9   ar
    31    10    12   ar
    32    25    27    2
    33    29    30   ar
    34    31    32   ar
    35    33    34   ar
    36    22    23    1
    37    13    14    1
    38    26    28    1
@<TRIPOS>MOLECULE
MolPort-020-295-123 MCULE-1159495392 PubChem-110267218
 35 38 0 0 0
SMALL
GASTEIGER

@<TRIPOS>ATOM
      1 C          12.4695   39.7522    9.9731 C.3     1  UNL1        0.0564
      2 C          12.0767   38.7784    8.8563 C.3     1  UNL1        0.0087
      3 C          10.8733   39.2689    8.0475 C.3     1  UNL1        0.0178
      4 C          10.0076   40.2060    8.8857 C.3     1  UNL1        0.0725
      5 C          12.1586   41.2034    9.5863 C.3     1  UNL1        0.0784
      6 N          10.7360   41.4281    9.2600 N.3     1  UNL1       -0.2647
      7 C          16.1812   40.0887    9.9579 C.ar    1  UNL1        0.2214
      8 C          15.6180   38.6831   11.7777 C.ar    1  UNL1        0.1031
      9 C          14.2656   38.7975   11.4622 C.ar    1  UNL1        0.0355
     10 C          13.9022   39.5845   10.3638 C.ar    1  UNL1        0.0644
     11 N          16.5473   39.3265   11.0246 N.ar    1  UNL1       -0.2120
     12 N          14.8655   40.2095    9.6373 N.ar    1  UNL1       -0.2179
     13 N          17.1592   40.7646    9.1586 N.pl3   1  UNL1       -0.2678
     14 H          18.0493   40.3481    9.1002 H       1  UNL1        0.1565
     15 C          15.5275   43.4784    7.2212 C.ar    1  UNL1        0.1331
     16 C          17.8022   44.0254    7.5684 C.ar    1  UNL1        0.2012
     17 C          16.9696   41.9868    8.4359 C.ar    1  UNL1        0.1389
     18 C          15.7080   42.2801    7.9203 C.ar    1  UNL1        0.0686
     19 N          16.5784   44.3243    7.0599 N.ar    1  UNL1       -0.2091
     20 N          17.9914   42.8661    8.2502 N.ar    1  UNL1       -0.2088
     21 C          13.2799   42.8373    6.2417 C.3     1  UNL1        0.1096
     22 N          14.2555   43.8278    6.6704 N.pl3   1  UNL1       -0.3166
     23 H          14.0296   44.7814    6.5770 H       1  UNL1        0.1482
     24 C          10.0936   41.9489   10.4568 C.3     1  UNL1        0.1587
     25 C           8.9425   42.8199   10.0850 C.2     1  UNL1        0.2425
     26 N           7.7270   42.2127    9.6293 N.am    1  UNL1       -0.2828
     27 O           9.0521   44.0712   10.1815 O.2     1  UNL1       -0.2733
     28 H           7.6982   41.2286    9.6286 H       1  UNL1        0.1549
     29 C           6.5482   42.8911    9.1740 C.ar    1  UNL1        0.0505
     30 C           6.6767   43.8705    8.1831 C.ar    1  UNL1        0.0170
     31 C           5.5518   44.5550    7.7143 C.ar    1  UNL1        0.0309
     32 C           4.2891   44.2655    8.2382 C.ar    1  UNL1        0.1402
     33 C           4.1518   43.2923    9.2307 C.ar    1  UNL1        0.0309
     34 C           5.2773   42.6074    9.6977 C.ar    1  UNL1        0.0170
     35 F           3.1991   44.9298    7.7864 F       1  UNL1       -0.2042
@<TRIPOS>BOND
     1    21    22    1
     2    16    19   ar
     3    17    20   ar
     4    17    13    1
     5    18    15   ar
     6     7    12   ar
     7     8    11   ar
     8     9    10   ar
     9     1    10    1
    10     1     2    1
    11     2     3    1
    12     3     4    1
    13     4     6    1
    14     5     6    1
    15     5     1    1
    16    24     6    1
    17    24    25    1
    18    25    26   am
    19    30    31   ar
    20    32    33   ar
    21    32    35    1
    22    34    29   ar
    23    22    15    1
    24    13     7    1
    25    26    29    1
    26    15    19   ar
    27    16    20   ar
    28    17    18   ar
    29     7    11   ar
    30     8     9   ar
    31    10    12   ar
    32    25    27    2
    33    29    30   ar
    34    31    32   ar
    35    33    34   ar
    36    22    23    1
    37    13    14    1
    38    26    28    1
@<TRIPOS>MOLECULE
MolPort-020-295-123 MCULE-1159495392 PubChem-110267218
 35 38 0 0 0
SMALL
GASTEIGER

@<TRIPOS>ATOM
      1 C          12.3806   40.2868    9.8819 C.3     1  UNL1        0.0564
      2 C          11.4412   40.6424   11.0398 C.3     1  UNL1        0.0087
      3 C          10.0348   41.0111   10.5613 C.3     1  UNL1        0.0178
      4 C          10.0746   41.5376    9.1290 C.3     1  UNL1        0.0725
      5 C          11.6159   39.6492    8.7153 C.3     1  UNL1        0.0784
      6 N          10.5382   40.5086    8.1853 N.3     1  UNL1       -0.2647
      7 C          15.3094   37.9840    9.7858 C.ar    1  UNL1        0.2214
      8 C          14.8441   38.4221   12.0653 C.ar    1  UNL1        0.1031
      9 C          13.7794   39.2442   11.7016 C.ar    1  UNL1        0.0355
     10 C          13.5055   39.4161   10.3402 C.ar    1  UNL1        0.0644
     11 N          15.5864   37.8093   11.1071 N.ar    1  UNL1       -0.2120
     12 N          14.2735   38.7827    9.4154 N.ar    1  UNL1       -0.2179
     13 N          16.0874   37.3352    8.7728 N.pl3   1  UNL1       -0.2678
     14 H          16.4814   37.9115    8.0787 H       1  UNL1        0.1565
     15 C          15.5378   33.6802    8.4259 C.ar    1  UNL1        0.1331
     16 C          17.8576   34.1088    8.5948 C.ar    1  UNL1        0.2012
     17 C          16.3484   35.9304    8.6703 C.ar    1  UNL1        0.1389
     18 C          15.2760   35.0504    8.5323 C.ar    1  UNL1        0.0686
     19 N          16.8225   33.2394    8.4603 N.ar    1  UNL1       -0.2091
     20 N          17.6182   35.4418    8.6980 N.ar    1  UNL1       -0.2088
     21 C          14.6601   31.3033    8.4724 C.3     1  UNL1        0.1096
     22 N          14.4756   32.7342    8.2843 N.pl3   1  UNL1       -0.3166
     23 H          13.5790   33.0657    8.0489 H       1  UNL1        0.1482
     24 C          11.0728   41.2109    7.0289 C.3     1  UNL1        0.1587
     25 C          12.2559   42.0268    7.4244 C.2     1  UNL1        0.2425
     26 N          13.5431   41.6939    6.8895 N.am    1  UNL1       -0.2828
     27 O          12.1073   42.9963    8.2151 O.2     1  UNL1       -0.2733
     28 H          13.5734   40.9560    6.2385 H       1  UNL1        0.1549
     29 C          14.7917   42.3252    7.2051 C.ar    1  UNL1        0.0505
     30 C          15.1483   43.4906    6.5179 C.ar    1  UNL1        0.0170
     31 C          16.3575   44.1342    6.7958 C.ar    1  UNL1        0.0309
     32 C          17.2209   43.6122    7.7627 C.ar    1  UNL1        0.1402
     33 C          16.8751   42.4469    8.4508 C.ar    1  UNL1        0.0309
     34 C          15.6649   41.8049    8.1730 C.ar    1  UNL1        0.0170
     35 F          18.3937   44.2338    8.0309 F       1  UNL1       -0.2042
@<TRIPOS>BOND
     1    21    22    1
     2    16    19   ar
     3    17    20   ar
     4    17    13    1
     5    18    15   ar
     6     7    12   ar
     7     8    11   ar
     8     9    10   ar
     9     1    10    1
    10     1     2    1
    11     2     3    1
    12     3     4    1
    13     4     6    1
    14     5     6    1
    15     5     1    1
    16    24     6    1
    17    24    25    1
    18    25    26   am
    19    30    31   ar
    20    32    33   ar
    21    32    35    1
    22    34    29   ar
    23    22    15    1
    24    13     7    1
    25    26    29    1
    26    15    19   ar
    27    16    20   ar
    28    17    18   ar
    29     7    11   ar
    30     8     9   ar
    31    10    12   ar
    32    25    27    2
    33    29    30   ar
    34    31    32   ar
    35    33    34   ar
    36    22    23    1
    37    13    14    1
    38    26    28    1
@<TRIPOS>MOLECULE
MolPort-020-295-123 MCULE-1159495392 PubChem-110267218
 35 38 0 0 0
SMALL
GASTEIGER

@<TRIPOS>ATOM
      1 C          15.3099   41.4776    8.2317 C.3     1  UNL1        0.0564
      2 C          16.7425   41.9764    8.4518 C.3     1  UNL1        0.0087
      3 C          17.0330   43.2761    7.6974 C.3     1  UNL1        0.0178
      4 C          16.1217   43.4065    6.4797 C.3     1  UNL1        0.0725
      5 C          14.3380   42.6436    8.0124 C.3     1  UNL1        0.0784
      6 N          14.7062   43.5027    6.8690 N.3     1  UNL1       -0.2647
      7 C          13.1061   39.8333   10.7476 C.ar    1  UNL1        0.2214
      8 C          15.2799   38.9421   11.0394 C.ar    1  UNL1        0.1031
      9 C          15.7595   39.7435   10.0052 C.ar    1  UNL1        0.0355
     10 C          14.8619   40.5947    9.3511 C.ar    1  UNL1        0.0644
     11 N          13.9693   39.0005   11.3913 N.ar    1  UNL1       -0.2120
     12 N          13.5593   40.6216    9.7369 N.ar    1  UNL1       -0.2179
     13 N          11.7243   39.9008   11.1195 N.pl3   1  UNL1       -0.2678
     14 H          11.3284   39.0864   11.5058 H       1  UNL1        0.1565
     15 C           8.7426   42.0949   11.3952 C.ar    1  UNL1        0.1331
     16 C          10.4513   43.2419   10.2299 C.ar    1  UNL1        0.2012
     17 C          10.8619   41.0366   10.9847 C.ar    1  UNL1        0.1389
     18 C           9.5777   40.9799   11.5243 C.ar    1  UNL1        0.0686
     19 N           9.1972   43.2009   10.7503 N.ar    1  UNL1       -0.2091
     20 N          11.2733   42.1672   10.3488 N.ar    1  UNL1       -0.2088
     21 C           6.3022   41.4229   11.2720 C.3     1  UNL1        0.1096
     22 N           7.4162   42.0898   11.9283 N.pl3   1  UNL1       -0.3166
     23 H           7.2492   42.5587   12.7778 H       1  UNL1        0.1482
     24 C          13.9257   43.0591    5.7243 C.3     1  UNL1        0.1587
     25 C          12.6429   42.4525    6.1805 C.2     1  UNL1        0.2425
     26 N          11.9793   41.5052    5.3341 N.am    1  UNL1       -0.2828
     27 O          12.1653   42.7753    7.3007 O.2     1  UNL1       -0.2733
     28 H          12.4378   41.2639    4.4970 H       1  UNL1        0.1549
     29 C          10.7161   40.8726    5.5813 C.ar    1  UNL1        0.0505
     30 C           9.6025   41.6765    5.8480 C.ar    1  UNL1        0.0170
     31 C           8.3545   41.0977    6.0954 C.ar    1  UNL1        0.0309
     32 C           8.2139   39.7074    6.0810 C.ar    1  UNL1        0.1402
     33 C           9.3210   38.8968    5.8197 C.ar    1  UNL1        0.0309
     34 C          10.5682   39.4769    5.5710 C.ar    1  UNL1        0.0170
     35 F           7.0058   39.1457    6.3229 F       1  UNL1       -0.2042
@<TRIPOS>BOND
     1    21    22    1
     2    16    19   ar
     3    17    20   ar
     4    17    13    1
     5    18    15   ar
     6     7    12   ar
     7     8    11   ar
     8     9    10   ar
     9     1    10    1
    10     1     2    1
    11     2     3    1
    12     3     4    1
    13     4     6    1
    14     5     6    1
    15     5     1    1
    16    24     6    1
    17    24    25    1
    18    25    26   am
    19    30    31   ar
    20    32    33   ar
    21    32    35    1
    22    34    29   ar
    23    22    15    1
    24    13     7    1
    25    26    29    1
    26    15    19   ar
    27    16    20   ar
    28    17    18   ar
    29     7    11   ar
    30     8     9   ar
    31    10    12   ar
    32    25    27    2
    33    29    30   ar
    34    31    32   ar
    35    33    34   ar
    36    22    23    1
    37    13    14    1
    38    26    28    1
@<TRIPOS>MOLECULE
MolPort-020-295-123 MCULE-1159495392 PubChem-110267218
 35 38 0 0 0
SMALL
GASTEIGER

@<TRIPOS>ATOM
      1 C          12.7787   39.8859    9.9766 C.3     1  UNL1        0.0564
      2 C          11.9677   40.2533   11.2244 C.3     1  UNL1        0.0087
      3 C          10.5266   40.6476   10.8916 C.3     1  UNL1        0.0178
      4 C          10.4302   41.1784    9.4637 C.3     1  UNL1        0.0725
      5 C          11.8887   39.2656    8.8924 C.3     1  UNL1        0.0784
      6 N          10.7780   40.1451    8.4759 N.3     1  UNL1       -0.2647
      7 C          15.6583   37.5537    9.5780 C.ar    1  UNL1        0.2214
      8 C          15.4035   37.9537   11.8974 C.ar    1  UNL1        0.1031
      9 C          14.3210   38.7940   11.6451 C.ar    1  UNL1        0.0355
     10 C          13.9290   38.9946   10.3169 C.ar    1  UNL1        0.0644
     11 N          16.0497   37.3511   10.8659 N.ar    1  UNL1       -0.2120
     12 N          14.6035   38.3705    9.3160 N.ar    1  UNL1       -0.2179
     13 N          16.3346   36.9158    8.4881 N.pl3   1  UNL1       -0.2678
     14 H          17.0118   37.4494    8.0128 H       1  UNL1        0.1565
     15 C          16.0192   34.0032    6.2082 C.ar    1  UNL1        0.1331
     16 C          15.6419   33.2975    8.4338 C.ar    1  UNL1        0.2012
     17 C          16.1228   35.5780    8.0219 C.ar    1  UNL1        0.1389
     18 C          16.2206   35.3130    6.6567 C.ar    1  UNL1        0.0686
     19 N          15.7335   33.0245    7.1062 N.ar    1  UNL1       -0.2091
     20 N          15.8361   34.5644    8.8834 N.ar    1  UNL1       -0.2088
     21 C          15.1177   32.8561    4.1361 C.3     1  UNL1        0.1096
     22 N          16.1061   33.6765    4.8193 N.pl3   1  UNL1       -0.3166
     23 H          16.8689   34.0222    4.3019 H       1  UNL1        0.1482
     24 C          11.2047   40.8424    7.2726 C.3     1  UNL1        0.1587
     25 C          12.3331   41.7646    7.5855 C.2     1  UNL1        0.2425
     26 N          13.6333   41.4817    7.0532 N.am    1  UNL1       -0.2828
     27 O          12.1276   42.7779    8.3053 O.2     1  UNL1       -0.2733
     28 H          13.7065   40.7011    6.4577 H       1  UNL1        0.1549
     29 C          14.8389   42.2188    7.2987 C.ar    1  UNL1        0.0505
     30 C          15.7393   41.7357    8.2545 C.ar    1  UNL1        0.0170
     31 C          16.9244   42.4263    8.5233 C.ar    1  UNL1        0.0309
     32 C          17.2145   43.6093    7.8384 C.ar    1  UNL1        0.1402
     33 C          16.3195   44.1013    6.8856 C.ar    1  UNL1        0.0309
     34 C          15.1354   43.4090    6.6165 C.ar    1  UNL1        0.0170
     35 F          18.3612   44.2803    8.1000 F       1  UNL1       -0.2042
@<TRIPOS>BOND
     1    21    22    1
     2    16    19   ar
     3    17    20   ar
     4    17    13    1
     5    18    15   ar
     6     7    12   ar
     7     8    11   ar
     8     9    10   ar
     9     1    10    1
    10     1     2    1
    11     2     3    1
    12     3     4    1
    13     4     6    1
    14     5     6    1
    15     5     1    1
    16    24     6    1
    17    24    25    1
    18    25    26   am
    19    30    31   ar
    20    32    33   ar
    21    32    35    1
    22    34    29   ar
    23    22    15    1
    24    13     7    1
    25    26    29    1
    26    15    19   ar
    27    16    20   ar
    28    17    18   ar
    29     7    11   ar
    30     8     9   ar
    31    10    12   ar
    32    25    27    2
    33    29    30   ar
    34    31    32   ar
    35    33    34   ar
    36    22    23    1
    37    13    14    1
    38    26    28    1
@<TRIPOS>MOLECULE
MolPort-020-295-123 MCULE-1159495392 PubChem-110267218
 35 38 0 0 0
SMALL
GASTEIGER

@<TRIPOS>ATOM
      1 C           9.0261   40.8878    7.9156 C.3     1  UNL1        0.0564
      2 C           8.0038   39.8570    7.4238 C.3     1  UNL1        0.0087
      3 C           8.4757   39.1152    6.1708 C.3     1  UNL1        0.0178
      4 C           9.4724   39.9645    5.3863 C.3     1  UNL1        0.0725
      5 C          10.4612   40.4484    7.6000 C.3     1  UNL1        0.0784
      6 N          10.6974   40.2177    6.1606 N.3     1  UNL1       -0.2647
      7 C           7.3928   41.6681   11.1735 C.ar    1  UNL1        0.2214
      8 C           9.7178   41.4958   11.5850 C.ar    1  UNL1        0.1031
      9 C           9.9475   41.2227   10.2381 C.ar    1  UNL1        0.0355
     10 C           8.8502   41.1787    9.3709 C.ar    1  UNL1        0.0644
     11 N           8.4521   41.7129   12.0273 N.ar    1  UNL1       -0.2120
     12 N           7.6011   41.4034    9.8563 N.ar    1  UNL1       -0.2179
     13 N           6.0571   41.9015   11.6358 N.pl3   1  UNL1       -0.2678
     14 H           5.9388   42.0288   12.6048 H       1  UNL1        0.1565
     15 C           3.6124   43.0345    9.0822 C.ar    1  UNL1        0.1331
     16 C           2.7567   41.1291   10.1916 C.ar    1  UNL1        0.2012
     17 C           4.8767   41.9679   10.8269 C.ar    1  UNL1        0.1389
     18 C           4.7647   42.9790    9.8737 C.ar    1  UNL1        0.0686
     19 N           2.6335   42.1091    9.2590 N.ar    1  UNL1       -0.2091
     20 N           3.8704   41.0624   10.9662 N.ar    1  UNL1       -0.2088
     21 C           4.4914   45.0029    7.7499 C.3     1  UNL1        0.1096
     22 N           3.4454   44.0511    8.0912 N.pl3   1  UNL1       -0.3166
     23 H           2.5838   44.1098    7.6185 H       1  UNL1        0.1482
     24 C          11.2925   41.4296    5.6191 C.3     1  UNL1        0.1587
     25 C          12.5945   41.7071    6.2896 C.2     1  UNL1        0.2425
     26 N          13.3705   42.8354    5.8665 N.am    1  UNL1       -0.2828
     27 O          12.9899   40.9528    7.2180 O.2     1  UNL1       -0.2733
     28 H          12.9739   43.4083    5.1710 H       1  UNL1        0.1549
     29 C          14.6653   43.2157    6.3522 C.ar    1  UNL1        0.0505
     30 C          15.2627   42.4401    7.3517 C.ar    1  UNL1        0.0170
     31 C          16.5231   42.7789    7.8522 C.ar    1  UNL1        0.0309
     32 C          17.1930   43.9008    7.3569 C.ar    1  UNL1        0.1402
     33 C          16.6024   44.6834    6.3620 C.ar    1  UNL1        0.0309
     34 C          15.3426   44.3427    5.8613 C.ar    1  UNL1        0.0170
     35 F          18.4130   44.2313    7.8428 F       1  UNL1       -0.2042
@<TRIPOS>BOND
     1    21    22    1
     2    16    19   ar
     3    17    20   ar
     4    17    13    1
     5    18    15   ar
     6     7    12   ar
     7     8    11   ar
     8     9    10   ar
     9     1    10    1
    10     1     2    1
    11     2     3    1
    12     3     4    1
    13     4     6    1
    14     5     6    1
    15     5     1    1
    16    24     6    1
    17    24    25    1
    18    25    26   am
    19    30    31   ar
    20    32    33   ar
    21    32    35    1
    22    34    29   ar
    23    22    15    1
    24    13     7    1
    25    26    29    1
    26    15    19   ar
    27    16    20   ar
    28    17    18   ar
    29     7    11   ar
    30     8     9   ar
    31    10    12   ar
    32    25    27    2
    33    29    30   ar
    34    31    32   ar
    35    33    34   ar
    36    22    23    1
    37    13    14    1
    38    26    28    1
@<TRIPOS>MOLECULE
MolPort-020-295-123 MCULE-1159495392 PubChem-110267218
 35 38 0 0 0
SMALL
GASTEIGER

@<TRIPOS>ATOM
      1 C           8.8232   40.3837    7.3771 C.3     1  UNL1        0.0564
      2 C           8.3355   39.0407    6.8219 C.3     1  UNL1        0.0087
      3 C           6.9711   39.1506    6.1367 C.3     1  UNL1        0.0178
      4 C           6.1800   40.3286    6.6993 C.3     1  UNL1        0.0725
      5 C           8.3185   41.5574    6.5287 C.3     1  UNL1        0.0784
      6 N           6.8465   41.6109    6.4239 N.3     1  UNL1       -0.2647
      7 C          12.3049   41.6756    7.6913 C.ar    1  UNL1        0.2214
      8 C          12.4342   39.3121    7.7314 C.ar    1  UNL1        0.1031
      9 C          11.0498   39.2229    7.5996 C.ar    1  UNL1        0.0355
     10 C          10.3110   40.4083    7.5160 C.ar    1  UNL1        0.0644
     11 N          13.0347   40.5296    7.7744 N.ar    1  UNL1       -0.2120
     12 N          10.9534   41.6047    7.5619 N.ar    1  UNL1       -0.2179
     13 N          12.9357   42.9612    7.7314 N.pl3   1  UNL1       -0.2678
     14 H          12.6035   43.5977    8.4050 H       1  UNL1        0.1565
     15 C          16.3570   43.6126    6.4463 C.ar    1  UNL1        0.1331
     16 C          14.7712   44.4758    4.9186 C.ar    1  UNL1        0.2012
     17 C          14.0022   43.4118    6.8879 C.ar    1  UNL1        0.1389
     18 C          15.3198   43.1761    7.2776 C.ar    1  UNL1        0.0686
     19 N          16.0601   44.2535    5.2856 N.ar    1  UNL1       -0.2091
     20 N          13.7543   44.0564    5.7154 N.ar    1  UNL1       -0.2088
     21 C          18.3292   43.9516    8.0012 C.3     1  UNL1        0.1096
     22 N          17.7257   43.3985    6.7984 N.pl3   1  UNL1       -0.3166
     23 H          18.2851   42.8521    6.2003 H       1  UNL1        0.1482
     24 C           6.3742   42.5526    7.4271 C.3     1  UNL1        0.1587
     25 C           6.7400   42.0768    8.7915 C.2     1  UNL1        0.2425
     26 N           7.9984   42.4702    9.3534 N.am    1  UNL1       -0.2828
     27 O           5.9393   41.3437    9.4307 O.2     1  UNL1       -0.2733
     28 H           8.5488   43.0851    8.8165 H       1  UNL1        0.1549
     29 C           8.5385   42.0602   10.6172 C.ar    1  UNL1        0.0505
     30 C           7.6805   41.9756   11.7192 C.ar    1  UNL1        0.0170
     31 C           8.1690   41.5813   12.9680 C.ar    1  UNL1        0.0309
     32 C           9.5230   41.2722   13.1228 C.ar    1  UNL1        0.1402
     33 C          10.3878   41.3579   12.0293 C.ar    1  UNL1        0.0309
     34 C           9.8978   41.7510   10.7805 C.ar    1  UNL1        0.0170
     35 F           9.9977   40.8925   14.3328 F       1  UNL1       -0.2042
@<TRIPOS>BOND
     1    21    22    1
     2    16    19   ar
     3    17    20   ar
     4    17    13    1
     5    18    15   ar
     6     7    12   ar
     7     8    11   ar
     8     9    10   ar
     9     1    10    1
    10     1     2    1
    11     2     3    1
    12     3     4    1
    13     4     6    1
    14     5     6    1
    15     5     1    1
    16    24     6    1
    17    24    25    1
    18    25    26   am
    19    30    31   ar
    20    32    33   ar
    21    32    35    1
    22    34    29   ar
    23    22    15    1
    24    13     7    1
    25    26    29    1
    26    15    19   ar
    27    16    20   ar
    28    17    18   ar
    29     7    11   ar
    30     8     9   ar
    31    10    12   ar
    32    25    27    2
    33    29    30   ar
    34    31    32   ar
    35    33    34   ar
    36    22    23    1
    37    13    14    1
    38    26    28    1
@<TRIPOS>MOLECULE
MolPort-020-295-123 MCULE-1159495392 PubChem-110267218
 35 38 0 0 0
SMALL
GASTEIGER

@<TRIPOS>ATOM
      1 C           8.0699   40.9920    8.2643 C.3     1  UNL1        0.0564
      2 C           6.5991   40.8145    7.8708 C.3     1  UNL1        0.0087
      3 C           5.6454   41.5327    8.8287 C.3     1  UNL1        0.0178
      4 C           6.2836   41.6888   10.2066 C.3     1  UNL1        0.0725
      5 C           8.3080   42.3442    8.9477 C.3     1  UNL1        0.0784
      6 N           7.4822   42.5404   10.1562 N.3     1  UNL1       -0.2647
      7 C          10.8697   41.5239    5.8625 C.ar    1  UNL1        0.2214
      8 C           9.6462   39.6464    5.0993 C.ar    1  UNL1        0.1031
      9 C           8.7655   39.7700    6.1720 C.ar    1  UNL1        0.0355
     10 C           8.9750   40.8053    7.0898 C.ar    1  UNL1        0.0644
     11 N          10.6770   40.5203    4.9633 N.ar    1  UNL1       -0.2120
     12 N          10.0185   41.6577    6.9142 N.ar    1  UNL1       -0.2179
     13 N          11.9530   42.4503    5.7193 N.pl3   1  UNL1       -0.2678
     14 H          11.8222   43.1912    5.0844 H       1  UNL1        0.1565
     15 C          15.4027   43.3095    6.7881 C.ar    1  UNL1        0.1331
     16 C          14.6533   41.4264    8.0073 C.ar    1  UNL1        0.2012
     17 C          13.2078   42.4047    6.4088 C.ar    1  UNL1        0.1389
     18 C          14.1818   43.3552    6.1065 C.ar    1  UNL1        0.0686
     19 N          15.6120   42.3459    7.7228 N.ar    1  UNL1       -0.2091
     20 N          13.4629   41.4596    7.3541 N.ar    1  UNL1       -0.2088
     21 C          17.6275   43.9325    5.7469 C.3     1  UNL1        0.1096
     22 N          16.4364   44.2585    6.5161 N.pl3   1  UNL1       -0.3166
     23 H          16.3379   45.1739    6.8648 H       1  UNL1        0.1482
     24 C           8.3005   42.1806   11.3038 C.3     1  UNL1        0.1587
     25 C           9.6495   41.7342   10.8537 C.2     1  UNL1        0.2425
     26 N           9.9200   40.3309   10.7463 N.am    1  UNL1       -0.2828
     27 O          10.5268   42.5927   10.5701 O.2     1  UNL1       -0.2733
     28 H           9.1707   39.7209   10.9352 H       1  UNL1        0.1549
     29 C          11.1701   39.7237   10.3917 C.ar    1  UNL1        0.0505
     30 C          12.2957   39.9946   11.1772 C.ar    1  UNL1        0.0170
     31 C          13.5321   39.4233   10.8634 C.ar    1  UNL1        0.0309
     32 C          13.6506   38.5783    9.7567 C.ar    1  UNL1        0.1402
     33 C          12.5332   38.3054    8.9643 C.ar    1  UNL1        0.0309
     34 C          11.2969   38.8763    9.2800 C.ar    1  UNL1        0.0170
     35 F          14.8486   38.0262    9.4504 F       1  UNL1       -0.2042
@<TRIPOS>BOND
     1    21    22    1
     2    16    19   ar
     3    17    20   ar
     4    17    13    1
     5    18    15   ar
     6     7    12   ar
     7     8    11   ar
     8     9    10   ar
     9     1    10    1
    10     1     2    1
    11     2     3    1
    12     3     4    1
    13     4     6    1
    14     5     6    1
    15     5     1    1
    16    24     6    1
    17    24    25    1
    18    25    26   am
    19    30    31   ar
    20    32    33   ar
    21    32    35    1
    22    34    29   ar
    23    22    15    1
    24    13     7    1
    25    26    29    1
    26    15    19   ar
    27    16    20   ar
    28    17    18   ar
    29     7    11   ar
    30     8     9   ar
    31    10    12   ar
    32    25    27    2
    33    29    30   ar
    34    31    32   ar
    35    33    34   ar
    36    22    23    1
    37    13    14    1
    38    26    28    1
@<TRIPOS>MOLECULE
MolPort-020-295-123 MCULE-1159495392 PubChem-110267218
 35 38 0 0 0
SMALL
GASTEIGER

@<TRIPOS>ATOM
      1 C          12.2003   39.3811    9.6222 C.3     1  UNL1        0.0564
      2 C          11.8967   39.8625   11.0455 C.3     1  UNL1        0.0087
      3 C          10.6754   40.7834   11.1047 C.3     1  UNL1        0.0178
      4 C          10.4616   41.4802    9.7635 C.3     1  UNL1        0.0725
      5 C          10.9194   39.2550    8.7881 C.3     1  UNL1        0.0784
      6 N          10.1582   40.5169    8.6937 N.3     1  UNL1       -0.2647
      7 C          15.0403   36.9878    9.3111 C.ar    1  UNL1        0.2214
      8 C          13.1414   35.7325    9.9614 C.ar    1  UNL1        0.1031
      9 C          12.3645   36.8893    9.9668 C.ar    1  UNL1        0.0355
     10 C          12.9750   38.1032    9.6325 C.ar    1  UNL1        0.0644
     11 N          14.4581   35.8009    9.6353 N.ar    1  UNL1       -0.2120
     12 N          14.2952   38.1250    9.3115 N.ar    1  UNL1       -0.2179
     13 N          16.4276   37.0626    8.9619 N.pl3   1  UNL1       -0.2678
     14 H          16.6790   37.7295    8.2827 H       1  UNL1        0.1565
     15 C          18.8595   34.2926    9.4020 C.ar    1  UNL1        0.1331
     16 C          19.1747   35.8888   11.1185 C.ar    1  UNL1        0.2012
     17 C          17.4852   36.2626    9.5037 C.ar    1  UNL1        0.1389
     18 C          17.8213   35.0661    8.8720 C.ar    1  UNL1        0.0686
     19 N          19.5129   34.7203   10.5139 N.ar    1  UNL1       -0.2091
     20 N          18.1695   36.6504   10.6142 N.ar    1  UNL1       -0.2088
     21 C          19.6437   32.9509    7.4002 C.3     1  UNL1        0.1096
     22 N          19.2438   33.0568    8.7951 N.pl3   1  UNL1       -0.3166
     23 H          19.2377   32.2406    9.3456 H       1  UNL1        0.1482
     24 C          10.5280   41.1537    7.4391 C.3     1  UNL1        0.1587
     25 C          11.7765   41.9488    7.6145 C.2     1  UNL1        0.2425
     26 N          12.9223   41.6342    6.8131 N.am    1  UNL1       -0.2828
     27 O          11.8050   42.8853    8.4568 O.2     1  UNL1       -0.2733
     28 H          12.8094   40.9237    6.1410 H       1  UNL1        0.1549
     29 C          14.2163   42.2479    6.8894 C.ar    1  UNL1        0.0505
     30 C          14.5421   43.2468    5.9655 C.ar    1  UNL1        0.0170
     31 C          15.7936   43.8678    6.0063 C.ar    1  UNL1        0.0309
     32 C          16.7303   43.4894    6.9718 C.ar    1  UNL1        0.1402
     33 C          16.4154   42.4902    7.8956 C.ar    1  UNL1        0.0309
     34 C          15.1629   41.8709    7.8547 C.ar    1  UNL1        0.0170
     35 F          17.9439   44.0887    7.0105 F       1  UNL1       -0.2042
@<TRIPOS>BOND
     1    21    22    1
     2    16    19   ar
     3    17    20   ar
     4    17    13    1
     5    18    15   ar
     6     7    12   ar
     7     8    11   ar
     8     9    10   ar
     9     1    10    1
    10     1     2    1
    11     2     3    1
    12     3     4    1
    13     4     6    1
    14     5     6    1
    15     5     1    1
    16    24     6    1
    17    24    25    1
    18    25    26   am
    19    30    31   ar
    20    32    33   ar
    21    32    35    1
    22    34    29   ar
    23    22    15    1
    24    13     7    1
    25    26    29    1
    26    15    19   ar
    27    16    20   ar
    28    17    18   ar
    29     7    11   ar
    30     8     9   ar
    31    10    12   ar
    32    25    27    2
    33    29    30   ar
    34    31    32   ar
    35    33    34   ar
    36    22    23    1
    37    13    14    1
    38    26    28    1
@<TRIPOS>MOLECULE
MolPort-020-295-123 MCULE-1159495392 PubChem-110267218
 35 38 0 0 0
SMALL
GASTEIGER

@<TRIPOS>ATOM
      1 C           9.0779   41.8902    7.5479 C.3     1  UNL1        0.0564
      2 C           9.1333   41.7241    6.0251 C.3     1  UNL1        0.0087
      3 C           9.9115   40.4766    5.5996 C.3     1  UNL1        0.0178
      4 C          10.9269   40.0849    6.6699 C.3     1  UNL1        0.0725
      5 C           9.0878   40.5321    8.2605 C.3     1  UNL1        0.0784
      6 N          10.2688   39.7090    7.9308 N.3     1  UNL1       -0.2647
      7 C           5.6215   42.8215    8.5855 C.ar    1  UNL1        0.2214
      8 C           6.8860   44.8213    8.5055 C.ar    1  UNL1        0.1031
      9 C           8.0148   44.1052    8.1120 C.ar    1  UNL1        0.0355
     10 C           7.9053   42.7181    7.9638 C.ar    1  UNL1        0.0644
     11 N           5.7155   44.1714    8.7338 N.ar    1  UNL1       -0.2120
     12 N           6.7141   42.1092    8.2016 N.ar    1  UNL1       -0.2179
     13 N           4.3872   42.1336    8.8208 N.pl3   1  UNL1       -0.2678
     14 H           3.8133   41.9714    8.0375 H       1  UNL1        0.1565
     15 C           2.5267   41.9656   12.0288 C.ar    1  UNL1        0.1331
     16 C           3.8446   40.0167   11.7871 C.ar    1  UNL1        0.2012
     17 C           3.9057   41.6585   10.0835 C.ar    1  UNL1        0.1389
     18 C           2.9984   42.4382   10.7994 C.ar    1  UNL1        0.0686
     19 N           2.9606   40.7659   12.4961 N.ar    1  UNL1       -0.2091
     20 N           4.3100   40.4626   10.5916 N.ar    1  UNL1       -0.2088
     21 C           0.7198   42.1258   13.7984 C.3     1  UNL1        0.1096
     22 N           1.5970   42.7253   12.8045 N.pl3   1  UNL1       -0.3166
     23 H           1.5480   43.6979   12.6597 H       1  UNL1        0.1482
     24 C          11.2462   39.9091    8.9896 C.3     1  UNL1        0.1587
     25 C          12.1366   41.0573    8.6571 C.2     1  UNL1        0.2425
     26 N          13.3085   40.8249    7.8655 N.am    1  UNL1       -0.2828
     27 O          11.8448   42.2113    9.0699 O.2     1  UNL1       -0.2733
     28 H          13.4440   39.9070    7.5362 H       1  UNL1        0.1549
     29 C          14.3040   41.7918    7.5037 C.ar    1  UNL1        0.0505
     30 C          14.0168   42.7017    6.4804 C.ar    1  UNL1        0.0170
     31 C          14.9615   43.6581    6.0978 C.ar    1  UNL1        0.0309
     32 C          16.2038   43.7076    6.7360 C.ar    1  UNL1        0.1402
     33 C          16.5008   42.8005    7.7558 C.ar    1  UNL1        0.0309
     34 C          15.5547   41.8453    8.1385 C.ar    1  UNL1        0.0170
     35 F          17.1205   44.6323    6.3645 F       1  UNL1       -0.2042
@<TRIPOS>BOND
     1    21    22    1
     2    16    19   ar
     3    17    20   ar
     4    17    13    1
     5    18    15   ar
     6     7    12   ar
     7     8    11   ar
     8     9    10   ar
     9     1    10    1
    10     1     2    1
    11     2     3    1
    12     3     4    1
    13     4     6    1
    14     5     6    1
    15     5     1    1
    16    24     6    1
    17    24    25    1
    18    25    26   am
    19    30    31   ar
    20    32    33   ar
    21    32    35    1
    22    34    29   ar
    23    22    15    1
    24    13     7    1
    25    26    29    1
    26    15    19   ar
    27    16    20   ar
    28    17    18   ar
    29     7    11   ar
    30     8     9   ar
    31    10    12   ar
    32    25    27    2
    33    29    30   ar
    34    31    32   ar
    35    33    34   ar
    36    22    23    1
    37    13    14    1
    38    26    28    1
