@<TRIPOS>MOLECULE
MolPort-006-464-456 ChemDiv-V027-9265 MCULE-3401747041 PubChem-24717982 ZINC000035806637 ZINC35806637
 33 37 0 0 0
SMALL
GASTEIGER

@<TRIPOS>ATOM
      1 C          14.0017   39.9112    9.6700 C.ar    1  UNL1        0.0847
      2 C          13.2209   40.0396   10.8280 C.ar    1  UNL1        0.0205
      3 C          11.8352   40.1862   10.7404 C.ar    1  UNL1        0.0162
      4 C          11.2015   40.1909    9.4934 C.ar    1  UNL1        0.0506
      5 C          11.9728   40.0460    8.3322 C.ar    1  UNL1        0.0162
      6 C          13.3601   39.9031    8.4211 C.ar    1  UNL1        0.0205
      7 C          17.2899   38.8612   10.3451 C.ar    1  UNL1        0.3384
      8 C          16.4433   40.5036    9.3562 C.ar    1  UNL1        0.1685
      9 N          15.9597   38.6570   10.3631 N.ar    1  UNL1       -0.1077
     10 N          15.4256   39.6961    9.7433 N.ar    1  UNL1       -0.2081
     11 N          17.6403   40.0056    9.7278 N.ar    1  UNL1       -0.1739
     12 C          16.3202   41.7489    8.5853 C.ar    1  UNL1        0.0392
     13 C          15.2524   41.9284    7.6779 C.ar    1  UNL1        0.0432
     14 C          15.2167   43.1140    6.9503 C.ar    1  UNL1        0.1765
     15 C          16.1695   44.0719    7.0869 C.ar    1  UNL1        0.1764
     16 C          14.6679   44.8221    5.5481 C.3     1  UNL1        0.4294
     17 C          17.2447   43.9293    7.9558 C.ar    1  UNL1        0.0403
     18 C          17.3179   42.7434    8.7071 C.ar    1  UNL1        0.0064
     19 O          15.8754   45.1333    6.2568 O.3     1  UNL1       -0.4346
     20 O          14.2797   43.5261    6.0239 O.3     1  UNL1       -0.4346
     21 C          18.4598   36.7052   10.3577 C.3     1  UNL1        0.2559
     22 O          18.2211   37.9897   10.9061 O.3     1  UNL1       -0.4416
     23 C           9.0102   41.4629    9.9156 C.2     1  UNL1        0.2495
     24 O           9.5832   42.4615   10.4323 O.2     1  UNL1       -0.2698
     25 N           9.7766   40.3427    9.4475 N.am    1  UNL1       -0.2804
     26 H           9.2685   39.5979    9.0521 H       1  UNL1        0.1552
     27 C           7.5414   41.4400    9.7994 C.ar    1  UNL1        0.0537
     28 C           6.9348   41.1810    8.5616 C.ar    1  UNL1        0.0042
     29 C           5.5438   41.1441    8.4481 C.ar    1  UNL1       -0.0041
     30 C           4.7471   41.3696    9.5720 C.ar    1  UNL1       -0.0218
     31 C           3.2682   41.3251    9.4516 C.3     1  UNL1        0.0310
     32 C           5.3417   41.6308   10.8093 C.ar    1  UNL1       -0.0041
     33 C           6.7339   41.6674   10.9227 C.ar    1  UNL1        0.0042
@<TRIPOS>BOND
     1    21    22    1
     2     7    22    1
     3     7    11   ar
     4     8    12    1
     5    13    14   ar
     6    14    20    1
     7    15    19    1
     8    15    17   ar
     9    16    19    1
    10    16    20    1
    11    18    12   ar
    12     2     3   ar
    13     4    25    1
    14     4     5   ar
    15    23    27    1
    16    28    29   ar
    17    30    32   ar
    18    31    30    1
    19    33    27   ar
    20     6     1   ar
    21    10     9   ar
    22    10     8   ar
    23    10     1    1
    24    25    23   am
    25     7     9   ar
    26     8    11   ar
    27    12    13   ar
    28    14    15   ar
    29    17    18   ar
    30     1     2   ar
    31     3     4   ar
    32    23    24    2
    33    27    28   ar
    34    29    30   ar
    35    32    33   ar
    36     5     6   ar
    37    25    26    1
@<TRIPOS>MOLECULE
MolPort-006-464-456 ChemDiv-V027-9265 MCULE-3401747041 PubChem-24717982 ZINC000035806637 ZINC35806637
 33 37 0 0 0
SMALL
GASTEIGER

@<TRIPOS>ATOM
      1 C          14.0615   40.1141    9.7015 C.ar    1  UNL1        0.0847
      2 C          13.4598   40.6188    8.5395 C.ar    1  UNL1        0.0205
      3 C          12.0978   40.9253    8.5180 C.ar    1  UNL1        0.0162
      4 C          11.3144   40.7487    9.6632 C.ar    1  UNL1        0.0506
      5 C          11.9118   40.2609   10.8335 C.ar    1  UNL1        0.0162
      6 C          13.2743   39.9508   10.8526 C.ar    1  UNL1        0.0205
      7 C          17.3186   38.9526   10.3441 C.ar    1  UNL1        0.3384
      8 C          16.5187   40.6250    9.3665 C.ar    1  UNL1        0.1685
      9 N          15.9826   38.7932   10.3739 N.ar    1  UNL1       -0.1077
     10 N          15.4780   39.8512    9.7613 N.ar    1  UNL1       -0.2081
     11 N          17.7016   40.0862    9.7260 N.ar    1  UNL1       -0.1739
     12 C          16.4304   41.8756    8.5994 C.ar    1  UNL1        0.0392
     13 C          15.4474   42.0348    7.5974 C.ar    1  UNL1        0.0432
     14 C          15.4439   43.2278    6.8811 C.ar    1  UNL1        0.1765
     15 C          16.3502   44.2115    7.1158 C.ar    1  UNL1        0.1764
     16 C          14.9771   44.9363    5.4499 C.3     1  UNL1        0.4294
     17 C          17.3430   44.0899    8.0805 C.ar    1  UNL1        0.0403
     18 C          17.3816   42.8974    8.8240 C.ar    1  UNL1        0.0064
     19 O          16.1029   45.2741    6.2720 O.3     1  UNL1       -0.4346
     20 O          14.5858   43.6236    5.8747 O.3     1  UNL1       -0.4346
     21 C          18.6157   36.8754   10.2034 C.3     1  UNL1        0.2559
     22 O          18.2251   38.0490   10.8946 O.3     1  UNL1       -0.4416
     23 C           9.0747   41.4773   10.6881 C.2     1  UNL1        0.2495
     24 O           9.5385   41.5777   11.8574 O.2     1  UNL1       -0.2698
     25 N           9.9203   41.0767    9.5992 N.am    1  UNL1       -0.2804
     26 H           9.4967   41.0212    8.7122 H       1  UNL1        0.1552
     27 C           7.6511   41.7638   10.4375 C.ar    1  UNL1        0.0537
     28 C           7.2491   42.3350    9.2211 C.ar    1  UNL1        0.0042
     29 C           5.9003   42.5958    8.9723 C.ar    1  UNL1       -0.0041
     30 C           4.9419   42.2906    9.9403 C.ar    1  UNL1       -0.0218
     31 C           3.5074   42.5635    9.6729 C.3     1  UNL1        0.0310
     32 C           5.3323   41.7237   11.1563 C.ar    1  UNL1       -0.0041
     33 C           6.6824   41.4624   11.4051 C.ar    1  UNL1        0.0042
@<TRIPOS>BOND
     1    21    22    1
     2     7    22    1
     3     7    11   ar
     4     8    12    1
     5    13    14   ar
     6    14    20    1
     7    15    19    1
     8    15    17   ar
     9    16    19    1
    10    16    20    1
    11    18    12   ar
    12     2     3   ar
    13     4    25    1
    14     4     5   ar
    15    23    27    1
    16    28    29   ar
    17    30    32   ar
    18    31    30    1
    19    33    27   ar
    20     6     1   ar
    21    10     9   ar
    22    10     8   ar
    23    10     1    1
    24    25    23   am
    25     7     9   ar
    26     8    11   ar
    27    12    13   ar
    28    14    15   ar
    29    17    18   ar
    30     1     2   ar
    31     3     4   ar
    32    23    24    2
    33    27    28   ar
    34    29    30   ar
    35    32    33   ar
    36     5     6   ar
    37    25    26    1
@<TRIPOS>MOLECULE
MolPort-006-464-456 ChemDiv-V027-9265 MCULE-3401747041 PubChem-24717982 ZINC000035806637 ZINC35806637
 33 37 0 0 0
SMALL
GASTEIGER

@<TRIPOS>ATOM
      1 C           5.2403   41.4277    9.8414 C.ar    1  UNL1        0.0847
      2 C           4.5571   42.6091   10.1654 C.ar    1  UNL1        0.0205
      3 C           3.6347   42.6342   11.2132 C.ar    1  UNL1        0.0162
      4 C           3.3896   41.4825   11.9680 C.ar    1  UNL1        0.0506
      5 C           4.0807   40.3023   11.6616 C.ar    1  UNL1        0.0162
      6 C           5.0009   40.2774   10.6102 C.ar    1  UNL1        0.0205
      7 C           7.0981   41.2479    6.8604 C.ar    1  UNL1        0.3384
      8 C           7.5803   41.2086    8.8996 C.ar    1  UNL1        0.1685
      9 N           5.9375   41.4284    7.5174 N.ar    1  UNL1       -0.1077
     10 N           6.2415   41.3985    8.8042 N.ar    1  UNL1       -0.2081
     11 N           8.1541   41.1030    7.6836 N.ar    1  UNL1       -0.1739
     12 C           8.3660   41.1642   10.1410 C.ar    1  UNL1        0.0392
     13 C           7.7363   41.3284   11.3948 C.ar    1  UNL1        0.0432
     14 C           8.5432   41.3159   12.5284 C.ar    1  UNL1        0.1765
     15 C           9.8903   41.1617   12.4520 C.ar    1  UNL1        0.1764
     16 C           9.3534   41.3607   14.6561 C.3     1  UNL1        0.4294
     17 C          10.5516   41.0130   11.2388 C.ar    1  UNL1        0.0403
     18 C           9.7711   41.0233   10.0696 C.ar    1  UNL1        0.0064
     19 O          10.4268   41.1775   13.7224 O.3     1  UNL1       -0.4346
     20 O           8.1689   41.4403   13.8514 O.3     1  UNL1       -0.4346
     21 C           8.2599   40.5020    4.8328 C.3     1  UNL1        0.2559
     22 O           7.2116   41.2090    5.4723 O.3     1  UNL1       -0.4416
     23 C           1.1805   42.2481   13.0317 C.2     1  UNL1        0.2495
     24 O           0.8060   42.8892   12.0114 O.2     1  UNL1       -0.2698
     25 N           2.4357   41.5512   13.0361 N.am    1  UNL1       -0.2804
     26 H           2.6665   41.0681   13.8623 H       1  UNL1        0.1552
     27 C           0.3281   42.2210   14.2335 C.ar    1  UNL1        0.0537
     28 C          -0.8392   41.4437   14.2540 C.ar    1  UNL1        0.0042
     29 C          -1.6434   41.4029   15.3946 C.ar    1  UNL1       -0.0041
     30 C          -1.2881   42.1427   16.5239 C.ar    1  UNL1       -0.0218
     31 C          -2.1409   42.0947   17.7381 C.3     1  UNL1        0.0310
     32 C          -0.1284   42.9220   16.5127 C.ar    1  UNL1       -0.0041
     33 C           0.6764   42.9625   15.3712 C.ar    1  UNL1        0.0042
@<TRIPOS>BOND
     1    21    22    1
     2     7    22    1
     3     7    11   ar
     4     8    12    1
     5    13    14   ar
     6    14    20    1
     7    15    19    1
     8    15    17   ar
     9    16    19    1
    10    16    20    1
    11    18    12   ar
    12     2     3   ar
    13     4    25    1
    14     4     5   ar
    15    23    27    1
    16    28    29   ar
    17    30    32   ar
    18    31    30    1
    19    33    27   ar
    20     6     1   ar
    21    10     9   ar
    22    10     8   ar
    23    10     1    1
    24    25    23   am
    25     7     9   ar
    26     8    11   ar
    27    12    13   ar
    28    14    15   ar
    29    17    18   ar
    30     1     2   ar
    31     3     4   ar
    32    23    24    2
    33    27    28   ar
    34    29    30   ar
    35    32    33   ar
    36     5     6   ar
    37    25    26    1
@<TRIPOS>MOLECULE
MolPort-006-464-456 ChemDiv-V027-9265 MCULE-3401747041 PubChem-24717982 ZINC000035806637 ZINC35806637
 33 37 0 0 0
SMALL
GASTEIGER

@<TRIPOS>ATOM
      1 C          13.1206   39.8378    9.9526 C.ar    1  UNL1        0.0847
      2 C          12.2461   39.4044    8.9454 C.ar    1  UNL1        0.0205
      3 C          10.8720   39.6286    9.0498 C.ar    1  UNL1        0.0162
      4 C          10.3474   40.3053   10.1559 C.ar    1  UNL1        0.0506
      5 C          11.2164   40.7566   11.1586 C.ar    1  UNL1        0.0162
      6 C          12.5912   40.5282   11.0547 C.ar    1  UNL1        0.0205
      7 C          16.5258   39.0198   10.2775 C.ar    1  UNL1        0.3384
      8 C          15.4466   40.3962    9.1229 C.ar    1  UNL1        0.1685
      9 N          15.2281   38.7987   10.5574 N.ar    1  UNL1       -0.1077
     10 N          14.5477   39.6708    9.8323 N.ar    1  UNL1       -0.2081
     11 N          16.7124   40.0123    9.3865 N.ar    1  UNL1       -0.1739
     12 C          15.1366   41.4453    8.1413 C.ar    1  UNL1        0.0392
     13 C          16.0338   42.5153    7.9272 C.ar    1  UNL1        0.0432
     14 C          15.6615   43.4961    7.0130 C.ar    1  UNL1        0.1765
     15 C          14.4786   43.4488    6.3477 C.ar    1  UNL1        0.1764
     16 C          15.5728   45.3221    5.6554 C.3     1  UNL1        0.4294
     17 C          13.5606   42.4233    6.5398 C.ar    1  UNL1        0.0403
     18 C          13.8990   41.4142    7.4582 C.ar    1  UNL1        0.0064
     19 O          14.3818   44.5369    5.5057 O.3     1  UNL1       -0.4346
     20 O          16.3633   44.6195    6.6240 O.3     1  UNL1       -0.4346
     21 C          18.7278   37.9545   10.0934 C.3     1  UNL1        0.2559
     22 O          17.5794   38.3064   10.8453 O.3     1  UNL1       -0.4416
     23 C           8.2233   41.7351    9.9513 C.2     1  UNL1        0.2495
     24 O           8.8475   42.7757    9.6051 O.2     1  UNL1       -0.2698
     25 N           8.9309   40.5160   10.2239 N.am    1  UNL1       -0.2804
     26 H           8.3840   39.7404   10.4860 H       1  UNL1        0.1552
     27 C           6.7564   41.7718   10.0870 C.ar    1  UNL1        0.0537
     28 C           6.1499   41.4085   11.2983 C.ar    1  UNL1        0.0042
     29 C           4.7614   41.4546   11.4374 C.ar    1  UNL1       -0.0041
     30 C           3.9672   41.8615   10.3639 C.ar    1  UNL1       -0.0218
     31 C           2.4913   41.9153   10.5142 C.3     1  UNL1        0.0310
     32 C           4.5616   42.2232    9.1521 C.ar    1  UNL1       -0.0041
     33 C           5.9513   42.1772    9.0132 C.ar    1  UNL1        0.0042
@<TRIPOS>BOND
     1    21    22    1
     2     7    22    1
     3     7    11   ar
     4     8    12    1
     5    13    14   ar
     6    14    20    1
     7    15    19    1
     8    15    17   ar
     9    16    19    1
    10    16    20    1
    11    18    12   ar
    12     2     3   ar
    13     4    25    1
    14     4     5   ar
    15    23    27    1
    16    28    29   ar
    17    30    32   ar
    18    31    30    1
    19    33    27   ar
    20     6     1   ar
    21    10     9   ar
    22    10     8   ar
    23    10     1    1
    24    25    23   am
    25     7     9   ar
    26     8    11   ar
    27    12    13   ar
    28    14    15   ar
    29    17    18   ar
    30     1     2   ar
    31     3     4   ar
    32    23    24    2
    33    27    28   ar
    34    29    30   ar
    35    32    33   ar
    36     5     6   ar
    37    25    26    1
@<TRIPOS>MOLECULE
MolPort-006-464-456 ChemDiv-V027-9265 MCULE-3401747041 PubChem-24717982 ZINC000035806637 ZINC35806637
 33 37 0 0 0
SMALL
GASTEIGER

@<TRIPOS>ATOM
      1 C          13.9578   40.2602    9.7744 C.ar    1  UNL1        0.0847
      2 C          13.4247   40.9855    8.6988 C.ar    1  UNL1        0.0205
      3 C          12.0827   41.3708    8.6947 C.ar    1  UNL1        0.0162
      4 C          11.2517   41.0525    9.7738 C.ar    1  UNL1        0.0506
      5 C          11.7811   40.3428   10.8603 C.ar    1  UNL1        0.0162
      6 C          13.1235   39.9544   10.8615 C.ar    1  UNL1        0.0205
      7 C          17.1412   38.9050   10.4065 C.ar    1  UNL1        0.3384
      8 C          16.4386   40.6062    9.4043 C.ar    1  UNL1        0.1685
      9 N          15.7982   38.8321   10.4531 N.ar    1  UNL1       -0.1077
     10 N          15.3552   39.9083    9.8248 N.ar    1  UNL1       -0.2081
     11 N          17.5888   39.9997    9.7623 N.ar    1  UNL1       -0.1739
     12 C          16.4216   41.8451    8.6136 C.ar    1  UNL1        0.0392
     13 C          15.4650   42.0302    7.5906 C.ar    1  UNL1        0.0432
     14 C          15.5291   43.2086    6.8533 C.ar    1  UNL1        0.1765
     15 C          16.4751   44.1543    7.0875 C.ar    1  UNL1        0.1764
     16 C          15.1669   44.9097    5.3834 C.3     1  UNL1        0.4294
     17 C          17.4439   44.0055    8.0727 C.ar    1  UNL1        0.0403
     18 C          17.4144   42.8265    8.8378 C.ar    1  UNL1        0.0064
     19 O          16.2921   45.2111    6.2204 O.3     1  UNL1       -0.4346
     20 O          14.7082   43.6243    5.8241 O.3     1  UNL1       -0.4346
     21 C          18.8122   37.1263   10.1587 C.3     1  UNL1        0.2559
     22 O          17.9945   37.9559   10.9655 O.3     1  UNL1       -0.4416
     23 C           9.1191   41.8204    8.5654 C.2     1  UNL1        0.2495
     24 O           9.6453   41.7810    7.4192 O.2     1  UNL1       -0.2698
     25 N           9.8802   41.4679    9.7306 N.am    1  UNL1       -0.2804
     26 H           9.4092   41.5167   10.5938 H       1  UNL1        0.1552
     27 C           7.7144   42.2407    8.7127 C.ar    1  UNL1        0.0537
     28 C           7.2539   43.4015    8.0740 C.ar    1  UNL1        0.0042
     29 C           5.9208   43.7972    8.1984 C.ar    1  UNL1       -0.0041
     30 C           5.0373   43.0364    8.9661 C.ar    1  UNL1       -0.0218
     31 C           3.6187   43.4550    9.0936 C.3     1  UNL1        0.0310
     32 C           5.4868   41.8797    9.6083 C.ar    1  UNL1       -0.0041
     33 C           6.8211   41.4837    9.4836 C.ar    1  UNL1        0.0042
@<TRIPOS>BOND
     1    21    22    1
     2     7    22    1
     3     7    11   ar
     4     8    12    1
     5    13    14   ar
     6    14    20    1
     7    15    19    1
     8    15    17   ar
     9    16    19    1
    10    16    20    1
    11    18    12   ar
    12     2     3   ar
    13     4    25    1
    14     4     5   ar
    15    23    27    1
    16    28    29   ar
    17    30    32   ar
    18    31    30    1
    19    33    27   ar
    20     6     1   ar
    21    10     9   ar
    22    10     8   ar
    23    10     1    1
    24    25    23   am
    25     7     9   ar
    26     8    11   ar
    27    12    13   ar
    28    14    15   ar
    29    17    18   ar
    30     1     2   ar
    31     3     4   ar
    32    23    24    2
    33    27    28   ar
    34    29    30   ar
    35    32    33   ar
    36     5     6   ar
    37    25    26    1
@<TRIPOS>MOLECULE
MolPort-006-464-456 ChemDiv-V027-9265 MCULE-3401747041 PubChem-24717982 ZINC000035806637 ZINC35806637
 33 37 0 0 0
SMALL
GASTEIGER

@<TRIPOS>ATOM
      1 C          11.7411   42.6996    8.2185 C.ar    1  UNL1        0.0847
      2 C          11.3938   43.3973    9.3845 C.ar    1  UNL1        0.0205
      3 C          10.0988   43.3217    9.9010 C.ar    1  UNL1        0.0162
      4 C           9.1303   42.5337    9.2706 C.ar    1  UNL1        0.0506
      5 C           9.4741   41.8198    8.1145 C.ar    1  UNL1        0.0162
      6 C          10.7695   41.8993    7.5964 C.ar    1  UNL1        0.0205
      7 C          14.7332   43.1602    6.4281 C.ar    1  UNL1        0.3384
      8 C          14.1303   41.8944    7.9858 C.ar    1  UNL1        0.1685
      9 N          13.4705   43.5179    6.7263 N.ar    1  UNL1       -0.1077
     10 N          13.0888   42.7156    7.7060 N.ar    1  UNL1       -0.2081
     11 N          15.1885   42.1462    7.1885 N.ar    1  UNL1       -0.1739
     12 C          14.1741   40.8753    9.0440 C.ar    1  UNL1        0.0392
     13 C          15.3702   40.1745    9.3160 C.ar    1  UNL1        0.0432
     14 C          15.3333   39.1946   10.3034 C.ar    1  UNL1        0.1765
     15 C          14.1960   38.9017   10.9853 C.ar    1  UNL1        0.1764
     16 C          15.8378   37.5424   11.7870 C.3     1  UNL1        0.4294
     17 C          12.9947   39.5554   10.7386 C.ar    1  UNL1        0.0403
     18 C          12.9904   40.5506    9.7458 C.ar    1  UNL1        0.0064
     19 O          14.4550   37.9052   11.9030 O.3     1  UNL1       -0.4346
     20 O          16.3611   38.3924   10.7572 O.3     1  UNL1       -0.4346
     21 C          16.8703   44.0706    5.6398 C.3     1  UNL1        0.2559
     22 O          15.5020   43.7643    5.4355 O.3     1  UNL1       -0.4416
     23 C           6.7000   41.7073    9.3634 C.2     1  UNL1        0.2495
     24 O           6.8186   40.9631    8.3512 O.2     1  UNL1       -0.2698
     25 N           7.8130   42.4825    9.8341 N.am    1  UNL1       -0.2804
     26 H           7.6544   43.0394   10.6303 H       1  UNL1        0.1552
     27 C           5.4064   41.7902   10.0641 C.ar    1  UNL1        0.0537
     28 C           4.3971   42.6386    9.5857 C.ar    1  UNL1        0.0042
     29 C           3.1644   42.7110   10.2371 C.ar    1  UNL1       -0.0041
     30 C           2.9319   41.9374   11.3757 C.ar    1  UNL1       -0.0218
     31 C           1.6192   42.0111   12.0648 C.3     1  UNL1        0.0310
     32 C           3.9318   41.0909   11.8617 C.ar    1  UNL1       -0.0041
     33 C           5.1654   41.0184   11.2094 C.ar    1  UNL1        0.0042
@<TRIPOS>BOND
     1    21    22    1
     2     7    22    1
     3     7    11   ar
     4     8    12    1
     5    13    14   ar
     6    14    20    1
     7    15    19    1
     8    15    17   ar
     9    16    19    1
    10    16    20    1
    11    18    12   ar
    12     2     3   ar
    13     4    25    1
    14     4     5   ar
    15    23    27    1
    16    28    29   ar
    17    30    32   ar
    18    31    30    1
    19    33    27   ar
    20     6     1   ar
    21    10     9   ar
    22    10     8   ar
    23    10     1    1
    24    25    23   am
    25     7     9   ar
    26     8    11   ar
    27    12    13   ar
    28    14    15   ar
    29    17    18   ar
    30     1     2   ar
    31     3     4   ar
    32    23    24    2
    33    27    28   ar
    34    29    30   ar
    35    32    33   ar
    36     5     6   ar
    37    25    26    1
@<TRIPOS>MOLECULE
MolPort-006-464-456 ChemDiv-V027-9265 MCULE-3401747041 PubChem-24717982 ZINC000035806637 ZINC35806637
 33 37 0 0 0
SMALL
GASTEIGER

@<TRIPOS>ATOM
      1 C          11.6492   42.4484    8.3964 C.ar    1  UNL1        0.0847
      2 C          11.3627   42.9904    9.6579 C.ar    1  UNL1        0.0205
      3 C          10.0628   42.9627   10.1667 C.ar    1  UNL1        0.0162
      4 C           9.0270   42.3778    9.4308 C.ar    1  UNL1        0.0506
      5 C           9.3083   41.8188    8.1767 C.ar    1  UNL1        0.0162
      6 C          10.6091   41.8505    7.6669 C.ar    1  UNL1        0.0205
      7 C          14.6881   42.8933    6.6826 C.ar    1  UNL1        0.3384
      8 C          13.9449   41.4526    8.0108 C.ar    1  UNL1        0.1685
      9 N          13.4663   43.3237    7.0477 N.ar    1  UNL1       -0.1077
     10 N          12.9957   42.4118    7.8820 N.ar    1  UNL1       -0.2081
     11 N          15.0302   41.7247    7.2578 N.ar    1  UNL1       -0.1739
     12 C          13.8746   40.2712    8.8823 C.ar    1  UNL1        0.0392
     13 C          13.0323   39.1859    8.5532 C.ar    1  UNL1        0.0432
     14 C          12.9823   38.1159    9.4413 C.ar    1  UNL1        0.1765
     15 C          13.7027   38.1009   10.5924 C.ar    1  UNL1        0.1764
     16 C          12.5359   36.1476   10.4959 C.3     1  UNL1        0.4294
     17 C          14.5310   39.1537   10.9621 C.ar    1  UNL1        0.0403
     18 C          14.6065   40.2553   10.0920 C.ar    1  UNL1        0.0064
     19 O          13.4674   36.9204   11.2657 O.3     1  UNL1       -0.4346
     20 O          12.2559   36.9464    9.3382 O.3     1  UNL1       -0.4346
     21 C          16.8326   43.9684    6.1700 C.3     1  UNL1        0.2559
     22 O          15.5234   43.5733    5.7987 O.3     1  UNL1       -0.4416
     23 C           6.5686   41.6378    9.5099 C.2     1  UNL1        0.2495
     24 O           6.6639   40.8978    8.4922 O.2     1  UNL1       -0.2698
     25 N           7.7069   42.3692    9.9900 N.am    1  UNL1       -0.2804
     26 H           7.5657   42.9252   10.7901 H       1  UNL1        0.1552
     27 C           5.2764   41.7613   10.2074 C.ar    1  UNL1        0.0537
     28 C           4.3318   42.7069    9.7821 C.ar    1  UNL1        0.0042
     29 C           3.1003   42.8191   10.4301 C.ar    1  UNL1       -0.0041
     30 C           2.8044   41.9881   11.5121 C.ar    1  UNL1       -0.0218
     31 C           1.4926   42.1044   12.1974 C.3     1  UNL1        0.0310
     32 C           3.7397   41.0445   11.9451 C.ar    1  UNL1       -0.0041
     33 C           4.9722   40.9322   11.2962 C.ar    1  UNL1        0.0042
@<TRIPOS>BOND
     1    21    22    1
     2     7    22    1
     3     7    11   ar
     4     8    12    1
     5    13    14   ar
     6    14    20    1
     7    15    19    1
     8    15    17   ar
     9    16    19    1
    10    16    20    1
    11    18    12   ar
    12     2     3   ar
    13     4    25    1
    14     4     5   ar
    15    23    27    1
    16    28    29   ar
    17    30    32   ar
    18    31    30    1
    19    33    27   ar
    20     6     1   ar
    21    10     9   ar
    22    10     8   ar
    23    10     1    1
    24    25    23   am
    25     7     9   ar
    26     8    11   ar
    27    12    13   ar
    28    14    15   ar
    29    17    18   ar
    30     1     2   ar
    31     3     4   ar
    32    23    24    2
    33    27    28   ar
    34    29    30   ar
    35    32    33   ar
    36     5     6   ar
    37    25    26    1
@<TRIPOS>MOLECULE
MolPort-006-464-456 ChemDiv-V027-9265 MCULE-3401747041 PubChem-24717982 ZINC000035806637 ZINC35806637
 33 37 0 0 0
SMALL
GASTEIGER

@<TRIPOS>ATOM
      1 C          16.7320   39.9782    9.1289 C.ar    1  UNL1        0.0847
      2 C          15.9437   38.8209    9.2090 C.ar    1  UNL1        0.0205
      3 C          16.3707   37.7180    9.9511 C.ar    1  UNL1        0.0162
      4 C          17.5868   37.7571   10.6410 C.ar    1  UNL1        0.0506
      5 C          18.3724   38.9162   10.5799 C.ar    1  UNL1        0.0162
      6 C          17.9457   40.0180    9.8336 C.ar    1  UNL1        0.0205
      7 C          16.3460   43.0303    7.4241 C.ar    1  UNL1        0.3384
      8 C          15.0268   41.6528    8.2928 C.ar    1  UNL1        0.1685
      9 N          17.1112   42.0156    7.8669 N.ar    1  UNL1       -0.1077
     10 N          16.2789   41.1488    8.4194 N.ar    1  UNL1       -0.2081
     11 N          15.0344   42.8492    7.6704 N.ar    1  UNL1       -0.1739
     12 C          13.7799   41.0002    8.7167 C.ar    1  UNL1        0.0392
     13 C          13.6249   39.6014    8.5948 C.ar    1  UNL1        0.0432
     14 C          12.4049   39.0519    8.9772 C.ar    1  UNL1        0.1765
     15 C          11.3851   39.8173    9.4444 C.ar    1  UNL1        0.1764
     16 C          10.6719   37.6547    9.4562 C.3     1  UNL1        0.4294
     17 C          11.4896   41.1978    9.5654 C.ar    1  UNL1        0.0403
     18 C          12.7062   41.7914    9.1863 C.ar    1  UNL1        0.0064
     19 O          10.3102   39.0104    9.7539 O.3     1  UNL1       -0.4346
     20 O          12.0179   37.7268    8.9666 O.3     1  UNL1       -0.4346
     21 C          17.9029   44.0726    5.8409 C.3     1  UNL1        0.2559
     22 O          16.8445   44.1601    6.7789 O.3     1  UNL1       -0.4416
     23 C          17.5983   36.2653   12.7321 C.2     1  UNL1        0.2495
     24 O          16.8175   37.0140   13.3818 O.2     1  UNL1       -0.2698
     25 N          17.9878   36.6037   11.3923 N.am    1  UNL1       -0.2804
     26 H          18.5964   35.9755   10.9403 H       1  UNL1        0.1552
     27 C          18.1238   35.0377   13.3552 C.ar    1  UNL1        0.0537
     28 C          17.6192   34.6001   14.5886 C.ar    1  UNL1        0.0042
     29 C          18.1031   33.4302   15.1772 C.ar    1  UNL1       -0.0041
     30 C          19.0990   32.6895   14.5382 C.ar    1  UNL1       -0.0218
     31 C          19.6093   31.4430   15.1623 C.3     1  UNL1        0.0310
     32 C          19.6100   33.1183   13.3104 C.ar    1  UNL1       -0.0041
     33 C          19.1254   34.2891   12.7213 C.ar    1  UNL1        0.0042
@<TRIPOS>BOND
     1    21    22    1
     2     7    22    1
     3     7    11   ar
     4     8    12    1
     5    13    14   ar
     6    14    20    1
     7    15    19    1
     8    15    17   ar
     9    16    19    1
    10    16    20    1
    11    18    12   ar
    12     2     3   ar
    13     4    25    1
    14     4     5   ar
    15    23    27    1
    16    28    29   ar
    17    30    32   ar
    18    31    30    1
    19    33    27   ar
    20     6     1   ar
    21    10     9   ar
    22    10     8   ar
    23    10     1    1
    24    25    23   am
    25     7     9   ar
    26     8    11   ar
    27    12    13   ar
    28    14    15   ar
    29    17    18   ar
    30     1     2   ar
    31     3     4   ar
    32    23    24    2
    33    27    28   ar
    34    29    30   ar
    35    32    33   ar
    36     5     6   ar
    37    25    26    1
@<TRIPOS>MOLECULE
MolPort-006-464-456 ChemDiv-V027-9265 MCULE-3401747041 PubChem-24717982 ZINC000035806637 ZINC35806637
 33 37 0 0 0
SMALL
GASTEIGER

@<TRIPOS>ATOM
      1 C          12.1540   39.4639    8.7963 C.ar    1  UNL1        0.0847
      2 C          13.4190   39.9694    9.1301 C.ar    1  UNL1        0.0205
      3 C          14.3326   39.1899    9.8421 C.ar    1  UNL1        0.0162
      4 C          14.0052   37.8836   10.2199 C.ar    1  UNL1        0.0506
      5 C          12.7495   37.3650    9.8754 C.ar    1  UNL1        0.0162
      6 C          11.8345   38.1475    9.1661 C.ar    1  UNL1        0.0205
      7 C           9.4137   40.7722    7.0218 C.ar    1  UNL1        0.3384
      8 C          11.4551   41.2348    7.1271 C.ar    1  UNL1        0.1685
      9 N           9.9327   39.9421    7.9452 N.ar    1  UNL1       -0.1077
     10 N          11.2219   40.2310    8.0079 N.ar    1  UNL1       -0.2081
     11 N          10.3290   41.5983    6.4800 N.ar    1  UNL1       -0.1739
     12 C          12.7398   41.9117    6.9005 C.ar    1  UNL1        0.0392
     13 C          13.8647   41.6012    7.6967 C.ar    1  UNL1        0.0432
     14 C          15.0396   42.3069    7.4564 C.ar    1  UNL1        0.1765
     15 C          15.1193   43.2693    6.5016 C.ar    1  UNL1        0.1764
     16 C          17.1672   43.1180    7.4862 C.3     1  UNL1        0.4294
     17 C          14.0334   43.6169    5.7072 C.ar    1  UNL1        0.0403
     18 C          12.8267   42.9282    5.9215 C.ar    1  UNL1        0.0064
     19 O          16.3969   43.7885    6.4790 O.3     1  UNL1       -0.4346
     20 O          16.2631   42.1782    8.0829 O.3     1  UNL1       -0.4346
     21 C           7.4919   39.7176    5.9211 C.3     1  UNL1        0.2559
     22 O           8.0708   40.7854    6.6507 O.3     1  UNL1       -0.4416
     23 C          16.2507   37.5636   11.4254 C.2     1  UNL1        0.2495
     24 O          16.6326   38.7490   11.2218 O.2     1  UNL1       -0.2698
     25 N          14.9723   37.1164   10.9490 N.am    1  UNL1       -0.2804
     26 H          14.7339   36.1813   11.1441 H       1  UNL1        0.1552
     27 C          17.1268   36.6259   12.1497 C.ar    1  UNL1        0.0537
     28 C          16.6406   35.9188   13.2591 C.ar    1  UNL1        0.0042
     29 C          17.4615   35.0185   13.9408 C.ar    1  UNL1       -0.0041
     30 C          18.7779   34.8205   13.5204 C.ar    1  UNL1       -0.0218
     31 C          19.6486   33.8592   14.2427 C.3     1  UNL1        0.0310
     32 C          19.2726   35.5219   12.4178 C.ar    1  UNL1       -0.0041
     33 C          18.4507   36.4227   11.7354 C.ar    1  UNL1        0.0042
@<TRIPOS>BOND
     1    21    22    1
     2     7    22    1
     3     7    11   ar
     4     8    12    1
     5    13    14   ar
     6    14    20    1
     7    15    19    1
     8    15    17   ar
     9    16    19    1
    10    16    20    1
    11    18    12   ar
    12     2     3   ar
    13     4    25    1
    14     4     5   ar
    15    23    27    1
    16    28    29   ar
    17    30    32   ar
    18    31    30    1
    19    33    27   ar
    20     6     1   ar
    21    10     9   ar
    22    10     8   ar
    23    10     1    1
    24    25    23   am
    25     7     9   ar
    26     8    11   ar
    27    12    13   ar
    28    14    15   ar
    29    17    18   ar
    30     1     2   ar
    31     3     4   ar
    32    23    24    2
    33    27    28   ar
    34    29    30   ar
    35    32    33   ar
    36     5     6   ar
    37    25    26    1
@<TRIPOS>MOLECULE
MolPort-006-464-456 ChemDiv-V027-9265 MCULE-3401747041 PubChem-24717982 ZINC000035806637 ZINC35806637
 33 37 0 0 0
SMALL
GASTEIGER

@<TRIPOS>ATOM
      1 C          13.0424   40.3310    9.2799 C.ar    1  UNL1        0.0847
      2 C          12.5422   40.6840    8.0179 C.ar    1  UNL1        0.0205
      3 C          11.3146   41.3375    7.8954 C.ar    1  UNL1        0.0162
      4 C          10.5707   41.6656    9.0336 C.ar    1  UNL1        0.0506
      5 C          11.0716   41.3315   10.2993 C.ar    1  UNL1        0.0162
      6 C          12.2987   40.6740   10.4204 C.ar    1  UNL1        0.0205
      7 C          15.8281   38.3361   10.0736 C.ar    1  UNL1        0.3384
      8 C          15.5705   40.2212    9.1950 C.ar    1  UNL1        0.1685
      9 N          14.4983   38.5206    9.9797 N.ar    1  UNL1       -0.1077
     10 N          14.3362   39.7124    9.4297 N.ar    1  UNL1       -0.2081
     11 N          16.5405   39.3751    9.5975 N.ar    1  UNL1       -0.1739
     12 C          15.8729   41.5036    8.5436 C.ar    1  UNL1        0.0392
     13 C          14.9770   42.0596    7.6034 C.ar    1  UNL1        0.0432
     14 C          15.3422   43.2560    6.9939 C.ar    1  UNL1        0.1765
     15 C          16.5172   43.8772    7.2726 C.ar    1  UNL1        0.1764
     16 C          15.4216   45.1537    5.7378 C.3     1  UNL1        0.4294
     17 C          17.4338   43.3571    8.1785 C.ar    1  UNL1        0.0403
     18 C          17.1025   42.1475    8.8136 C.ar    1  UNL1        0.0064
     19 O          16.6081   45.0394    6.5356 O.3     1  UNL1       -0.4346
     20 O          14.6398   43.9966    6.0643 O.3     1  UNL1       -0.4346
     21 C          17.7848   36.8873   10.3728 C.3     1  UNL1        0.2559
     22 O          16.4220   37.1951   10.6091 O.3     1  UNL1       -0.4416
     23 C           8.0564   41.7436    8.5137 C.2     1  UNL1        0.2495
     24 O           7.9649   40.4998    8.3221 O.2     1  UNL1       -0.2698
     25 N           9.3157   42.3376    8.8640 N.am    1  UNL1       -0.2804
     26 H           9.3177   43.3123    9.0028 H       1  UNL1        0.1552
     27 C           6.8640   42.5971    8.3680 C.ar    1  UNL1        0.0537
     28 C           6.8348   43.6100    7.3981 C.ar    1  UNL1        0.0042
     29 C           5.7026   44.4126    7.2458 C.ar    1  UNL1       -0.0041
     30 C           4.5907   44.2110    8.0654 C.ar    1  UNL1       -0.0218
     31 C           3.3853   45.0615    7.8994 C.3     1  UNL1        0.0310
     32 C           4.6108   43.2063    9.0362 C.ar    1  UNL1       -0.0041
     33 C           5.7439   42.4028    9.1884 C.ar    1  UNL1        0.0042
@<TRIPOS>BOND
     1    21    22    1
     2     7    22    1
     3     7    11   ar
     4     8    12    1
     5    13    14   ar
     6    14    20    1
     7    15    19    1
     8    15    17   ar
     9    16    19    1
    10    16    20    1
    11    18    12   ar
    12     2     3   ar
    13     4    25    1
    14     4     5   ar
    15    23    27    1
    16    28    29   ar
    17    30    32   ar
    18    31    30    1
    19    33    27   ar
    20     6     1   ar
    21    10     9   ar
    22    10     8   ar
    23    10     1    1
    24    25    23   am
    25     7     9   ar
    26     8    11   ar
    27    12    13   ar
    28    14    15   ar
    29    17    18   ar
    30     1     2   ar
    31     3     4   ar
    32    23    24    2
    33    27    28   ar
    34    29    30   ar
    35    32    33   ar
    36     5     6   ar
    37    25    26    1
