@<TRIPOS>MOLECULE
MolPort-003-020-522 9390687 CSSS03437190948 LN01391664 MCULE-6427518754 PubChem-4550575 ZINC000009390687
 31 34 0 0 0
SMALL
GASTEIGER

@<TRIPOS>ATOM
      1 C           9.3638   41.9407    8.7344 C.ar    1  UNL1        0.0898
      2 C          11.6472   40.9724    8.4640 C.ar    1  UNL1        0.0096
      3 C          11.1790   40.9056    9.7742 C.ar    1  UNL1       -0.0081
      4 C          11.9577   40.2856   10.8880 C.3     1  UNL1        0.0320
      5 C           9.8896   41.4447    9.9308 C.ar    1  UNL1        0.0843
      6 S          10.4628   41.6681    7.4934 S.2     1  UNL1       -0.0759
      7 C           7.4878   42.7893    7.2435 C.2     1  UNL1        0.2303
      8 N           8.0541   42.4805    8.5203 N.am    1  UNL1       -0.2783
      9 O           7.9924   42.3289    6.1850 O.2     1  UNL1       -0.2746
     10 H           7.4997   42.6527    9.3153 H       1  UNL1        0.1553
     11 C           6.2316   43.5863    7.1712 C.3     1  UNL1        0.1326
     12 C           5.9965   44.3389    8.4743 C.3     1  UNL1        0.2150
     13 O           4.7158   44.0292    9.0189 O.3     1  UNL1       -0.4749
     14 C           4.4105   42.8067    9.6277 C.ar    1  UNL1        0.1386
     15 C           5.3181   42.2614   10.5425 C.ar    1  UNL1        0.0369
     16 C           5.0425   41.0427   11.1699 C.ar    1  UNL1        0.0031
     17 C           3.8549   40.3627   10.8862 C.ar    1  UNL1        0.0002
     18 C           2.9419   40.9013    9.9754 C.ar    1  UNL1        0.0031
     19 C           3.2174   42.1197    9.3481 C.ar    1  UNL1        0.0369
     20 C           9.1571   41.3739   11.1712 C.1     1  UNL1        0.1019
     21 N           8.5713   41.3155   12.1675 N.1     1  UNL1       -0.1908
     22 C          12.9410   40.4207    7.9597 C.3     1  UNL1        0.0590
     23 C          13.8856   41.5248    7.6251 C.ar    1  UNL1       -0.0141
     24 C          15.2015   41.5067    8.1410 C.ar    1  UNL1       -0.0006
     25 C          16.1109   42.5293    7.8157 C.ar    1  UNL1        0.0399
     26 C          15.6628   43.5425    6.9721 C.ar    1  UNL1        0.1764
     27 C          14.4007   43.5597    6.4721 C.ar    1  UNL1        0.1761
     28 C          15.4750   45.4003    5.6666 C.3     1  UNL1        0.4294
     29 C          13.4728   42.5657    6.7710 C.ar    1  UNL1        0.0363
     30 O          14.2389   44.6721    5.6707 O.3     1  UNL1       -0.4346
     31 O          16.3553   44.6436    6.5098 O.3     1  UNL1       -0.4346
@<TRIPOS>BOND
     1     1     8    1
     2     1     6   ar
     3    11     7    1
     4    11    12    1
     5    12    13    1
     6    14    13    1
     7    15    16   ar
     8    17    18   ar
     9    19    14   ar
    10     2     6   ar
    11     3     5   ar
    12     4     3    1
    13     5    20    1
    14    22     2    1
    15    22    23    1
    16    24    25   ar
    17    26    27   ar
    18    26    31    1
    19    27    30    1
    20    28    30    1
    21    28    31    1
    22    29    23   ar
    23     8     7   am
    24     7     9    2
    25    14    15   ar
    26    16    17   ar
    27    18    19   ar
    28     2     3   ar
    29     5     1   ar
    30    23    24   ar
    31    25    26   ar
    32    27    29   ar
    33    20    21    3
    34     8    10    1
@<TRIPOS>MOLECULE
MolPort-003-020-522 9390687 CSSS03437190948 LN01391664 MCULE-6427518754 PubChem-4550575 ZINC000009390687
 31 34 0 0 0
SMALL
GASTEIGER

@<TRIPOS>ATOM
      1 C          13.8963   42.2949    6.8913 C.ar    1  UNL1        0.0898
      2 C          15.8746   41.7468    8.3092 C.ar    1  UNL1        0.0096
      3 C          16.0979   42.8252    7.4563 C.ar    1  UNL1       -0.0081
      4 C          17.3813   43.5890    7.4260 C.3     1  UNL1        0.0320
      5 C          14.9836   43.1421    6.6591 C.ar    1  UNL1        0.0843
      6 S          14.2967   41.2023    8.1030 S.2     1  UNL1       -0.0759
      7 C          11.6693   41.2967    6.1801 C.2     1  UNL1        0.2303
      8 N          12.5879   42.3848    6.3147 N.am    1  UNL1       -0.2783
      9 O          11.8301   40.2314    6.8332 O.2     1  UNL1       -0.2746
     10 H          12.2979   43.2658    5.9846 H       1  UNL1        0.1553
     11 C          10.4568   41.4605    5.3306 C.3     1  UNL1        0.1326
     12 C           9.1935   41.2016    6.1410 C.3     1  UNL1        0.2150
     13 O           8.1903   42.1709    5.8465 O.3     1  UNL1       -0.4749
     14 C           7.2137   42.5749    6.7638 C.ar    1  UNL1        0.1386
     15 C           6.8020   41.6753    7.7534 C.ar    1  UNL1        0.0369
     16 C           5.8298   42.0481    8.6865 C.ar    1  UNL1        0.0031
     17 C           5.2644   43.3252    8.6354 C.ar    1  UNL1        0.0002
     18 C           5.6714   44.2306    7.6516 C.ar    1  UNL1        0.0031
     19 C           6.6433   43.8580    6.7187 C.ar    1  UNL1        0.0369
     20 C          14.9439   44.2938    5.7920 C.1     1  UNL1        0.1019
     21 N          14.9131   45.2166    5.0942 N.1     1  UNL1       -0.1908
     22 C          16.8289   41.2152    9.3287 C.3     1  UNL1        0.0590
     23 C          16.2916   39.9706    9.9496 C.ar    1  UNL1       -0.0141
     24 C          17.1221   39.1809   10.7769 C.ar    1  UNL1       -0.0006
     25 C          16.6226   38.0164   11.3879 C.ar    1  UNL1        0.0399
     26 C          15.2919   37.6851   11.1465 C.ar    1  UNL1        0.1764
     27 C          14.4912   38.4443   10.3557 C.ar    1  UNL1        0.1761
     28 C          13.2416   36.6923   11.1037 C.3     1  UNL1        0.4294
     29 C          14.9493   39.6031    9.7344 C.ar    1  UNL1        0.0363
     30 O          13.2325   37.8802   10.2993 O.3     1  UNL1       -0.4346
     31 O          14.5755   36.6064   11.6251 O.3     1  UNL1       -0.4346
@<TRIPOS>BOND
     1     1     8    1
     2     1     6   ar
     3    11     7    1
     4    11    12    1
     5    12    13    1
     6    14    13    1
     7    15    16   ar
     8    17    18   ar
     9    19    14   ar
    10     2     6   ar
    11     3     5   ar
    12     4     3    1
    13     5    20    1
    14    22     2    1
    15    22    23    1
    16    24    25   ar
    17    26    27   ar
    18    26    31    1
    19    27    30    1
    20    28    30    1
    21    28    31    1
    22    29    23   ar
    23     8     7   am
    24     7     9    2
    25    14    15   ar
    26    16    17   ar
    27    18    19   ar
    28     2     3   ar
    29     5     1   ar
    30    23    24   ar
    31    25    26   ar
    32    27    29   ar
    33    20    21    3
    34     8    10    1
@<TRIPOS>MOLECULE
MolPort-003-020-522 9390687 CSSS03437190948 LN01391664 MCULE-6427518754 PubChem-4550575 ZINC000009390687
 31 34 0 0 0
SMALL
GASTEIGER

@<TRIPOS>ATOM
      1 C           9.8265   41.2027    8.4712 C.ar    1  UNL1        0.0898
      2 C          12.2602   40.7939    8.8379 C.ar    1  UNL1        0.0096
      3 C          11.5936   39.6854    8.3213 C.ar    1  UNL1       -0.0081
      4 C          12.2808   38.4005    7.9926 C.3     1  UNL1        0.0320
      5 C          10.2224   39.9125    8.1071 C.ar    1  UNL1        0.0843
      6 S          11.1682   42.0624    9.0033 S.2     1  UNL1       -0.0759
      7 C           8.0188   42.3435    7.0954 C.2     1  UNL1        0.2303
      8 N           8.5294   41.7897    8.3114 N.am    1  UNL1       -0.2783
      9 O           8.5656   42.0875    5.9897 O.2     1  UNL1       -0.2746
     10 H           7.9427   41.8137    9.1015 H       1  UNL1        0.1553
     11 C           6.7703   43.1552    7.1260 C.3     1  UNL1        0.1326
     12 C           6.7142   44.0081    8.3866 C.3     1  UNL1        0.2150
     13 O           5.4061   43.9958    8.9537 O.3     1  UNL1       -0.4749
     14 C           4.8069   42.8497    9.4882 C.ar    1  UNL1        0.1386
     15 C           5.5443   42.0479   10.3665 C.ar    1  UNL1        0.0369
     16 C           4.9746   40.8973   10.9198 C.ar    1  UNL1        0.0031
     17 C           3.6615   40.5428   10.5981 C.ar    1  UNL1        0.0002
     18 C           2.9172   41.3391    9.7234 C.ar    1  UNL1        0.0031
     19 C           3.4867   42.4895    9.1702 C.ar    1  UNL1        0.0369
     20 C           9.3603   38.9497    7.4670 C.1     1  UNL1        0.1019
     21 N           8.6692   38.1754    6.9552 N.1     1  UNL1       -0.1908
     22 C          13.7270   40.8973    9.1036 C.3     1  UNL1        0.0590
     23 C          14.3855   41.7552    8.0773 C.ar    1  UNL1       -0.0141
     24 C          13.6183   42.3174    7.0316 C.ar    1  UNL1       -0.0006
     25 C          14.2214   43.1473    6.0692 C.ar    1  UNL1        0.0399
     26 C          15.5871   43.3884    6.1945 C.ar    1  UNL1        0.1764
     27 C          16.3251   42.8528    7.2003 C.ar    1  UNL1        0.1761
     28 C          17.7320   44.1060    5.9193 C.3     1  UNL1        0.4294
     29 C          15.7640   42.0275    8.1712 C.ar    1  UNL1        0.0363
     30 O          17.6378   43.2617    7.0753 O.3     1  UNL1       -0.4346
     31 O          16.4002   44.1593    5.3880 O.3     1  UNL1       -0.4346
@<TRIPOS>BOND
     1     1     8    1
     2     1     6   ar
     3    11     7    1
     4    11    12    1
     5    12    13    1
     6    14    13    1
     7    15    16   ar
     8    17    18   ar
     9    19    14   ar
    10     2     6   ar
    11     3     5   ar
    12     4     3    1
    13     5    20    1
    14    22     2    1
    15    22    23    1
    16    24    25   ar
    17    26    27   ar
    18    26    31    1
    19    27    30    1
    20    28    30    1
    21    28    31    1
    22    29    23   ar
    23     8     7   am
    24     7     9    2
    25    14    15   ar
    26    16    17   ar
    27    18    19   ar
    28     2     3   ar
    29     5     1   ar
    30    23    24   ar
    31    25    26   ar
    32    27    29   ar
    33    20    21    3
    34     8    10    1
@<TRIPOS>MOLECULE
MolPort-003-020-522 9390687 CSSS03437190948 LN01391664 MCULE-6427518754 PubChem-4550575 ZINC000009390687
 31 34 0 0 0
SMALL
GASTEIGER

@<TRIPOS>ATOM
      1 C          10.1813   41.9278    9.1101 C.ar    1  UNL1        0.0898
      2 C          12.4403   40.8751    8.9937 C.ar    1  UNL1        0.0096
      3 C          11.8366   40.7325   10.2409 C.ar    1  UNL1       -0.0081
      4 C          12.4706   39.9944   11.3743 C.3     1  UNL1        0.0320
      5 C          10.5603   41.3190   10.3099 C.ar    1  UNL1        0.0843
      6 S          11.3913   41.6972    7.9677 S.2     1  UNL1       -0.0759
      7 C           8.4595   43.7817    9.3557 C.2     1  UNL1        0.2303
      8 N           8.9233   42.5438    8.8094 N.am    1  UNL1       -0.2783
      9 O           9.2566   44.5771    9.9206 O.2     1  UNL1       -0.2746
     10 H           8.3307   42.0779    8.1762 H       1  UNL1        0.1553
     11 C           7.0357   44.1781    9.1705 C.3     1  UNL1        0.1326
     12 C           6.2470   43.0560    8.5082 C.3     1  UNL1        0.2150
     13 O           6.6359   42.8937    7.1461 O.3     1  UNL1       -0.4749
     14 C           7.1604   41.7037    6.6292 C.ar    1  UNL1        0.1386
     15 C           6.4635   40.5091    6.8412 C.ar    1  UNL1        0.0369
     16 C           6.9591   39.3031    6.3364 C.ar    1  UNL1        0.0031
     17 C           8.1557   39.2861    5.6146 C.ar    1  UNL1        0.0002
     18 C           8.8572   40.4750    5.3965 C.ar    1  UNL1        0.0031
     19 C           8.3617   41.6808    5.9011 C.ar    1  UNL1        0.0369
     20 C           9.7011   41.1902   11.4610 C.1     1  UNL1        0.1019
     21 N           9.0098   41.0883   12.3835 N.1     1  UNL1       -0.1908
     22 C          13.7566   40.3021    8.5793 C.3     1  UNL1        0.0590
     23 C          14.6426   41.3689    8.0315 C.ar    1  UNL1       -0.0141
     24 C          14.2003   42.1661    6.9513 C.ar    1  UNL1       -0.0006
     25 C          15.0157   43.1913    6.4388 C.ar    1  UNL1        0.0399
     26 C          16.2579   43.3836    7.0379 C.ar    1  UNL1        0.1764
     27 C          16.6830   42.6219    8.0781 C.ar    1  UNL1        0.1761
     28 C          18.3323   44.1253    7.6193 C.3     1  UNL1        0.4294
     29 C          15.9046   41.5988    8.6127 C.ar    1  UNL1        0.0363
     30 O          17.9411   43.0361    8.4673 O.3     1  UNL1       -0.4346
     31 O          17.2284   44.3133    6.7222 O.3     1  UNL1       -0.4346
@<TRIPOS>BOND
     1     1     8    1
     2     1     6   ar
     3    11     7    1
     4    11    12    1
     5    12    13    1
     6    14    13    1
     7    15    16   ar
     8    17    18   ar
     9    19    14   ar
    10     2     6   ar
    11     3     5   ar
    12     4     3    1
    13     5    20    1
    14    22     2    1
    15    22    23    1
    16    24    25   ar
    17    26    27   ar
    18    26    31    1
    19    27    30    1
    20    28    30    1
    21    28    31    1
    22    29    23   ar
    23     8     7   am
    24     7     9    2
    25    14    15   ar
    26    16    17   ar
    27    18    19   ar
    28     2     3   ar
    29     5     1   ar
    30    23    24   ar
    31    25    26   ar
    32    27    29   ar
    33    20    21    3
    34     8    10    1
@<TRIPOS>MOLECULE
MolPort-003-020-522 9390687 CSSS03437190948 LN01391664 MCULE-6427518754 PubChem-4550575 ZINC000009390687
 31 34 0 0 0
SMALL
GASTEIGER

@<TRIPOS>ATOM
      1 C           9.5368   41.7942    8.7295 C.ar    1  UNL1        0.0898
      2 C          11.8284   40.8356    8.4964 C.ar    1  UNL1        0.0096
      3 C          11.3719   40.8417    9.8124 C.ar    1  UNL1       -0.0081
      4 C          12.1667   40.2971   10.9539 C.3     1  UNL1        0.0320
      5 C          10.0780   41.3756    9.9485 C.ar    1  UNL1        0.0843
      6 S          10.6284   41.4600    7.4970 S.2     1  UNL1       -0.0759
      7 C           7.6642   42.5985    7.2101 C.2     1  UNL1        0.2303
      8 N           8.2195   42.3065    8.4956 N.am    1  UNL1       -0.2783
      9 O           8.1921   42.1440    6.1605 O.2     1  UNL1       -0.2746
     10 H           7.6511   42.4708    9.2824 H       1  UNL1        0.1553
     11 C           6.3933   43.3696    7.1175 C.3     1  UNL1        0.1326
     12 C           6.2428   44.3035    8.3112 C.3     1  UNL1        0.2150
     13 O           4.9910   44.1015    8.9630 O.3     1  UNL1       -0.4749
     14 C           4.6048   42.8833    9.5332 C.ar    1  UNL1        0.1386
     15 C           3.3536   42.3495    9.2053 C.ar    1  UNL1        0.0369
     16 C           2.9382   41.1333    9.7559 C.ar    1  UNL1        0.0031
     17 C           3.7743   40.4429   10.6377 C.ar    1  UNL1        0.0002
     18 C           5.0265   40.9678   10.9690 C.ar    1  UNL1        0.0031
     19 C           5.4418   42.1837   10.4186 C.ar    1  UNL1        0.0369
     20 C           9.3568   41.3707   11.1973 C.1     1  UNL1        0.1019
     21 N           8.7799   41.3682   12.2006 N.1     1  UNL1       -0.1908
     22 C          13.1240   40.2688    8.0140 C.3     1  UNL1        0.0590
     23 C          14.0940   41.3609    7.7150 C.ar    1  UNL1       -0.0141
     24 C          13.7392   42.3914    6.8149 C.ar    1  UNL1       -0.0006
     25 C          14.6350   43.4406    6.5405 C.ar    1  UNL1        0.0399
     26 C          15.8669   43.4192    7.1894 C.ar    1  UNL1        0.1764
     27 C          16.2082   42.4328    8.0574 C.ar    1  UNL1        0.1761
     28 C          17.9646   43.8798    7.9498 C.3     1  UNL1        0.4294
     29 C          15.3487   41.3785    8.3544 C.ar    1  UNL1        0.0363
     30 O          17.4770   42.6699    8.5470 O.3     1  UNL1       -0.4346
     31 O          16.9049   44.3240    7.0906 O.3     1  UNL1       -0.4346
@<TRIPOS>BOND
     1     1     8    1
     2     1     6   ar
     3    11     7    1
     4    11    12    1
     5    12    13    1
     6    14    13    1
     7    15    16   ar
     8    17    18   ar
     9    19    14   ar
    10     2     6   ar
    11     3     5   ar
    12     4     3    1
    13     5    20    1
    14    22     2    1
    15    22    23    1
    16    24    25   ar
    17    26    27   ar
    18    26    31    1
    19    27    30    1
    20    28    30    1
    21    28    31    1
    22    29    23   ar
    23     8     7   am
    24     7     9    2
    25    14    15   ar
    26    16    17   ar
    27    18    19   ar
    28     2     3   ar
    29     5     1   ar
    30    23    24   ar
    31    25    26   ar
    32    27    29   ar
    33    20    21    3
    34     8    10    1
@<TRIPOS>MOLECULE
MolPort-003-020-522 9390687 CSSS03437190948 LN01391664 MCULE-6427518754 PubChem-4550575 ZINC000009390687
 31 34 0 0 0
SMALL
GASTEIGER

@<TRIPOS>ATOM
      1 C           8.5265   41.6384    7.7314 C.ar    1  UNL1        0.0898
      2 C          10.6316   40.3324    7.4356 C.ar    1  UNL1        0.0096
      3 C           9.5101   39.6798    6.9290 C.ar    1  UNL1       -0.0081
      4 C           9.5770   38.3508    6.2504 C.3     1  UNL1        0.0320
      5 C           8.3216   40.4146    7.0879 C.ar    1  UNL1        0.0843
      6 S          10.1649   41.8259    8.0524 S.2     1  UNL1       -0.0759
      7 C           7.0103   43.5399    6.9915 C.2     1  UNL1        0.2303
      8 N           7.5546   42.6611    7.9802 N.am    1  UNL1       -0.2783
      9 O           7.1273   43.2822    5.7639 O.2     1  UNL1       -0.2746
     10 H           7.2358   42.7676    8.9056 H       1  UNL1        0.1553
     11 C           6.2142   44.7236    7.4200 C.3     1  UNL1        0.1326
     12 C           4.7981   44.3105    7.7993 C.3     1  UNL1        0.2150
     13 O           4.6987   44.0532    9.1982 O.3     1  UNL1       -0.4749
     14 C           4.4052   42.7938    9.7329 C.ar    1  UNL1        0.1386
     15 C           5.2903   42.2286   10.6576 C.ar    1  UNL1        0.0369
     16 C           5.0255   40.9729   11.2124 C.ar    1  UNL1        0.0031
     17 C           3.8714   40.2753   10.8454 C.ar    1  UNL1        0.0002
     18 C           2.9809   40.8333    9.9240 C.ar    1  UNL1        0.0031
     19 C           3.2456   42.0888    9.3694 C.ar    1  UNL1        0.0369
     20 C           7.0598   39.9914    6.5323 C.1     1  UNL1        0.1019
     21 N           6.0485   39.6500    6.0851 N.1     1  UNL1       -0.1908
     22 C          12.0442   39.8522    7.3544 C.3     1  UNL1        0.0590
     23 C          12.9836   41.0053    7.2496 C.ar    1  UNL1       -0.0141
     24 C          14.1406   41.0474    8.0605 C.ar    1  UNL1       -0.0006
     25 C          15.0479   42.1173    7.9565 C.ar    1  UNL1        0.0399
     26 C          14.7596   43.1156    7.0295 C.ar    1  UNL1        0.1764
     27 C          13.6512   43.0752    6.2467 C.ar    1  UNL1        0.1761
     28 C          14.7898   44.9751    5.7133 C.3     1  UNL1        0.4294
     29 C          12.7308   42.0331    6.3206 C.ar    1  UNL1        0.0363
     30 O          13.6259   44.1864    5.4279 O.3     1  UNL1       -0.4346
     31 O          15.4846   44.2546    6.7413 O.3     1  UNL1       -0.4346
@<TRIPOS>BOND
     1     1     8    1
     2     1     6   ar
     3    11     7    1
     4    11    12    1
     5    12    13    1
     6    14    13    1
     7    15    16   ar
     8    17    18   ar
     9    19    14   ar
    10     2     6   ar
    11     3     5   ar
    12     4     3    1
    13     5    20    1
    14    22     2    1
    15    22    23    1
    16    24    25   ar
    17    26    27   ar
    18    26    31    1
    19    27    30    1
    20    28    30    1
    21    28    31    1
    22    29    23   ar
    23     8     7   am
    24     7     9    2
    25    14    15   ar
    26    16    17   ar
    27    18    19   ar
    28     2     3   ar
    29     5     1   ar
    30    23    24   ar
    31    25    26   ar
    32    27    29   ar
    33    20    21    3
    34     8    10    1
@<TRIPOS>MOLECULE
MolPort-003-020-522 9390687 CSSS03437190948 LN01391664 MCULE-6427518754 PubChem-4550575 ZINC000009390687
 31 34 0 0 0
SMALL
GASTEIGER

@<TRIPOS>ATOM
      1 C           9.2150   41.5288   10.3012 C.ar    1  UNL1        0.0898
      2 C          11.1866   40.5237    9.1491 C.ar    1  UNL1        0.0096
      3 C          11.3425   40.5971   10.5313 C.ar    1  UNL1       -0.0081
      4 C          12.5548   40.0923   11.2432 C.3     1  UNL1        0.0320
      5 C          10.2313   41.1575   11.1861 C.ar    1  UNL1        0.0843
      6 S           9.6696   41.1213    8.7360 S.2     1  UNL1       -0.0759
      7 C           6.9589   41.3994   11.4653 C.2     1  UNL1        0.2303
      8 N           7.9231   42.0512   10.6338 N.am    1  UNL1       -0.2783
      9 O           7.2932   40.4427   12.2137 O.2     1  UNL1       -0.2746
     10 H           7.6795   42.9289   10.2602 H       1  UNL1        0.1553
     11 C           5.5640   41.9191   11.5177 C.3     1  UNL1        0.1326
     12 C           4.6129   40.9814   10.7856 C.3     1  UNL1        0.2150
     13 O           4.6903   41.1749    9.3752 O.3     1  UNL1       -0.4749
     14 C           4.7527   42.4355    8.7708 C.ar    1  UNL1        0.1386
     15 C           5.8752   42.7621    8.0019 C.ar    1  UNL1        0.0369
     16 C           5.9679   44.0123    7.3828 C.ar    1  UNL1        0.0031
     17 C           4.9358   44.9434    7.5288 C.ar    1  UNL1        0.0002
     18 C           3.8101   44.6246    8.2933 C.ar    1  UNL1        0.0031
     19 C           3.7174   43.3747    8.9122 C.ar    1  UNL1        0.0369
     20 C          10.1195   41.2211   12.6226 C.1     1  UNL1        0.1019
     21 N          10.0324   41.2726   13.7754 N.1     1  UNL1       -0.1908
     22 C          12.1501   39.9146    8.1830 C.3     1  UNL1        0.0590
     23 C          13.1120   40.9399    7.6866 C.ar    1  UNL1       -0.0141
     24 C          12.7280   41.8241    6.6528 C.ar    1  UNL1       -0.0006
     25 C          13.6166   42.8115    6.1898 C.ar    1  UNL1        0.0399
     26 C          14.8711   42.8786    6.7903 C.ar    1  UNL1        0.1764
     27 C          15.2406   42.0332    7.7862 C.ar    1  UNL1        0.1761
     28 C          16.9965   43.4316    7.3968 C.3     1  UNL1        0.4294
     29 C          14.3891   41.0440    8.2710 C.ar    1  UNL1        0.0363
     30 O          16.5271   42.3312    8.1886 O.3     1  UNL1       -0.4346
     31 O          15.9077   43.7487    6.5179 O.3     1  UNL1       -0.4346
@<TRIPOS>BOND
     1     1     8    1
     2     1     6   ar
     3    11     7    1
     4    11    12    1
     5    12    13    1
     6    14    13    1
     7    15    16   ar
     8    17    18   ar
     9    19    14   ar
    10     2     6   ar
    11     3     5   ar
    12     4     3    1
    13     5    20    1
    14    22     2    1
    15    22    23    1
    16    24    25   ar
    17    26    27   ar
    18    26    31    1
    19    27    30    1
    20    28    30    1
    21    28    31    1
    22    29    23   ar
    23     8     7   am
    24     7     9    2
    25    14    15   ar
    26    16    17   ar
    27    18    19   ar
    28     2     3   ar
    29     5     1   ar
    30    23    24   ar
    31    25    26   ar
    32    27    29   ar
    33    20    21    3
    34     8    10    1
@<TRIPOS>MOLECULE
MolPort-003-020-522 9390687 CSSS03437190948 LN01391664 MCULE-6427518754 PubChem-4550575 ZINC000009390687
 31 34 0 0 0
SMALL
GASTEIGER

@<TRIPOS>ATOM
      1 C          15.8513   41.7864    8.5331 C.ar    1  UNL1        0.0898
      2 C          14.1391   42.3891    6.8215 C.ar    1  UNL1        0.0096
      3 C          15.2731   43.1961    6.7651 C.ar    1  UNL1       -0.0081
      4 C          15.4499   44.2850    5.7580 C.3     1  UNL1        0.0320
      5 C          16.2440   42.8565    7.7241 C.ar    1  UNL1        0.0843
      6 S          14.3441   41.2394    8.0319 S.2     1  UNL1       -0.0759
      7 C          16.5548   39.7467    9.8773 C.2     1  UNL1        0.2303
      8 N          16.6255   41.1371    9.5488 N.am    1  UNL1       -0.2783
      9 O          16.0151   38.9240    9.0906 O.2     1  UNL1       -0.2746
     10 H          17.2564   41.6922   10.0616 H       1  UNL1        0.1553
     11 C          17.2109   39.2518   11.1196 C.3     1  UNL1        0.1326
     12 C          16.4991   38.0128   11.6467 C.3     1  UNL1        0.2150
     13 O          15.2495   38.3560   12.2413 O.3     1  UNL1       -0.4749
     14 C          14.0408   38.3847   11.5366 C.ar    1  UNL1        0.1386
     15 C          13.5248   37.1869   11.0298 C.ar    1  UNL1        0.0369
     16 C          12.3185   37.1804   10.3230 C.ar    1  UNL1        0.0031
     17 C          11.6202   38.3740   10.1203 C.ar    1  UNL1        0.0002
     18 C          12.1273   39.5746   10.6249 C.ar    1  UNL1        0.0031
     19 C          13.3334   39.5811   11.3315 C.ar    1  UNL1        0.0369
     20 C          17.5459   43.4750    7.7725 C.1     1  UNL1        0.1019
     21 N          18.5904   43.9717    7.8139 N.1     1  UNL1       -0.1908
     22 C          12.9683   42.4457    5.8948 C.3     1  UNL1        0.0590
     23 C          11.8141   41.6922    6.4634 C.ar    1  UNL1       -0.0141
     24 C          11.1699   42.1649    7.6294 C.ar    1  UNL1       -0.0006
     25 C          10.0654   41.4774    8.1644 C.ar    1  UNL1        0.0399
     26 C           9.6407   40.3296    7.5003 C.ar    1  UNL1        0.1764
     27 C          10.2553   39.8761    6.3780 C.ar    1  UNL1        0.1761
     28 C           8.5449   38.4440    6.8409 C.3     1  UNL1        0.4294
     29 C          11.3504   40.5292    5.8188 C.ar    1  UNL1        0.0363
     30 O           9.6233   38.7299    5.9390 O.3     1  UNL1       -0.4346
     31 O           8.5929   39.4901    7.8217 O.3     1  UNL1       -0.4346
@<TRIPOS>BOND
     1     1     8    1
     2     1     6   ar
     3    11     7    1
     4    11    12    1
     5    12    13    1
     6    14    13    1
     7    15    16   ar
     8    17    18   ar
     9    19    14   ar
    10     2     6   ar
    11     3     5   ar
    12     4     3    1
    13     5    20    1
    14    22     2    1
    15    22    23    1
    16    24    25   ar
    17    26    27   ar
    18    26    31    1
    19    27    30    1
    20    28    30    1
    21    28    31    1
    22    29    23   ar
    23     8     7   am
    24     7     9    2
    25    14    15   ar
    26    16    17   ar
    27    18    19   ar
    28     2     3   ar
    29     5     1   ar
    30    23    24   ar
    31    25    26   ar
    32    27    29   ar
    33    20    21    3
    34     8    10    1
@<TRIPOS>MOLECULE
MolPort-003-020-522 9390687 CSSS03437190948 LN01391664 MCULE-6427518754 PubChem-4550575 ZINC000009390687
 31 34 0 0 0
SMALL
GASTEIGER

@<TRIPOS>ATOM
      1 C          12.7745   41.9655    7.2062 C.ar    1  UNL1        0.0898
      2 C          14.7378   41.1359    8.5032 C.ar    1  UNL1        0.0096
      3 C          15.0610   42.1699    7.6277 C.ar    1  UNL1       -0.0081
      4 C          16.4372   42.7387    7.5101 C.3     1  UNL1        0.0320
      5 C          13.9565   42.6453    6.8985 C.ar    1  UNL1        0.0843
      6 S          13.0876   40.8267    8.4010 S.2     1  UNL1       -0.0759
      7 C          10.2902   41.4705    6.9943 C.2     1  UNL1        0.2303
      8 N          11.4593   42.2445    6.7115 N.am    1  UNL1       -0.2783
      9 O          10.2758   40.6475    7.9479 O.2     1  UNL1       -0.2746
     10 H          11.3516   43.0319    6.1304 H       1  UNL1        0.1553
     11 C           9.0451   41.7090    6.2123 C.3     1  UNL1        0.1326
     12 C           7.8357   41.1345    6.9383 C.3     1  UNL1        0.2150
     13 O           7.3176   42.0671    7.8842 O.3     1  UNL1       -0.4749
     14 C           6.5373   41.6973    8.9855 C.ar    1  UNL1        0.1386
     15 C           5.2303   41.2476    8.7678 C.ar    1  UNL1        0.0369
     16 C           4.4250   40.8686    9.8460 C.ar    1  UNL1        0.0031
     17 C           4.9242   40.9361   11.1497 C.ar    1  UNL1        0.0002
     18 C           6.2293   41.3821   11.3759 C.ar    1  UNL1        0.0031
     19 C           7.0344   41.7611   10.2979 C.ar    1  UNL1        0.0369
     20 C          14.0299   43.7901    6.0245 C.1     1  UNL1        0.1019
     21 N          14.0913   44.7083    5.3228 N.1     1  UNL1       -0.1908
     22 C          15.6672   40.4714    9.4662 C.3     1  UNL1        0.0590
     23 C          15.1023   39.1702    9.9255 C.ar    1  UNL1       -0.0141
     24 C          14.6618   39.0256   11.2608 C.ar    1  UNL1       -0.0006
     25 C          14.1056   37.8114   11.7025 C.ar    1  UNL1        0.0399
     26 C          14.0073   36.7760   10.7767 C.ar    1  UNL1        0.1764
     27 C          14.4259   36.9139    9.4926 C.ar    1  UNL1        0.1761
     28 C          13.6116   34.7980    9.7173 C.3     1  UNL1        0.4294
     29 C          14.9809   38.0996    9.0187 C.ar    1  UNL1        0.0363
     30 O          14.2051   35.7356    8.8079 O.3     1  UNL1       -0.4346
     31 O          13.5038   35.5039   10.9617 O.3     1  UNL1       -0.4346
@<TRIPOS>BOND
     1     1     8    1
     2     1     6   ar
     3    11     7    1
     4    11    12    1
     5    12    13    1
     6    14    13    1
     7    15    16   ar
     8    17    18   ar
     9    19    14   ar
    10     2     6   ar
    11     3     5   ar
    12     4     3    1
    13     5    20    1
    14    22     2    1
    15    22    23    1
    16    24    25   ar
    17    26    27   ar
    18    26    31    1
    19    27    30    1
    20    28    30    1
    21    28    31    1
    22    29    23   ar
    23     8     7   am
    24     7     9    2
    25    14    15   ar
    26    16    17   ar
    27    18    19   ar
    28     2     3   ar
    29     5     1   ar
    30    23    24   ar
    31    25    26   ar
    32    27    29   ar
    33    20    21    3
    34     8    10    1
@<TRIPOS>MOLECULE
MolPort-003-020-522 9390687 CSSS03437190948 LN01391664 MCULE-6427518754 PubChem-4550575 ZINC000009390687
 31 34 0 0 0
SMALL
GASTEIGER

@<TRIPOS>ATOM
      1 C          11.2097   41.5301    9.3166 C.ar    1  UNL1        0.0898
      2 C          12.9132   40.0612   10.3959 C.ar    1  UNL1        0.0096
      3 C          13.4176   40.7735    9.3104 C.ar    1  UNL1       -0.0081
      4 C          14.8415   40.6854    8.8677 C.3     1  UNL1        0.0320
      5 C          12.4628   41.6077    8.7021 C.ar    1  UNL1        0.0843
      6 S          11.3005   40.4802   10.6249 S.2     1  UNL1       -0.0759
      7 C           9.6659   43.5231    9.6431 C.2     1  UNL1        0.2303
      8 N          10.0417   42.2992    9.0053 N.am    1  UNL1       -0.2783
      9 O          10.4970   44.1754   10.3293 O.2     1  UNL1       -0.2746
     10 H           9.4506   41.9581    8.2958 H       1  UNL1        0.1553
     11 C           8.3038   44.0813    9.4153 C.3     1  UNL1        0.1326
     12 C           7.4737   43.1390    8.5535 C.3     1  UNL1        0.2150
     13 O           6.0808   43.3127    8.8030 O.3     1  UNL1       -0.4749
     14 C           5.3017   42.3896    9.5098 C.ar    1  UNL1        0.1386
     15 C           5.8761   41.7029   10.5851 C.ar    1  UNL1        0.0369
     16 C           5.1247   40.7756   11.3133 C.ar    1  UNL1        0.0031
     17 C           3.7922   40.5311   10.9700 C.ar    1  UNL1        0.0002
     18 C           3.2100   41.2142    9.8987 C.ar    1  UNL1        0.0031
     19 C           3.9612   42.1413    9.1706 C.ar    1  UNL1        0.0369
     20 C          12.7899   42.5268    7.6399 C.1     1  UNL1        0.1019
     21 N          13.0520   43.2663    6.7891 N.1     1  UNL1       -0.1908
     22 C          13.6893   39.1531   11.2935 C.3     1  UNL1        0.0590
     23 C          13.7841   37.7880   10.7014 C.ar    1  UNL1       -0.0141
     24 C          12.6410   36.9575   10.6592 C.ar    1  UNL1       -0.0006
     25 C          12.7095   35.6760   10.0831 C.ar    1  UNL1        0.0399
     26 C          13.9354   35.2714    9.5613 C.ar    1  UNL1        0.1764
     27 C          15.0334   36.0689    9.5970 C.ar    1  UNL1        0.1761
     28 C          15.6404   34.1236    8.5781 C.3     1  UNL1        0.4294
     29 C          15.0047   37.3428   10.1582 C.ar    1  UNL1        0.0363
     30 O          16.0970   35.4134    9.0095 O.3     1  UNL1       -0.4346
     31 O          14.2556   34.0755    8.9503 O.3     1  UNL1       -0.4346
@<TRIPOS>BOND
     1     1     8    1
     2     1     6   ar
     3    11     7    1
     4    11    12    1
     5    12    13    1
     6    14    13    1
     7    15    16   ar
     8    17    18   ar
     9    19    14   ar
    10     2     6   ar
    11     3     5   ar
    12     4     3    1
    13     5    20    1
    14    22     2    1
    15    22    23    1
    16    24    25   ar
    17    26    27   ar
    18    26    31    1
    19    27    30    1
    20    28    30    1
    21    28    31    1
    22    29    23   ar
    23     8     7   am
    24     7     9    2
    25    14    15   ar
    26    16    17   ar
    27    18    19   ar
    28     2     3   ar
    29     5     1   ar
    30    23    24   ar
    31    25    26   ar
    32    27    29   ar
    33    20    21    3
    34     8    10    1
