@<TRIPOS>MOLECULE
MolPort-000-056-093 1324433 CHEMBL1507270 MCULE-1520687221 PubChem-655444 ZINC000001324433 ZINC01324433
 34 37 0 0 0
SMALL
GASTEIGER

@<TRIPOS>ATOM
      1 C           8.2909   41.1169    8.7035 C.ar    1  UNL1        0.1535
      2 C           7.0488   41.3283    9.3217 C.ar    1  UNL1        0.0559
      3 C           6.9522   41.5384   10.6991 C.ar    1  UNL1        0.0881
      4 C           8.1239   41.5730   11.4808 C.ar    1  UNL1        0.1535
      5 C           9.3657   41.3624   10.8631 C.ar    1  UNL1        0.0559
      6 C           9.4632   41.1535    9.4853 C.ar    1  UNL1        0.0879
      7 C           4.5109   42.2897   10.5763 C.2     1  UNL1        0.2556
      8 O           3.3619   41.9386   10.9521 O.2     1  UNL1       -0.2693
      9 N           5.6530   41.7612   11.2634 N.am    1  UNL1       -0.2775
     10 H           5.5338   41.5292   12.2127 H       1  UNL1        0.1553
     11 C           4.6399   43.2775    9.4890 C.ar    1  UNL1        0.0831
     12 C           3.6107   43.7819    8.7072 C.ar    1  UNL1        0.0116
     13 C           4.0567   44.6864    7.7330 C.ar    1  UNL1        0.0076
     14 C           5.4335   44.8966    7.7297 C.ar    1  UNL1        0.0356
     15 S           6.0829   43.9424    8.9527 S.2     1  UNL1       -0.0819
     16 C          11.7032   41.9555    8.5789 C.2     1  UNL1        0.2282
     17 O          11.5613   43.1331    9.0041 O.2     1  UNL1       -0.2747
     18 N          10.7637   40.9324    8.9247 N.am    1  UNL1       -0.2814
     19 H          11.0332   39.9992    8.7640 H       1  UNL1        0.1549
     20 C          12.9099   41.6033    7.7845 C.3     1  UNL1        0.1117
     21 C          12.8332   42.2543    6.4154 C.3     1  UNL1        0.1388
     22 C          15.7937   44.2914    6.3799 C.ar    1  UNL1        0.1217
     23 C          17.1053   44.5590    6.7586 C.ar    1  UNL1        0.0225
     24 C          17.7262   43.6273    7.6147 C.ar    1  UNL1        0.0017
     25 C          17.0300   42.4767    8.0577 C.ar    1  UNL1        0.0016
     26 C          15.7019   42.2395    7.6520 C.ar    1  UNL1        0.0204
     27 C          15.1267   43.1854    6.8071 C.ar    1  UNL1        0.0988
     28 N          13.9030   43.2287    6.2669 N.ar    1  UNL1       -0.2312
     29 N          13.8362   44.3312    5.5269 N.ar    1  UNL1       -0.0638
     30 N          14.9839   45.0077    5.5780 N.ar    1  UNL1       -0.1288
     31 C           7.6870   39.7471    6.7289 C.3     1  UNL1        0.2525
     32 O           8.3676   40.8382    7.3342 O.3     1  UNL1       -0.4701
     33 C           9.0169   41.3877   13.7849 C.3     1  UNL1        0.2525
     34 O           8.0437   41.8389   12.8528 O.3     1  UNL1       -0.4701
@<TRIPOS>BOND
     1    31    32    1
     2     1    32    1
     3     2     3   ar
     4     3     9    1
     5     7    11    1
     6    11    15   ar
     7    12    13   ar
     8    14    15   ar
     9     4    34    1
    10     4     5   ar
    11    33    34    1
    12     6    18    1
    13     6     1   ar
    14    20    16    1
    15    20    21    1
    16    21    28    1
    17    22    30   ar
    18    23    24   ar
    19    25    26   ar
    20    27    28   ar
    21    27    22   ar
    22     9     7   am
    23    18    16   am
    24    28    29   ar
    25     1     2   ar
    26     3     4   ar
    27     7     8    2
    28    11    12   ar
    29    13    14   ar
    30     5     6   ar
    31    16    17    2
    32    22    23   ar
    33    24    25   ar
    34    26    27   ar
    35    29    30   ar
    36     9    10    1
    37    18    19    1
@<TRIPOS>MOLECULE
MolPort-000-056-093 1324433 CHEMBL1507270 MCULE-1520687221 PubChem-655444 ZINC000001324433 ZINC01324433
 34 37 0 0 0
SMALL
GASTEIGER

@<TRIPOS>ATOM
      1 C          12.2360   41.4799    7.9627 C.ar    1  UNL1        0.1535
      2 C          13.5383   40.9572    7.9835 C.ar    1  UNL1        0.0559
      3 C          14.0718   40.3890    9.1425 C.ar    1  UNL1        0.0881
      4 C          13.2794   40.3068   10.3046 C.ar    1  UNL1        0.1535
      5 C          11.9774   40.8286   10.2839 C.ar    1  UNL1        0.0559
      6 C          11.4426   41.3958    9.1247 C.ar    1  UNL1        0.0879
      7 C          16.6183   40.6230    9.1403 C.2     1  UNL1        0.2556
      8 O          17.6476   40.0898    9.6313 O.2     1  UNL1       -0.2693
      9 N          15.4042   39.8619    9.0900 N.am    1  UNL1       -0.2775
     10 H          15.4940   38.8846    9.0120 H       1  UNL1        0.1553
     11 C          16.7131   41.9828    8.5780 C.ar    1  UNL1        0.0831
     12 C          17.4676   43.0325    9.0819 C.ar    1  UNL1        0.0116
     13 C          17.3259   44.2136    8.3396 C.ar    1  UNL1        0.0076
     14 C          16.4574   44.1119    7.2556 C.ar    1  UNL1        0.0356
     15 S          15.8714   42.5357    7.2370 S.2     1  UNL1       -0.0819
     16 C           9.7449   43.2050    9.6965 C.2     1  UNL1        0.2282
     17 O          10.6161   44.0944    9.8909 O.2     1  UNL1       -0.2747
     18 N          10.1100   41.9207    9.1807 N.am    1  UNL1       -0.2814
     19 H           9.3855   41.3503    8.8356 H       1  UNL1        0.1549
     20 C           8.3095   43.5238    9.9187 C.3     1  UNL1        0.1117
     21 C           7.6799   43.9960    8.6208 C.3     1  UNL1        0.1388
     22 C           4.1982   43.2401    9.0911 C.ar    1  UNL1        0.1217
     23 C           3.1681   42.4021    9.5061 C.ar    1  UNL1        0.0225
     24 C           3.5377   41.1500   10.0374 C.ar    1  UNL1        0.0017
     25 C           4.9009   40.7805   10.1366 C.ar    1  UNL1        0.0016
     26 C           5.9164   41.6570    9.7060 C.ar    1  UNL1        0.0204
     27 C           5.5072   42.8829    9.1872 C.ar    1  UNL1        0.0988
     28 N           6.2310   43.9011    8.7070 N.ar    1  UNL1       -0.2312
     29 N           5.3787   44.8518    8.3363 N.ar    1  UNL1       -0.0638
     30 N           4.1196   44.4737    8.5582 N.ar    1  UNL1       -0.1288
     31 C          10.8244   41.4824    5.9262 C.3     1  UNL1        0.2525
     32 O          11.7385   42.1091    6.8159 O.3     1  UNL1       -0.4701
     33 C          13.8371   38.2775   11.6128 C.3     1  UNL1        0.2525
     34 O          13.7838   39.6887   11.4548 O.3     1  UNL1       -0.4701
@<TRIPOS>BOND
     1    31    32    1
     2     1    32    1
     3     2     3   ar
     4     3     9    1
     5     7    11    1
     6    11    15   ar
     7    12    13   ar
     8    14    15   ar
     9     4    34    1
    10     4     5   ar
    11    33    34    1
    12     6    18    1
    13     6     1   ar
    14    20    16    1
    15    20    21    1
    16    21    28    1
    17    22    30   ar
    18    23    24   ar
    19    25    26   ar
    20    27    28   ar
    21    27    22   ar
    22     9     7   am
    23    18    16   am
    24    28    29   ar
    25     1     2   ar
    26     3     4   ar
    27     7     8    2
    28    11    12   ar
    29    13    14   ar
    30     5     6   ar
    31    16    17    2
    32    22    23   ar
    33    24    25   ar
    34    26    27   ar
    35    29    30   ar
    36     9    10    1
    37    18    19    1
@<TRIPOS>MOLECULE
MolPort-000-056-093 1324433 CHEMBL1507270 MCULE-1520687221 PubChem-655444 ZINC000001324433 ZINC01324433
 34 37 0 0 0
SMALL
GASTEIGER

@<TRIPOS>ATOM
      1 C           8.0261   41.0225    6.1823 C.ar    1  UNL1        0.1535
      2 C           6.8697   41.8026    6.3368 C.ar    1  UNL1        0.0559
      3 C           6.8180   42.8443    7.2657 C.ar    1  UNL1        0.0881
      4 C           7.9567   43.1422    8.0401 C.ar    1  UNL1        0.1535
      5 C           9.1130   42.3631    7.8855 C.ar    1  UNL1        0.0559
      6 C           9.1659   41.3219    6.9556 C.ar    1  UNL1        0.0879
      7 C           4.7101   43.6350    8.4787 C.2     1  UNL1        0.2556
      8 O           4.0439   44.6806    8.6964 O.2     1  UNL1       -0.2693
      9 N           5.6094   43.6097    7.3622 N.am    1  UNL1       -0.2775
     10 H           5.3747   44.1713    6.5884 H       1  UNL1        0.1553
     11 C           4.4959   42.4555    9.3375 C.ar    1  UNL1        0.0831
     12 C           3.4067   41.5969    9.3020 C.ar    1  UNL1        0.0116
     13 C           3.4782   40.5825   10.2675 C.ar    1  UNL1        0.0076
     14 C           4.6116   40.6351   11.0752 C.ar    1  UNL1        0.0356
     15 S           5.5181   41.9587   10.5706 S.2     1  UNL1       -0.0819
     16 C          11.1819   40.1414    7.9679 C.2     1  UNL1        0.2282
     17 O          10.7325   40.1787    9.1445 O.2     1  UNL1       -0.2747
     18 N          10.3761   40.5597    6.8612 N.am    1  UNL1       -0.2814
     19 H          10.6784   40.3024    5.9602 H       1  UNL1        0.1549
     20 C          12.5316   39.5702    7.7163 C.3     1  UNL1        0.1117
     21 C          13.5783   40.3713    8.4691 C.3     1  UNL1        0.1388
     22 C          15.1483   43.1175    6.7637 C.ar    1  UNL1        0.1217
     23 C          16.2318   43.9564    6.5233 C.ar    1  UNL1        0.0225
     24 C          17.3957   43.7315    7.2856 C.ar    1  UNL1        0.0017
     25 C          17.4408   42.6932    8.2472 C.ar    1  UNL1        0.0016
     26 C          16.3228   41.8633    8.4620 C.ar    1  UNL1        0.0204
     27 C          15.1939   42.1207    7.6882 C.ar    1  UNL1        0.0988
     28 N          14.0029   41.5104    7.6704 N.ar    1  UNL1       -0.2312
     29 N          13.2596   42.1208    6.7525 N.ar    1  UNL1       -0.0638
     30 N          13.9361   43.1158    6.1784 N.ar    1  UNL1       -0.1288
     31 C           9.1364   39.0368    5.2002 C.3     1  UNL1        0.2525
     32 O           8.0416   39.9378    5.2982 O.3     1  UNL1       -0.4701
     33 C           8.7658   44.2855   10.0843 C.3     1  UNL1        0.2525
     34 O           7.9347   44.2195    8.9336 O.3     1  UNL1       -0.4701
@<TRIPOS>BOND
     1    31    32    1
     2     1    32    1
     3     2     3   ar
     4     3     9    1
     5     7    11    1
     6    11    15   ar
     7    12    13   ar
     8    14    15   ar
     9     4    34    1
    10     4     5   ar
    11    33    34    1
    12     6    18    1
    13     6     1   ar
    14    20    16    1
    15    20    21    1
    16    21    28    1
    17    22    30   ar
    18    23    24   ar
    19    25    26   ar
    20    27    28   ar
    21    27    22   ar
    22     9     7   am
    23    18    16   am
    24    28    29   ar
    25     1     2   ar
    26     3     4   ar
    27     7     8    2
    28    11    12   ar
    29    13    14   ar
    30     5     6   ar
    31    16    17    2
    32    22    23   ar
    33    24    25   ar
    34    26    27   ar
    35    29    30   ar
    36     9    10    1
    37    18    19    1
@<TRIPOS>MOLECULE
MolPort-000-056-093 1324433 CHEMBL1507270 MCULE-1520687221 PubChem-655444 ZINC000001324433 ZINC01324433
 34 37 0 0 0
SMALL
GASTEIGER

@<TRIPOS>ATOM
      1 C          12.3279   41.3852    8.3328 C.ar    1  UNL1        0.1535
      2 C          13.6547   40.9400    8.2262 C.ar    1  UNL1        0.0559
      3 C          14.2980   40.3183    9.2986 C.ar    1  UNL1        0.0881
      4 C          13.5946   40.1019   10.5002 C.ar    1  UNL1        0.1535
      5 C          12.2683   40.5461   10.6068 C.ar    1  UNL1        0.0559
      6 C          11.6238   41.1669    9.5341 C.ar    1  UNL1        0.0879
      7 C          16.8053   40.7154    8.9907 C.2     1  UNL1        0.2556
      8 O          17.9181   40.2771    9.3836 O.2     1  UNL1       -0.2693
      9 N          15.6497   39.8761    9.1168 N.am    1  UNL1       -0.2775
     10 H          15.7985   38.9038    9.0744 H       1  UNL1        0.1553
     11 C          16.7406   42.0461    8.3586 C.ar    1  UNL1        0.0831
     12 C          15.7379   42.5128    7.5209 C.ar    1  UNL1        0.0116
     13 C          15.9765   43.8134    7.0542 C.ar    1  UNL1        0.0076
     14 C          17.1656   44.3791    7.5079 C.ar    1  UNL1        0.0356
     15 S          17.9114   43.2391    8.4939 S.2     1  UNL1       -0.0819
     16 C           9.8775   42.8538   10.3002 C.2     1  UNL1        0.2282
     17 O          10.7075   43.7909   10.4435 O.2     1  UNL1       -0.2747
     18 N          10.2721   41.6065    9.7192 N.am    1  UNL1       -0.2814
     19 H           9.5556   41.0002    9.4221 H       1  UNL1        0.1549
     20 C           8.4505   43.0777   10.6540 C.3     1  UNL1        0.1117
     21 C           7.7828   41.7506   10.9652 C.3     1  UNL1        0.1388
     22 C           4.6660   41.3613    9.2190 C.ar    1  UNL1        0.1217
     23 C           3.2755   41.3590    9.1731 C.ar    1  UNL1        0.0225
     24 C           2.5958   41.6290   10.3779 C.ar    1  UNL1        0.0017
     25 C           3.3135   41.8890   11.5704 C.ar    1  UNL1        0.0016
     26 C           4.7223   41.8830   11.5773 C.ar    1  UNL1        0.0204
     27 C           5.3534   41.6111   10.3660 C.ar    1  UNL1        0.0988
     28 N           6.6565   41.5378   10.0696 N.ar    1  UNL1       -0.2312
     29 N           6.7520   41.2569    8.7737 N.ar    1  UNL1       -0.0638
     30 N           5.5437   41.1399    8.2227 N.ar    1  UNL1       -0.1288
     31 C          11.1092   41.4053    6.1753 C.3     1  UNL1        0.2525
     32 O          11.7181   42.0689    7.2748 O.3     1  UNL1       -0.4701
     33 C          14.1941   38.0146   11.6937 C.3     1  UNL1        0.2525
     34 O          14.2111   39.4294   11.5619 O.3     1  UNL1       -0.4701
@<TRIPOS>BOND
     1    31    32    1
     2     1    32    1
     3     2     3   ar
     4     3     9    1
     5     7    11    1
     6    11    15   ar
     7    12    13   ar
     8    14    15   ar
     9     4    34    1
    10     4     5   ar
    11    33    34    1
    12     6    18    1
    13     6     1   ar
    14    20    16    1
    15    20    21    1
    16    21    28    1
    17    22    30   ar
    18    23    24   ar
    19    25    26   ar
    20    27    28   ar
    21    27    22   ar
    22     9     7   am
    23    18    16   am
    24    28    29   ar
    25     1     2   ar
    26     3     4   ar
    27     7     8    2
    28    11    12   ar
    29    13    14   ar
    30     5     6   ar
    31    16    17    2
    32    22    23   ar
    33    24    25   ar
    34    26    27   ar
    35    29    30   ar
    36     9    10    1
    37    18    19    1
@<TRIPOS>MOLECULE
MolPort-000-056-093 1324433 CHEMBL1507270 MCULE-1520687221 PubChem-655444 ZINC000001324433 ZINC01324433
 34 37 0 0 0
SMALL
GASTEIGER

@<TRIPOS>ATOM
      1 C          11.5408   40.8637   10.3605 C.ar    1  UNL1        0.1535
      2 C          12.7882   40.2485   10.5489 C.ar    1  UNL1        0.0559
      3 C          13.8284   40.4261    9.6340 C.ar    1  UNL1        0.0881
      4 C          13.6368   41.2645    8.5179 C.ar    1  UNL1        0.1535
      5 C          12.3903   41.8800    8.3297 C.ar    1  UNL1        0.0559
      6 C          11.3499   41.7039    9.2451 C.ar    1  UNL1        0.0879
      7 C          15.3668   38.3851    9.7182 C.2     1  UNL1        0.2556
      8 O          16.5444   38.0388    9.4392 O.2     1  UNL1       -0.2693
      9 N          15.0810   39.7791    9.8947 N.am    1  UNL1       -0.2775
     10 H          15.8146   40.3457   10.2265 H       1  UNL1        0.1553
     11 C          14.3404   37.3450    9.9160 C.ar    1  UNL1        0.0831
     12 C          13.2941   37.3819   10.8264 C.ar    1  UNL1        0.0116
     13 C          12.5015   36.2256   10.7959 C.ar    1  UNL1        0.0076
     14 C          12.9163   35.2672    9.8745 C.ar    1  UNL1        0.0356
     15 S          14.2794   35.8795    9.1030 S.2     1  UNL1       -0.0819
     16 C           9.6919   43.6169    9.5164 C.2     1  UNL1        0.2282
     17 O          10.5294   44.3932   10.0492 O.2     1  UNL1       -0.2747
     18 N          10.0995   42.3533    8.9817 N.am    1  UNL1       -0.2814
     19 H           9.4685   41.8918    8.3832 H       1  UNL1        0.1549
     20 C           8.2805   44.0577    9.3588 C.3     1  UNL1        0.1117
     21 C           7.4828   42.9842    8.6411 C.3     1  UNL1        0.1388
     22 C           4.0876   42.8462    9.8110 C.ar    1  UNL1        0.1217
     23 C           3.0750   42.2806   10.5793 C.ar    1  UNL1        0.0225
     24 C           3.4145   41.1534   11.3543 C.ar    1  UNL1        0.0017
     25 C           4.7321   40.6355   11.3387 C.ar    1  UNL1        0.0016
     26 C           5.7313   41.2362   10.5478 C.ar    1  UNL1        0.0204
     27 C           5.3528   42.3466    9.7974 C.ar    1  UNL1        0.0988
     28 N           6.0708   43.1118    8.9666 N.ar    1  UNL1       -0.2312
     29 N           5.2593   44.0536    8.4957 N.ar    1  UNL1       -0.0638
     30 N           4.0309   43.9155    8.9953 N.ar    1  UNL1       -0.1288
     31 C          10.2401   41.4253   12.3935 C.3     1  UNL1        0.2525
     32 O          10.4854   40.6217   11.2472 O.3     1  UNL1       -0.4701
     33 C          15.4756   42.6786    7.6463 C.3     1  UNL1        0.2525
     34 O          14.6900   41.4946    7.6250 O.3     1  UNL1       -0.4701
@<TRIPOS>BOND
     1    31    32    1
     2     1    32    1
     3     2     3   ar
     4     3     9    1
     5     7    11    1
     6    11    15   ar
     7    12    13   ar
     8    14    15   ar
     9     4    34    1
    10     4     5   ar
    11    33    34    1
    12     6    18    1
    13     6     1   ar
    14    20    16    1
    15    20    21    1
    16    21    28    1
    17    22    30   ar
    18    23    24   ar
    19    25    26   ar
    20    27    28   ar
    21    27    22   ar
    22     9     7   am
    23    18    16   am
    24    28    29   ar
    25     1     2   ar
    26     3     4   ar
    27     7     8    2
    28    11    12   ar
    29    13    14   ar
    30     5     6   ar
    31    16    17    2
    32    22    23   ar
    33    24    25   ar
    34    26    27   ar
    35    29    30   ar
    36     9    10    1
    37    18    19    1
@<TRIPOS>MOLECULE
MolPort-000-056-093 1324433 CHEMBL1507270 MCULE-1520687221 PubChem-655444 ZINC000001324433 ZINC01324433
 34 37 0 0 0
SMALL
GASTEIGER

@<TRIPOS>ATOM
      1 C          12.1530   41.0123    8.6148 C.ar    1  UNL1        0.1535
      2 C          13.4980   40.6463    8.4505 C.ar    1  UNL1        0.0559
      3 C          14.2272   40.0802    9.4985 C.ar    1  UNL1        0.0881
      4 C          13.5952   39.8395   10.7346 C.ar    1  UNL1        0.1535
      5 C          12.2508   40.2046   10.8988 C.ar    1  UNL1        0.0559
      6 C          11.5204   40.7697    9.8507 C.ar    1  UNL1        0.0879
      7 C          16.6892   40.6230    9.0699 C.2     1  UNL1        0.2556
      8 O          17.8433   40.2571    9.4144 O.2     1  UNL1       -0.2693
      9 N          15.5934   39.7175    9.2579 N.am    1  UNL1       -0.2775
     10 H          15.7986   38.7555    9.2180 H       1  UNL1        0.1553
     11 C          16.5151   41.9395    8.4287 C.ar    1  UNL1        0.0831
     12 C          15.5167   42.2945    7.5331 C.ar    1  UNL1        0.0116
     13 C          15.6374   43.6141    7.0745 C.ar    1  UNL1        0.0076
     14 C          16.7295   44.3061    7.5923 C.ar    1  UNL1        0.0356
     15 S          17.5384   43.2535    8.6245 S.2     1  UNL1       -0.0819
     16 C           9.7077   42.3876   10.6116 C.2     1  UNL1        0.2282
     17 O          10.4753   43.3866   10.6327 O.2     1  UNL1       -0.2747
     18 N          10.1546   41.1298   10.0946 N.am    1  UNL1       -0.2814
     19 H           9.4666   40.4561    9.8895 H       1  UNL1        0.1549
     20 C           8.2930   42.5406   11.0435 C.3     1  UNL1        0.1117
     21 C           7.4163   41.5531   10.2951 C.3     1  UNL1        0.1388
     22 C           4.3389   43.1932    9.4261 C.ar    1  UNL1        0.1217
     23 C           3.5919   44.0698    8.6457 C.ar    1  UNL1        0.0225
     24 C           4.2748   44.7518    7.6186 C.ar    1  UNL1        0.0017
     25 C           5.6586   44.5402    7.4060 C.ar    1  UNL1        0.0016
     26 C           6.3816   43.6435    8.2172 C.ar    1  UNL1        0.0204
     27 C           5.6684   42.9917    9.2201 C.ar    1  UNL1        0.0988
     28 N           6.0787   42.1004   10.1303 N.ar    1  UNL1       -0.2312
     29 N           5.0204   41.7679   10.8631 N.ar    1  UNL1       -0.0638
     30 N           3.9348   42.4256   10.4554 N.ar    1  UNL1       -0.1288
     31 C          10.2413   41.1311    7.0428 C.3     1  UNL1        0.2525
     32 O          11.4541   41.6425    7.5790 O.3     1  UNL1       -0.4701
     33 C          14.5797   37.8278   11.7951 C.3     1  UNL1        0.2525
     34 O          14.3003   39.2210   11.7737 O.3     1  UNL1       -0.4701
@<TRIPOS>BOND
     1    31    32    1
     2     1    32    1
     3     2     3   ar
     4     3     9    1
     5     7    11    1
     6    11    15   ar
     7    12    13   ar
     8    14    15   ar
     9     4    34    1
    10     4     5   ar
    11    33    34    1
    12     6    18    1
    13     6     1   ar
    14    20    16    1
    15    20    21    1
    16    21    28    1
    17    22    30   ar
    18    23    24   ar
    19    25    26   ar
    20    27    28   ar
    21    27    22   ar
    22     9     7   am
    23    18    16   am
    24    28    29   ar
    25     1     2   ar
    26     3     4   ar
    27     7     8    2
    28    11    12   ar
    29    13    14   ar
    30     5     6   ar
    31    16    17    2
    32    22    23   ar
    33    24    25   ar
    34    26    27   ar
    35    29    30   ar
    36     9    10    1
    37    18    19    1
@<TRIPOS>MOLECULE
MolPort-000-056-093 1324433 CHEMBL1507270 MCULE-1520687221 PubChem-655444 ZINC000001324433 ZINC01324433
 34 37 0 0 0
SMALL
GASTEIGER

@<TRIPOS>ATOM
      1 C           9.0996   41.5379    9.9843 C.ar    1  UNL1        0.1535
      2 C           7.7624   41.6090   10.4046 C.ar    1  UNL1        0.0559
      3 C           6.7163   41.2398    9.5561 C.ar    1  UNL1        0.0881
      4 C           7.0065   40.7546    8.2655 C.ar    1  UNL1        0.1535
      5 C           8.3429   40.6828    7.8453 C.ar    1  UNL1        0.0559
      6 C           9.3898   41.0507    8.6939 C.ar    1  UNL1        0.0879
      7 C           4.2956   42.0585    9.4604 C.2     1  UNL1        0.2556
      8 O           3.1183   41.6443    9.6249 O.2     1  UNL1       -0.2693
      9 N           5.3746   41.3244   10.0544 N.am    1  UNL1       -0.2775
     10 H           5.1752   40.8318   10.8832 H       1  UNL1        0.1553
     11 C           4.5179   43.3141    8.7198 C.ar    1  UNL1        0.0831
     12 C           3.5514   44.2441    8.3651 C.ar    1  UNL1        0.0116
     13 C           4.0719   45.3232    7.6366 C.ar    1  UNL1        0.0076
     14 C           5.4430   45.2520    7.4025 C.ar    1  UNL1        0.0356
     15 S           5.9934   43.8307    8.1130 S.2     1  UNL1       -0.0819
     16 C          11.5542   39.7939    8.2268 C.2     1  UNL1        0.2282
     17 O          11.0563   38.6593    8.4561 O.2     1  UNL1       -0.2747
     18 N          10.7299   40.9636    8.1926 N.am    1  UNL1       -0.2814
     19 H          11.1154   41.7758    7.7915 H       1  UNL1        0.1549
     20 C          12.9998   39.9070    7.8970 C.3     1  UNL1        0.1117
     21 C          13.5925   41.1209    8.5893 C.3     1  UNL1        0.1388
     22 C          15.2715   43.3993    6.3746 C.ar    1  UNL1        0.1217
     23 C          16.4102   44.0588    5.9229 C.ar    1  UNL1        0.0225
     24 C          17.6142   43.7970    6.6072 C.ar    1  UNL1        0.0017
     25 C          17.6432   42.8996    7.7020 C.ar    1  UNL1        0.0016
     26 C          16.4688   42.2499    8.1302 C.ar    1  UNL1        0.0204
     27 C          15.3018   42.5377    7.4269 C.ar    1  UNL1        0.0988
     28 N          14.0555   42.0815    7.6000 N.ar    1  UNL1       -0.2312
     29 N          13.2938   42.6497    6.6703 N.ar    1  UNL1       -0.0638
     30 N          14.0130   43.4680    5.9018 N.ar    1  UNL1       -0.1288
     31 C          10.5956   41.2279   11.9352 C.3     1  UNL1        0.2525
     32 O          10.1336   41.9768   10.8190 O.3     1  UNL1       -0.4701
     33 C           6.1988   39.7070    6.1701 C.3     1  UNL1        0.2525
     34 O           5.9695   40.3286    7.4272 O.3     1  UNL1       -0.4701
@<TRIPOS>BOND
     1    31    32    1
     2     1    32    1
     3     2     3   ar
     4     3     9    1
     5     7    11    1
     6    11    15   ar
     7    12    13   ar
     8    14    15   ar
     9     4    34    1
    10     4     5   ar
    11    33    34    1
    12     6    18    1
    13     6     1   ar
    14    20    16    1
    15    20    21    1
    16    21    28    1
    17    22    30   ar
    18    23    24   ar
    19    25    26   ar
    20    27    28   ar
    21    27    22   ar
    22     9     7   am
    23    18    16   am
    24    28    29   ar
    25     1     2   ar
    26     3     4   ar
    27     7     8    2
    28    11    12   ar
    29    13    14   ar
    30     5     6   ar
    31    16    17    2
    32    22    23   ar
    33    24    25   ar
    34    26    27   ar
    35    29    30   ar
    36     9    10    1
    37    18    19    1
@<TRIPOS>MOLECULE
MolPort-000-056-093 1324433 CHEMBL1507270 MCULE-1520687221 PubChem-655444 ZINC000001324433 ZINC01324433
 34 37 0 0 0
SMALL
GASTEIGER

@<TRIPOS>ATOM
      1 C           8.8462   41.2499    9.1155 C.ar    1  UNL1        0.1535
      2 C           7.5326   41.3504    9.5991 C.ar    1  UNL1        0.0559
      3 C           7.2723   41.4847   10.9647 C.ar    1  UNL1        0.0881
      4 C           8.3468   41.5548   11.8735 C.ar    1  UNL1        0.1535
      5 C           9.6599   41.4551   11.3903 C.ar    1  UNL1        0.0559
      6 C           9.9211   41.3221   10.0244 C.ar    1  UNL1        0.0879
      7 C           4.8071   42.0528   10.5909 C.2     1  UNL1        0.2556
      8 O           3.6553   41.6074   10.8351 O.2     1  UNL1       -0.2693
      9 N           5.9071   41.5956   11.3889 N.am    1  UNL1       -0.2775
     10 H           5.7060   41.3329   12.3161 H       1  UNL1        0.1553
     11 C           4.9742   43.0730    9.5394 C.ar    1  UNL1        0.0831
     12 C           4.0052   43.4983    8.6422 C.ar    1  UNL1        0.0116
     13 C           4.4796   44.4622    7.7410 C.ar    1  UNL1        0.0076
     14 C           5.8205   44.7983    7.9103 C.ar    1  UNL1        0.0356
     15 S           6.4028   43.8801    9.1932 S.2     1  UNL1       -0.0819
     16 C          12.2039   40.1947   10.0187 C.2     1  UNL1        0.2282
     17 O          11.7921   39.1442   10.5796 O.2     1  UNL1       -0.2747
     18 N          11.2871   41.2127    9.6040 N.am    1  UNL1       -0.2814
     19 H          11.6226   41.8945    8.9780 H       1  UNL1        0.1549
     20 C          13.6496   40.3378    9.7010 C.3     1  UNL1        0.1117
     21 C          13.8230   40.6736    8.2309 C.3     1  UNL1        0.1388
     22 C          16.3735   43.0803    7.4447 C.ar    1  UNL1        0.1217
     23 C          16.8230   44.2271    6.7978 C.ar    1  UNL1        0.0225
     24 C          15.8979   44.9011    5.9753 C.ar    1  UNL1        0.0017
     25 C          14.5754   44.4175    5.8274 C.ar    1  UNL1        0.0016
     26 C          14.1568   43.2523    6.4995 C.ar    1  UNL1        0.0204
     27 C          15.1024   42.6175    7.3009 C.ar    1  UNL1        0.0988
     28 N          14.9980   41.5112    8.0468 N.ar    1  UNL1       -0.2312
     29 N          16.1760   41.3156    8.6311 N.ar    1  UNL1       -0.0638
     30 N          17.0444   42.2638    8.2784 N.ar    1  UNL1       -0.1288
     31 C          10.3549   40.6378    7.2474 C.3     1  UNL1        0.2525
     32 O           9.0906   41.0456    7.7527 O.3     1  UNL1       -0.4701
     33 C           9.0178   41.3584   14.2508 C.3     1  UNL1        0.2525
     34 O           8.0995   41.7460   13.2380 O.3     1  UNL1       -0.4701
@<TRIPOS>BOND
     1    31    32    1
     2     1    32    1
     3     2     3   ar
     4     3     9    1
     5     7    11    1
     6    11    15   ar
     7    12    13   ar
     8    14    15   ar
     9     4    34    1
    10     4     5   ar
    11    33    34    1
    12     6    18    1
    13     6     1   ar
    14    20    16    1
    15    20    21    1
    16    21    28    1
    17    22    30   ar
    18    23    24   ar
    19    25    26   ar
    20    27    28   ar
    21    27    22   ar
    22     9     7   am
    23    18    16   am
    24    28    29   ar
    25     1     2   ar
    26     3     4   ar
    27     7     8    2
    28    11    12   ar
    29    13    14   ar
    30     5     6   ar
    31    16    17    2
    32    22    23   ar
    33    24    25   ar
    34    26    27   ar
    35    29    30   ar
    36     9    10    1
    37    18    19    1
@<TRIPOS>MOLECULE
MolPort-000-056-093 1324433 CHEMBL1507270 MCULE-1520687221 PubChem-655444 ZINC000001324433 ZINC01324433
 34 37 0 0 0
SMALL
GASTEIGER

@<TRIPOS>ATOM
      1 C          12.3677   41.3630    8.5650 C.ar    1  UNL1        0.1535
      2 C          13.7071   40.9563    8.4626 C.ar    1  UNL1        0.0559
      3 C          14.3351   40.2650    9.5010 C.ar    1  UNL1        0.0881
      4 C          13.6042   39.9386   10.6605 C.ar    1  UNL1        0.1535
      5 C          12.2653   40.3444   10.7629 C.ar    1  UNL1        0.0559
      6 C          11.6361   41.0347    9.7242 C.ar    1  UNL1        0.0879
      7 C          16.8192   40.7440    9.1276 C.2     1  UNL1        0.2556
      8 O          17.9546   40.3769    9.5284 O.2     1  UNL1       -0.2693
      9 N          15.7014   39.8677    9.3246 N.am    1  UNL1       -0.2775
     10 H          15.8901   38.9016    9.3402 H       1  UNL1        0.1553
     11 C          16.6901   42.0287    8.4153 C.ar    1  UNL1        0.0831
     12 C          15.8223   42.3078    7.3695 C.ar    1  UNL1        0.0116
     13 C          15.9574   43.6151    6.8807 C.ar    1  UNL1        0.0076
     14 C          16.9325   44.3728    7.5247 C.ar    1  UNL1        0.0356
     15 S          17.6205   43.3933    8.7060 S.2     1  UNL1       -0.0819
     16 C           9.8310   42.6931   10.4125 C.2     1  UNL1        0.2282
     17 O          10.6228   43.6707   10.4839 O.2     1  UNL1       -0.2747
     18 N          10.2698   41.4291    9.9037 N.am    1  UNL1       -0.2814
     19 H           9.5754   40.7765    9.6564 H       1  UNL1        0.1549
     20 C           8.4009   42.8798   10.7749 C.3     1  UNL1        0.1117
     21 C           7.6399   43.4494    9.5915 C.3     1  UNL1        0.1388
     22 C           6.2645   40.7824    7.6140 C.ar    1  UNL1        0.1217
     23 C           6.3366   39.8607    6.5744 C.ar    1  UNL1        0.0225
     24 C           7.5101   39.8682    5.7938 C.ar    1  UNL1        0.0017
     25 C           8.5574   40.7797    6.0715 C.ar    1  UNL1        0.0016
     26 C           8.4479   41.6985    7.1339 C.ar    1  UNL1        0.0204
     27 C           7.2719   41.6574    7.8787 C.ar    1  UNL1        0.0988
     28 N           6.8893   42.3947    8.9281 N.ar    1  UNL1       -0.2312
     29 N           5.6829   41.9699    9.2910 N.ar    1  UNL1       -0.0638
     30 N           5.2702   40.9794    8.4998 N.ar    1  UNL1       -0.1288
     31 C          12.0558   41.9134    6.1692 C.3     1  UNL1        0.2525
     32 O          11.7713   42.1156    7.5470 O.3     1  UNL1       -0.4701
     33 C          14.2004   37.7764   11.7139 C.3     1  UNL1        0.2525
     34 O          14.2069   39.1970   11.6835 O.3     1  UNL1       -0.4701
@<TRIPOS>BOND
     1    31    32    1
     2     1    32    1
     3     2     3   ar
     4     3     9    1
     5     7    11    1
     6    11    15   ar
     7    12    13   ar
     8    14    15   ar
     9     4    34    1
    10     4     5   ar
    11    33    34    1
    12     6    18    1
    13     6     1   ar
    14    20    16    1
    15    20    21    1
    16    21    28    1
    17    22    30   ar
    18    23    24   ar
    19    25    26   ar
    20    27    28   ar
    21    27    22   ar
    22     9     7   am
    23    18    16   am
    24    28    29   ar
    25     1     2   ar
    26     3     4   ar
    27     7     8    2
    28    11    12   ar
    29    13    14   ar
    30     5     6   ar
    31    16    17    2
    32    22    23   ar
    33    24    25   ar
    34    26    27   ar
    35    29    30   ar
    36     9    10    1
    37    18    19    1
@<TRIPOS>MOLECULE
MolPort-000-056-093 1324433 CHEMBL1507270 MCULE-1520687221 PubChem-655444 ZINC000001324433 ZINC01324433
 34 37 0 0 0
SMALL
GASTEIGER

@<TRIPOS>ATOM
      1 C          13.3307   41.1230    8.8774 C.ar    1  UNL1        0.1535
      2 C          14.6631   40.7371    9.0910 C.ar    1  UNL1        0.0559
      3 C          15.0210   39.9456   10.1846 C.ar    1  UNL1        0.0881
      4 C          14.0242   39.4964   11.0734 C.ar    1  UNL1        0.1535
      5 C          12.6923   39.8814   10.8598 C.ar    1  UNL1        0.0559
      6 C          12.3334   40.6719    9.7654 C.ar    1  UNL1        0.0879
      7 C          17.0834   38.5472    9.6098 C.2     1  UNL1        0.2556
      8 O          18.3195   38.6699    9.4055 O.2     1  UNL1       -0.2693
      9 N          16.3984   39.5769   10.3352 N.am    1  UNL1       -0.2775
     10 H          16.9237   40.0785   10.9999 H       1  UNL1        0.1553
     11 C          16.3984   37.3236    9.1536 C.ar    1  UNL1        0.0831
     12 C          15.0717   37.2190    8.7616 C.ar    1  UNL1        0.0116
     13 C          14.7069   35.9118    8.4089 C.ar    1  UNL1        0.0076
     14 C          15.7319   34.9763    8.5269 C.ar    1  UNL1        0.0356
     15 S          17.0923   35.7989    9.0753 S.2     1  UNL1       -0.0819
     16 C          10.3799   42.2849   10.0197 C.2     1  UNL1        0.2282
     17 O          11.1100   43.2762   10.2881 O.2     1  UNL1       -0.2747
     18 N          10.9553   41.0375    9.6174 N.am    1  UNL1       -0.2814
     19 H          10.3546   40.3756    9.2049 H       1  UNL1        0.1549
     20 C           8.9009   42.4389   10.0321 C.3     1  UNL1        0.1117
     21 C           8.3855   42.5762    8.6110 C.3     1  UNL1        0.1388
     22 C           4.9415   43.5838    8.8081 C.ar    1  UNL1        0.1217
     23 C           3.5969   43.3219    9.0508 C.ar    1  UNL1        0.0225
     24 C           3.2579   42.0026    9.4128 C.ar    1  UNL1        0.0017
     25 C           4.2553   41.0033    9.5201 C.ar    1  UNL1        0.0016
     26 C           5.6074   41.3072    9.2668 C.ar    1  UNL1        0.0204
     27 C           5.8980   42.6220    8.9115 C.ar    1  UNL1        0.0988
     28 N           7.0700   43.1969    8.6163 N.ar    1  UNL1       -0.2312
     29 N           6.8264   44.4759    8.3477 N.ar    1  UNL1       -0.0638
     30 N           5.5250   44.7444    8.4551 N.ar    1  UNL1       -0.1288
     31 C          12.5099   41.4979    6.5696 C.3     1  UNL1        0.2525
     32 O          12.9959   41.9735    7.8176 O.3     1  UNL1       -0.4701
     33 C          14.2901   37.2395   12.0613 C.3     1  UNL1        0.2525
     34 O          14.3633   38.6564   12.1405 O.3     1  UNL1       -0.4701
@<TRIPOS>BOND
     1    31    32    1
     2     1    32    1
     3     2     3   ar
     4     3     9    1
     5     7    11    1
     6    11    15   ar
     7    12    13   ar
     8    14    15   ar
     9     4    34    1
    10     4     5   ar
    11    33    34    1
    12     6    18    1
    13     6     1   ar
    14    20    16    1
    15    20    21    1
    16    21    28    1
    17    22    30   ar
    18    23    24   ar
    19    25    26   ar
    20    27    28   ar
    21    27    22   ar
    22     9     7   am
    23    18    16   am
    24    28    29   ar
    25     1     2   ar
    26     3     4   ar
    27     7     8    2
    28    11    12   ar
    29    13    14   ar
    30     5     6   ar
    31    16    17    2
    32    22    23   ar
    33    24    25   ar
    34    26    27   ar
    35    29    30   ar
    36     9    10    1
    37    18    19    1
