@<TRIPOS>MOLECULE
MolPort-007-919-876 3582266 CHEMBL1320868 ChemDiv-K415-0151 PubChem-5868600 ZINC000003582266 ZINC03582266
 35 38 0 0 0
SMALL
GASTEIGER

@<TRIPOS>ATOM
      1 C          14.5401   39.8538   10.2819 C.ar    1  UNL1        0.0845
      2 C          13.8476   40.5910    9.3097 C.ar    1  UNL1        0.0205
      3 C          12.4897   40.8798    9.4705 C.ar    1  UNL1        0.0162
      4 C          11.8077   40.4554   10.6151 C.ar    1  UNL1        0.0506
      5 C          12.5015   39.7349   11.5986 C.ar    1  UNL1        0.0162
      6 C          13.8584   39.4421   11.4356 C.ar    1  UNL1        0.0205
      7 C          16.9256   40.3437    9.6105 C.ar    1  UNL1        0.1053
      8 C          18.1265   39.6950    9.8260 C.ar    1  UNL1        0.1429
      9 N          17.8337   38.5540   10.4860 N.ar    1  UNL1       -0.1268
     10 N          16.5228   38.5090   10.6673 N.ar    1  UNL1       -0.0595
     11 N          15.9462   39.5812   10.1485 N.ar    1  UNL1       -0.2104
     12 C          16.3864   43.9664    7.3809 C.ar    1  UNL1        0.1387
     13 C          17.4831   43.8295    8.2480 C.ar    1  UNL1        0.0369
     14 C          17.6683   42.6458    8.9682 C.ar    1  UNL1        0.0047
     15 C          16.7672   41.5818    8.8244 C.ar    1  UNL1        0.0195
     16 C          15.6615   41.7292    7.9758 C.ar    1  UNL1        0.0047
     17 C          15.4759   42.9127    7.2543 C.ar    1  UNL1        0.0369
     18 C          15.0530   45.3107    5.7895 C.3     1  UNL1        0.2525
     19 O          16.1768   45.1331    6.6409 O.3     1  UNL1       -0.4714
     20 C           9.8146   42.0531   10.7625 C.2     1  UNL1        0.2496
     21 O          10.5014   43.0826   10.5138 O.2     1  UNL1       -0.2698
     22 N          10.4097   40.7497   10.7369 N.am    1  UNL1       -0.2804
     23 H           9.7988   39.9812   10.8102 H       1  UNL1        0.1552
     24 C           8.3807   42.1683   11.0437 C.2     1  UNL1        0.0580
     25 C           7.4608   41.7312   10.1860 C.2     1  UNL1        0.0048
     26 C           6.0182   41.8347   10.4428 C.ar    1  UNL1        0.0034
     27 C           5.3964   41.1161   11.4735 C.ar    1  UNL1        0.0033
     28 C           4.0227   41.2458   11.6888 C.ar    1  UNL1        0.0400
     29 C           3.2516   42.0974   10.8808 C.ar    1  UNL1        0.1724
     30 C           3.8697   42.8181    9.8478 C.ar    1  UNL1        0.1724
     31 C           5.2522   42.6796    9.6365 C.ar    1  UNL1        0.0400
     32 C           1.2969   42.3621   12.3768 C.3     1  UNL1        0.2526
     33 O           1.8743   42.2398   11.0839 O.3     1  UNL1       -0.4684
     34 C           3.6593   44.5165    8.0589 C.3     1  UNL1        0.2526
     35 O           3.0945   43.6584    9.0415 O.3     1  UNL1       -0.4684
@<TRIPOS>BOND
     1    18    19    1
     2    12    19    1
     3    13    14   ar
     4    15    16   ar
     5    15     7    1
     6    17    12   ar
     7     8     9   ar
     8     2     3   ar
     9     4    22    1
    10     4     5   ar
    11    20    24    1
    12    25    26    1
    13    27    28   ar
    14    29    33    1
    15    29    30   ar
    16    32    33    1
    17    30    35    1
    18    34    35    1
    19    31    26   ar
    20     6     1   ar
    21    11    10   ar
    22    11     1    1
    23    11     7   ar
    24    22    20   am
    25    12    13   ar
    26    14    15   ar
    27    16    17   ar
    28     7     8   ar
    29     1     2   ar
    30     3     4   ar
    31    20    21    2
    32    24    25    2
    33    26    27   ar
    34    28    29   ar
    35    30    31   ar
    36     5     6   ar
    37     9    10   ar
    38    22    23    1
@<TRIPOS>MOLECULE
MolPort-007-919-876 3582266 CHEMBL1320868 ChemDiv-K415-0151 PubChem-5868600 ZINC000003582266 ZINC03582266
 35 38 0 0 0
SMALL
GASTEIGER

@<TRIPOS>ATOM
      1 C           1.3855   41.8066   13.1640 C.ar    1  UNL1        0.0845
      2 C           2.2086   40.6735   13.0809 C.ar    1  UNL1        0.0205
      3 C           3.3218   40.6643   12.2359 C.ar    1  UNL1        0.0162
      4 C           3.6425   41.7944   11.4774 C.ar    1  UNL1        0.0506
      5 C           2.8331   42.9361   11.5726 C.ar    1  UNL1        0.0162
      6 C           1.7172   42.9436   12.4141 C.ar    1  UNL1        0.0205
      7 C          -0.0607   42.7551   15.0052 C.ar    1  UNL1        0.1053
      8 C          -1.2999   42.4136   15.5125 C.ar    1  UNL1        0.1429
      9 N          -1.6904   41.3004   14.8557 N.ar    1  UNL1       -0.1268
     10 N          -0.7410   40.9799   13.9900 N.ar    1  UNL1       -0.0595
     11 N           0.2584   41.8446   14.0570 N.ar    1  UNL1       -0.2104
     12 C           2.4785   45.8840   16.4708 C.ar    1  UNL1        0.1387
     13 C           1.7799   46.0511   15.2636 C.ar    1  UNL1        0.0369
     14 C           0.9426   45.0377   14.7881 C.ar    1  UNL1        0.0047
     15 C           0.7851   43.8503   15.5162 C.ar    1  UNL1        0.0195
     16 C           1.5006   43.6769   16.7089 C.ar    1  UNL1        0.0047
     17 C           2.3378   44.6905   17.1857 C.ar    1  UNL1        0.0369
     18 C           3.6942   46.9436   18.3463 C.3     1  UNL1        0.2525
     19 O           3.3172   46.8803   16.9777 O.3     1  UNL1       -0.4714
     20 C           6.1472   41.5847   10.9987 C.2     1  UNL1        0.2496
     21 O           6.4487   41.3142   12.1942 O.2     1  UNL1       -0.2698
     22 N           4.7787   41.7423   10.6042 N.am    1  UNL1       -0.2804
     23 H           4.6011   41.8228    9.6392 H       1  UNL1        0.1552
     24 C           7.1934   41.7035    9.9789 C.2     1  UNL1        0.0580
     25 C           8.4848   41.7412   10.3007 C.2     1  UNL1        0.0048
     26 C           9.5529   41.8601    9.2991 C.ar    1  UNL1        0.0034
     27 C          10.8456   42.2804    9.6421 C.ar    1  UNL1        0.0033
     28 C          11.8351   42.3757    8.6613 C.ar    1  UNL1        0.0400
     29 C          11.5489   42.0491    7.3256 C.ar    1  UNL1        0.1724
     30 C          10.2564   41.6284    6.9779 C.ar    1  UNL1        0.1724
     31 C           9.2659   41.5379    7.9707 C.ar    1  UNL1        0.0400
     32 C          13.9100   42.3007    6.6251 C.3     1  UNL1        0.2526
     33 O          12.5291   42.1379    6.3307 O.3     1  UNL1       -0.4684
     34 C           9.2485   40.1509    5.2660 C.3     1  UNL1        0.2526
     35 O           9.9758   41.3124    5.6442 O.3     1  UNL1       -0.4684
@<TRIPOS>BOND
     1    18    19    1
     2    12    19    1
     3    13    14   ar
     4    15    16   ar
     5    15     7    1
     6    17    12   ar
     7     8     9   ar
     8     2     3   ar
     9     4    22    1
    10     4     5   ar
    11    20    24    1
    12    25    26    1
    13    27    28   ar
    14    29    33    1
    15    29    30   ar
    16    32    33    1
    17    30    35    1
    18    34    35    1
    19    31    26   ar
    20     6     1   ar
    21    11    10   ar
    22    11     1    1
    23    11     7   ar
    24    22    20   am
    25    12    13   ar
    26    14    15   ar
    27    16    17   ar
    28     7     8   ar
    29     1     2   ar
    30     3     4   ar
    31    20    21    2
    32    24    25    2
    33    26    27   ar
    34    28    29   ar
    35    30    31   ar
    36     5     6   ar
    37     9    10   ar
    38    22    23    1
@<TRIPOS>MOLECULE
MolPort-007-919-876 3582266 CHEMBL1320868 ChemDiv-K415-0151 PubChem-5868600 ZINC000003582266 ZINC03582266
 35 38 0 0 0
SMALL
GASTEIGER

@<TRIPOS>ATOM
      1 C          16.4491   35.0768    3.1392 C.ar    1  UNL1        0.0845
      2 C          15.6730   34.4838    4.1464 C.ar    1  UNL1        0.0205
      3 C          14.5675   35.1531    4.6783 C.ar    1  UNL1        0.0162
      4 C          14.2071   36.4157    4.1974 C.ar    1  UNL1        0.0506
      5 C          14.9690   37.0034    3.1767 C.ar    1  UNL1        0.0162
      6 C          16.0774   36.3361    2.6479 C.ar    1  UNL1        0.0205
      7 C          17.5872   33.4431    1.5845 C.ar    1  UNL1        0.1053
      8 C          18.9104   33.1752    1.2895 C.ar    1  UNL1        0.1429
      9 N          19.6513   33.9630    2.0979 N.ar    1  UNL1       -0.1268
     10 N          18.8244   34.6774    2.8458 N.ar    1  UNL1       -0.0595
     11 N          17.5669   34.3848    2.5556 N.ar    1  UNL1       -0.2104
     12 C          14.2997   31.2875   -0.1275 C.ar    1  UNL1        0.1387
     13 C          14.5285   31.2397    1.2577 C.ar    1  UNL1        0.0369
     14 C          15.5927   31.9499    1.8209 C.ar    1  UNL1        0.0047
     15 C          16.4347   32.7236    1.0102 C.ar    1  UNL1        0.0195
     16 C          16.2179   32.7517   -0.3742 C.ar    1  UNL1        0.0047
     17 C          15.1531   32.0421   -0.9384 C.ar    1  UNL1        0.0369
     18 C          11.9871   31.2039   -1.0010 C.3     1  UNL1        0.2525
     19 O          13.2405   30.5956   -0.7209 O.3     1  UNL1       -0.4714
     20 C          12.1042   37.8690    4.0867 C.2     1  UNL1        0.2496
     21 O          12.0812   37.9044    2.8251 O.2     1  UNL1       -0.2698
     22 N          13.0806   37.0833    4.7815 N.am    1  UNL1       -0.2804
     23 H          12.9668   36.9930    5.7552 H       1  UNL1        0.1552
     24 C          11.1034   38.6021    4.8675 C.2     1  UNL1        0.0580
     25 C          11.4467   39.5720    5.7127 C.2     1  UNL1        0.0048
     26 C          10.4646   40.3218    6.5071 C.ar    1  UNL1        0.0034
     27 C          10.8016   41.5097    7.1710 C.ar    1  UNL1        0.0033
     28 C           9.8375   42.1963    7.9123 C.ar    1  UNL1        0.0400
     29 C           8.5232   41.7086    7.9979 C.ar    1  UNL1        0.1724
     30 C           8.1817   40.5199    7.3353 C.ar    1  UNL1        0.1724
     31 C           9.1587   39.8340    6.5938 C.ar    1  UNL1        0.0400
     32 C           7.5116   42.3773   10.1563 C.3     1  UNL1        0.2526
     33 O           7.5448   42.3849    8.7354 O.3     1  UNL1       -0.4684
     34 C           6.0282   39.8732    6.2994 C.3     1  UNL1        0.2526
     35 O           6.8728   40.0354    7.4313 O.3     1  UNL1       -0.4684
@<TRIPOS>BOND
     1    18    19    1
     2    12    19    1
     3    13    14   ar
     4    15    16   ar
     5    15     7    1
     6    17    12   ar
     7     8     9   ar
     8     2     3   ar
     9     4    22    1
    10     4     5   ar
    11    20    24    1
    12    25    26    1
    13    27    28   ar
    14    29    33    1
    15    29    30   ar
    16    32    33    1
    17    30    35    1
    18    34    35    1
    19    31    26   ar
    20     6     1   ar
    21    11    10   ar
    22    11     1    1
    23    11     7   ar
    24    22    20   am
    25    12    13   ar
    26    14    15   ar
    27    16    17   ar
    28     7     8   ar
    29     1     2   ar
    30     3     4   ar
    31    20    21    2
    32    24    25    2
    33    26    27   ar
    34    28    29   ar
    35    30    31   ar
    36     5     6   ar
    37     9    10   ar
    38    22    23    1
@<TRIPOS>MOLECULE
MolPort-007-919-876 3582266 CHEMBL1320868 ChemDiv-K415-0151 PubChem-5868600 ZINC000003582266 ZINC03582266
 35 38 0 0 0
SMALL
GASTEIGER

@<TRIPOS>ATOM
      1 C          14.4730   42.5786    7.5603 C.ar    1  UNL1        0.0845
      2 C          13.4980   43.0014    6.6444 C.ar    1  UNL1        0.0205
      3 C          12.1394   42.8236    6.9201 C.ar    1  UNL1        0.0162
      4 C          11.7332   42.2404    8.1243 C.ar    1  UNL1        0.0506
      5 C          12.7046   41.8342    9.0512 C.ar    1  UNL1        0.0162
      6 C          14.0634   42.0079    8.7735 C.ar    1  UNL1        0.0205
      7 C          16.9431   42.0790    7.7338 C.ar    1  UNL1        0.1053
      8 C          18.0655   42.6088    7.1261 C.ar    1  UNL1        0.1429
      9 N          17.6377   43.6293    6.3522 N.ar    1  UNL1       -0.1268
     10 N          16.3225   43.7168    6.4778 N.ar    1  UNL1       -0.0595
     11 N          15.8733   42.7890    7.3076 N.ar    1  UNL1       -0.2104
     12 C          16.9713   38.9109   10.6231 C.ar    1  UNL1        0.1387
     13 C          18.1791   39.4943   10.2055 C.ar    1  UNL1        0.0369
     14 C          18.1732   40.5348    9.2720 C.ar    1  UNL1        0.0047
     15 C          16.9621   41.0116    8.7518 C.ar    1  UNL1        0.0195
     16 C          15.7600   40.4129    9.1529 C.ar    1  UNL1        0.0047
     17 C          15.7649   39.3725   10.0874 C.ar    1  UNL1        0.0369
     18 C          15.7356   37.2480   11.9742 C.3     1  UNL1        0.2525
     19 O          16.9419   37.8746   11.5601 O.3     1  UNL1       -0.4714
     20 C           9.3177   41.8605    7.3709 C.2     1  UNL1        0.2496
     21 O           9.6245   41.6820    6.1596 O.2     1  UNL1       -0.2698
     22 N          10.3321   42.0528    8.3646 N.am    1  UNL1       -0.2804
     23 H          10.0383   42.0564    9.3042 H       1  UNL1        0.1552
     24 C           7.9139   41.8344    7.7919 C.2     1  UNL1        0.0580
     25 C           7.5518   42.1148    9.0422 C.2     1  UNL1        0.0048
     26 C           6.1530   42.0955    9.4905 C.ar    1  UNL1        0.0034
     27 C           5.7015   41.1981   10.4682 C.ar    1  UNL1        0.0033
     28 C           4.3645   41.2148   10.8713 C.ar    1  UNL1        0.0400
     29 C           3.4610   42.1299   10.3068 C.ar    1  UNL1        0.1724
     30 C           3.9085   43.0296    9.3276 C.ar    1  UNL1        0.1724
     31 C           5.2550   43.0042    8.9260 C.ar    1  UNL1        0.0400
     32 C           1.7183   42.2431   12.0616 C.3     1  UNL1        0.2526
     33 O           2.1183   42.1608   10.7003 O.3     1  UNL1       -0.4684
     34 C           3.3941   44.9430    7.8432 C.3     1  UNL1        0.2526
     35 O           3.0015   43.9332    8.7635 O.3     1  UNL1       -0.4684
@<TRIPOS>BOND
     1    18    19    1
     2    12    19    1
     3    13    14   ar
     4    15    16   ar
     5    15     7    1
     6    17    12   ar
     7     8     9   ar
     8     2     3   ar
     9     4    22    1
    10     4     5   ar
    11    20    24    1
    12    25    26    1
    13    27    28   ar
    14    29    33    1
    15    29    30   ar
    16    32    33    1
    17    30    35    1
    18    34    35    1
    19    31    26   ar
    20     6     1   ar
    21    11    10   ar
    22    11     1    1
    23    11     7   ar
    24    22    20   am
    25    12    13   ar
    26    14    15   ar
    27    16    17   ar
    28     7     8   ar
    29     1     2   ar
    30     3     4   ar
    31    20    21    2
    32    24    25    2
    33    26    27   ar
    34    28    29   ar
    35    30    31   ar
    36     5     6   ar
    37     9    10   ar
    38    22    23    1
@<TRIPOS>MOLECULE
MolPort-007-919-876 3582266 CHEMBL1320868 ChemDiv-K415-0151 PubChem-5868600 ZINC000003582266 ZINC03582266
 35 38 0 0 0
SMALL
GASTEIGER

@<TRIPOS>ATOM
      1 C           1.5839   42.1584   12.6676 C.ar    1  UNL1        0.0845
      2 C           2.2014   43.1342   11.8707 C.ar    1  UNL1        0.0205
      3 C           3.4622   42.9032   11.3138 C.ar    1  UNL1        0.0162
      4 C           4.1163   41.6857   11.5262 C.ar    1  UNL1        0.0506
      5 C           3.4935   40.7001   12.3062 C.ar    1  UNL1        0.0162
      6 C           2.2346   40.9328   12.8670 C.ar    1  UNL1        0.0205
      7 C          -0.1256   43.1823   14.2201 C.ar    1  UNL1        0.1053
      8 C          -1.5038   43.1146   14.2945 C.ar    1  UNL1        0.1429
      9 N          -1.8986   42.2532   13.3325 N.ar    1  UNL1       -0.1268
     10 N          -0.8185   41.8193   12.7012 N.ar    1  UNL1       -0.0595
     11 N           0.2707   42.3666   13.2163 N.ar    1  UNL1       -0.2104
     12 C           2.2941   45.4078   16.9728 C.ar    1  UNL1        0.1387
     13 C           1.8258   44.1299   17.3204 C.ar    1  UNL1        0.0369
     14 C           1.0459   43.3967   16.4213 C.ar    1  UNL1        0.0047
     15 C           0.7324   43.9259   15.1618 C.ar    1  UNL1        0.0195
     16 C           1.1819   45.2103   14.8261 C.ar    1  UNL1        0.0047
     17 C           1.9628   45.9441   15.7246 C.ar    1  UNL1        0.0369
     18 C           2.6853   46.4589   19.1774 C.3     1  UNL1        0.2525
     19 O           3.0821   46.1634   17.8453 O.3     1  UNL1       -0.4714
     20 C           5.7459   41.4901    9.5634 C.2     1  UNL1        0.2496
     21 O           4.8915   41.8291    8.6982 O.2     1  UNL1       -0.2698
     22 N           5.4185   41.4913   10.9584 N.am    1  UNL1       -0.2804
     23 H           6.1603   41.3441   11.5888 H       1  UNL1        0.1552
     24 C           7.1069   41.1261    9.1586 C.2     1  UNL1        0.0580
     25 C           8.1774   41.7031    9.7007 C.2     1  UNL1        0.0048
     26 C           9.5516   41.3574    9.3133 C.ar    1  UNL1        0.0034
     27 C          10.3164   42.1863    8.4806 C.ar    1  UNL1        0.0033
     28 C          11.6215   41.8248    8.1393 C.ar    1  UNL1        0.0400
     29 C          12.1821   40.6332    8.6275 C.ar    1  UNL1        0.1724
     30 C          11.4200   39.8006    9.4608 C.ar    1  UNL1        0.1724
     31 C          10.1067   40.1706    9.7972 C.ar    1  UNL1        0.0400
     32 C          14.5880   40.4399    9.1782 C.3     1  UNL1        0.2526
     33 O          13.4887   40.2569    8.2962 O.3     1  UNL1       -0.4684
     34 C          11.4109   37.3346    9.6806 C.3     1  UNL1        0.2526
     35 O          11.9817   38.6111    9.9372 O.3     1  UNL1       -0.4684
@<TRIPOS>BOND
     1    18    19    1
     2    12    19    1
     3    13    14   ar
     4    15    16   ar
     5    15     7    1
     6    17    12   ar
     7     8     9   ar
     8     2     3   ar
     9     4    22    1
    10     4     5   ar
    11    20    24    1
    12    25    26    1
    13    27    28   ar
    14    29    33    1
    15    29    30   ar
    16    32    33    1
    17    30    35    1
    18    34    35    1
    19    31    26   ar
    20     6     1   ar
    21    11    10   ar
    22    11     1    1
    23    11     7   ar
    24    22    20   am
    25    12    13   ar
    26    14    15   ar
    27    16    17   ar
    28     7     8   ar
    29     1     2   ar
    30     3     4   ar
    31    20    21    2
    32    24    25    2
    33    26    27   ar
    34    28    29   ar
    35    30    31   ar
    36     5     6   ar
    37     9    10   ar
    38    22    23    1
@<TRIPOS>MOLECULE
MolPort-007-919-876 3582266 CHEMBL1320868 ChemDiv-K415-0151 PubChem-5868600 ZINC000003582266 ZINC03582266
 35 38 0 0 0
SMALL
GASTEIGER

@<TRIPOS>ATOM
      1 C           0.3212   42.1335   14.2163 C.ar    1  UNL1        0.0845
      2 C           1.0827   41.0206   13.8291 C.ar    1  UNL1        0.0205
      3 C           2.0570   41.1378   12.8339 C.ar    1  UNL1        0.0162
      4 C           2.3007   42.3729   12.2255 C.ar    1  UNL1        0.0506
      5 C           1.5549   43.4922   12.6238 C.ar    1  UNL1        0.0162
      6 C           0.5773   43.3741   13.6158 C.ar    1  UNL1        0.0205
      7 C          -0.8206   42.8043   16.3674 C.ar    1  UNL1        0.1053
      8 C          -1.9738   42.3848   17.0029 C.ar    1  UNL1        0.1429
      9 N          -2.4720   41.3701   16.2643 N.ar    1  UNL1       -0.1268
     10 N          -1.6672   41.1814   15.2298 N.ar    1  UNL1       -0.0595
     11 N          -0.6585   42.0372   15.2650 N.ar    1  UNL1       -0.2104
     12 C           1.8084   45.7897   17.9678 C.ar    1  UNL1        0.1387
     13 C           2.1613   44.4317   18.0340 C.ar    1  UNL1        0.0369
     14 C           1.3120   43.4563   17.5035 C.ar    1  UNL1        0.0047
     15 C           0.1056   43.8253   16.8924 C.ar    1  UNL1        0.0195
     16 C          -0.2549   45.1789   16.8478 C.ar    1  UNL1        0.0047
     17 C           0.5946   46.1554   17.3775 C.ar    1  UNL1        0.0369
     18 C           2.4995   48.1593   18.1280 C.3     1  UNL1        0.2525
     19 O           2.6383   46.7899   18.4815 O.3     1  UNL1       -0.4714
     20 C           3.2093   41.8639    9.8884 C.2     1  UNL1        0.2496
     21 O           2.1366   41.3356    9.4839 O.2     1  UNL1       -0.2698
     22 N           3.2919   42.4521   11.1924 N.am    1  UNL1       -0.2804
     23 H           4.1093   42.9604   11.3994 H       1  UNL1        0.1552
     24 C           4.3835   41.9216    9.0129 C.2     1  UNL1        0.0580
     25 C           5.5696   41.4563    9.3996 C.2     1  UNL1        0.0048
     26 C           6.7619   41.5021    8.5427 C.ar    1  UNL1        0.0034
     27 C           6.7263   41.0929    7.2024 C.ar    1  UNL1        0.0033
     28 C           7.8806   41.1567    6.4189 C.ar    1  UNL1        0.0400
     29 C           9.0851   41.6334    6.9615 C.ar    1  UNL1        0.1724
     30 C           9.1254   42.0436    8.3027 C.ar    1  UNL1        0.1724
     31 C           7.9598   41.9736    9.0846 C.ar    1  UNL1        0.0400
     32 C          10.5851   40.7301    5.2113 C.3     1  UNL1        0.2526
     33 O          10.2505   41.7050    6.1900 O.3     1  UNL1       -0.4684
     34 C          10.3933   43.2832   10.0304 C.3     1  UNL1        0.2526
     35 O          10.3304   42.5099    8.8392 O.3     1  UNL1       -0.4684
@<TRIPOS>BOND
     1    18    19    1
     2    12    19    1
     3    13    14   ar
     4    15    16   ar
     5    15     7    1
     6    17    12   ar
     7     8     9   ar
     8     2     3   ar
     9     4    22    1
    10     4     5   ar
    11    20    24    1
    12    25    26    1
    13    27    28   ar
    14    29    33    1
    15    29    30   ar
    16    32    33    1
    17    30    35    1
    18    34    35    1
    19    31    26   ar
    20     6     1   ar
    21    11    10   ar
    22    11     1    1
    23    11     7   ar
    24    22    20   am
    25    12    13   ar
    26    14    15   ar
    27    16    17   ar
    28     7     8   ar
    29     1     2   ar
    30     3     4   ar
    31    20    21    2
    32    24    25    2
    33    26    27   ar
    34    28    29   ar
    35    30    31   ar
    36     5     6   ar
    37     9    10   ar
    38    22    23    1
@<TRIPOS>MOLECULE
MolPort-007-919-876 3582266 CHEMBL1320868 ChemDiv-K415-0151 PubChem-5868600 ZINC000003582266 ZINC03582266
 35 38 0 0 0
SMALL
GASTEIGER

@<TRIPOS>ATOM
      1 C           0.4857   41.0228   13.4458 C.ar    1  UNL1        0.0845
      2 C           1.2959   39.9163   13.1497 C.ar    1  UNL1        0.0205
      3 C           2.3669   40.0377   12.2600 C.ar    1  UNL1        0.0162
      4 C           2.6584   41.2710   11.6691 C.ar    1  UNL1        0.0506
      5 C           1.8625   42.3841   11.9779 C.ar    1  UNL1        0.0162
      6 C           0.7887   42.2617   12.8641 C.ar    1  UNL1        0.0205
      7 C          -1.4344   41.8814   14.8449 C.ar    1  UNL1        0.1053
      8 C          -2.3783   41.2655   15.6445 C.ar    1  UNL1        0.1429
      9 N          -2.0775   39.9492   15.6495 N.ar    1  UNL1       -0.1268
     10 N          -1.0076   39.7693   14.8904 N.ar    1  UNL1       -0.0595
     11 N          -0.5966   40.9225   14.3880 N.ar    1  UNL1       -0.2104
     12 C          -1.0910   46.1290   14.3701 C.ar    1  UNL1        0.1387
     13 C          -0.0619   45.2845   13.9215 C.ar    1  UNL1        0.0369
     14 C          -0.1752   43.8986   14.0645 C.ar    1  UNL1        0.0047
     15 C          -1.3202   43.3388   14.6479 C.ar    1  UNL1        0.0195
     16 C          -2.3354   44.1845   15.1151 C.ar    1  UNL1        0.0047
     17 C          -2.2234   45.5711   14.9717 C.ar    1  UNL1        0.0369
     18 C          -0.8486   48.1588   12.9776 C.3     1  UNL1        0.2525
     19 O          -1.0124   47.5177   14.2352 O.3     1  UNL1       -0.4714
     20 C           5.0416   41.9202   11.0017 C.2     1  UNL1        0.2496
     21 O           5.3750   42.2655   12.1692 O.2     1  UNL1       -0.2698
     22 N           3.7506   41.3544   10.7439 N.am    1  UNL1       -0.2804
     23 H           3.5986   40.9869    9.8433 H       1  UNL1        0.1552
     24 C           5.9875   42.0548    9.8901 C.2     1  UNL1        0.0580
     25 C           6.2967   41.0254    9.1043 C.2     1  UNL1        0.0048
     26 C           7.2412   41.1327    7.9843 C.ar    1  UNL1        0.0034
     27 C           8.0542   42.2610    7.8074 C.ar    1  UNL1        0.0033
     28 C           8.9435   42.3227    6.7324 C.ar    1  UNL1        0.0400
     29 C           9.0361   41.2575    5.8216 C.ar    1  UNL1        0.1724
     30 C           8.2240   40.1266    5.9947 C.ar    1  UNL1        0.1724
     31 C           7.3300   40.0740    7.0777 C.ar    1  UNL1        0.0400
     32 C          10.9567   40.3454    4.5533 C.3     1  UNL1        0.2526
     33 O           9.9228   41.3027    4.7398 O.3     1  UNL1       -0.4684
     34 C           9.3752   38.1253    5.1010 C.3     1  UNL1        0.2526
     35 O           8.3155   39.0726    5.0793 O.3     1  UNL1       -0.4684
@<TRIPOS>BOND
     1    18    19    1
     2    12    19    1
     3    13    14   ar
     4    15    16   ar
     5    15     7    1
     6    17    12   ar
     7     8     9   ar
     8     2     3   ar
     9     4    22    1
    10     4     5   ar
    11    20    24    1
    12    25    26    1
    13    27    28   ar
    14    29    33    1
    15    29    30   ar
    16    32    33    1
    17    30    35    1
    18    34    35    1
    19    31    26   ar
    20     6     1   ar
    21    11    10   ar
    22    11     1    1
    23    11     7   ar
    24    22    20   am
    25    12    13   ar
    26    14    15   ar
    27    16    17   ar
    28     7     8   ar
    29     1     2   ar
    30     3     4   ar
    31    20    21    2
    32    24    25    2
    33    26    27   ar
    34    28    29   ar
    35    30    31   ar
    36     5     6   ar
    37     9    10   ar
    38    22    23    1
@<TRIPOS>MOLECULE
MolPort-007-919-876 3582266 CHEMBL1320868 ChemDiv-K415-0151 PubChem-5868600 ZINC000003582266 ZINC03582266
 35 38 0 0 0
SMALL
GASTEIGER

@<TRIPOS>ATOM
      1 C          14.5791   37.4904    9.6768 C.ar    1  UNL1        0.0845
      2 C          14.0904   36.1784    9.5861 C.ar    1  UNL1        0.0205
      3 C          14.6074   35.2916    8.6376 C.ar    1  UNL1        0.0162
      4 C          15.6355   35.6947    7.7798 C.ar    1  UNL1        0.0506
      5 C          16.1402   36.9997    7.8807 C.ar    1  UNL1        0.0162
      6 C          15.6200   37.8880    8.8261 C.ar    1  UNL1        0.0205
      7 C          13.8039   39.7223   10.5707 C.ar    1  UNL1        0.1053
      8 C          13.2420   40.1241   11.7675 C.ar    1  UNL1        0.1429
      9 N          13.2037   39.0315   12.5600 N.ar    1  UNL1       -0.1268
     10 N          13.7127   38.0143   11.8820 N.ar    1  UNL1       -0.0595
     11 N          14.0835   38.4026   10.6725 N.ar    1  UNL1       -0.2104
     12 C          14.8140   42.2697    7.2729 C.ar    1  UNL1        0.1387
     13 C          13.4794   41.8851    7.4829 C.ar    1  UNL1        0.0369
     14 C          13.1446   41.0636    8.5633 C.ar    1  UNL1        0.0047
     15 C          14.1357   40.6246    9.4520 C.ar    1  UNL1        0.0195
     16 C          15.4696   40.9912    9.2274 C.ar    1  UNL1        0.0047
     17 C          15.8054   41.8136    8.1473 C.ar    1  UNL1        0.0369
     18 C          14.4684   44.2790    5.8725 C.3     1  UNL1        0.2525
     19 O          15.1809   43.0960    6.2073 O.3     1  UNL1       -0.4714
     20 C          17.2824   34.9373    5.9741 C.2     1  UNL1        0.2496
     21 O          18.0765   35.9005    6.1618 O.2     1  UNL1       -0.2698
     22 N          16.1267   34.7663    6.8038 N.am    1  UNL1       -0.2804
     23 H          15.6204   33.9292    6.6929 H       1  UNL1        0.1552
     24 C          17.5503   33.9490    4.9253 C.2     1  UNL1        0.0580
     25 C          17.8526   34.3124    3.6805 C.2     1  UNL1        0.0048
     26 C          18.1249   33.3431    2.6108 C.ar    1  UNL1        0.0034
     27 C          19.4299   32.9488    2.2841 C.ar    1  UNL1        0.0033
     28 C          19.6470   32.0204    1.2636 C.ar    1  UNL1        0.0400
     29 C          18.5643   31.4702    0.5581 C.ar    1  UNL1        0.1724
     30 C          17.2566   31.8624    0.8816 C.ar    1  UNL1        0.1724
     31 C          17.0474   32.7991    1.9081 C.ar    1  UNL1        0.0400
     32 C          19.3204   30.8885   -1.7264 C.3     1  UNL1        0.2526
     33 O          18.7642   30.5379   -0.4663 O.3     1  UNL1       -0.4684
     34 C          15.3853   32.0816   -0.7244 C.3     1  UNL1        0.2526
     35 O          16.1832   31.3166    0.1695 O.3     1  UNL1       -0.4684
@<TRIPOS>BOND
     1    18    19    1
     2    12    19    1
     3    13    14   ar
     4    15    16   ar
     5    15     7    1
     6    17    12   ar
     7     8     9   ar
     8     2     3   ar
     9     4    22    1
    10     4     5   ar
    11    20    24    1
    12    25    26    1
    13    27    28   ar
    14    29    33    1
    15    29    30   ar
    16    32    33    1
    17    30    35    1
    18    34    35    1
    19    31    26   ar
    20     6     1   ar
    21    11    10   ar
    22    11     1    1
    23    11     7   ar
    24    22    20   am
    25    12    13   ar
    26    14    15   ar
    27    16    17   ar
    28     7     8   ar
    29     1     2   ar
    30     3     4   ar
    31    20    21    2
    32    24    25    2
    33    26    27   ar
    34    28    29   ar
    35    30    31   ar
    36     5     6   ar
    37     9    10   ar
    38    22    23    1
@<TRIPOS>MOLECULE
MolPort-007-919-876 3582266 CHEMBL1320868 ChemDiv-K415-0151 PubChem-5868600 ZINC000003582266 ZINC03582266
 35 38 0 0 0
SMALL
GASTEIGER

@<TRIPOS>ATOM
      1 C          13.6547   38.0314    9.5200 C.ar    1  UNL1        0.0845
      2 C          12.9091   38.0818   10.7074 C.ar    1  UNL1        0.0205
      3 C          11.6338   38.6534   10.7219 C.ar    1  UNL1        0.0162
      4 C          11.0747   39.1638    9.5463 C.ar    1  UNL1        0.0506
      5 C          11.8092   39.0975    8.3530 C.ar    1  UNL1        0.0162
      6 C          13.0865   38.5301    8.3394 C.ar    1  UNL1        0.0205
      7 C          16.1796   37.9821    9.4605 C.ar    1  UNL1        0.1053
      8 C          17.1132   36.9667    9.5454 C.ar    1  UNL1        0.1429
      9 N          16.4185   35.8107    9.6104 N.ar    1  UNL1       -0.1268
     10 N          15.1279   36.1041    9.5704 N.ar    1  UNL1       -0.0595
     11 N          14.9526   37.4127    9.4812 N.ar    1  UNL1       -0.2104
     12 C          17.1579   42.1030    8.7924 C.ar    1  UNL1        0.1387
     13 C          15.8177   41.6833    8.7623 C.ar    1  UNL1        0.0369
     14 C          15.4939   40.3427    8.9905 C.ar    1  UNL1        0.0047
     15 C          16.5024   39.4075    9.2609 C.ar    1  UNL1        0.0195
     16 C          17.8405   39.8243    9.2681 C.ar    1  UNL1        0.0047
     17 C          18.1653   41.1654    9.0407 C.ar    1  UNL1        0.0369
     18 C          17.5031   44.4118    9.6097 C.3     1  UNL1        0.2525
     19 O          17.5147   43.4367    8.5761 O.3     1  UNL1       -0.4714
     20 C           9.4711   41.1549    9.4422 C.2     1  UNL1        0.2496
     21 O          10.3594   41.9711    9.0707 O.2     1  UNL1       -0.2698
     22 N           9.7734   39.7633    9.6021 N.am    1  UNL1       -0.2804
     23 H           9.0131   39.1597    9.7663 H       1  UNL1        0.1552
     24 C           8.0982   41.6102    9.6793 C.2     1  UNL1        0.0580
     25 C           7.2004   40.8406   10.2913 C.2     1  UNL1        0.0048
     26 C           5.8185   41.2719   10.5410 C.ar    1  UNL1        0.0034
     27 C           5.1117   40.8676   11.6822 C.ar    1  UNL1        0.0033
     28 C           3.8008   41.3038   11.8860 C.ar    1  UNL1        0.0400
     29 C           3.1789   42.1523   10.9556 C.ar    1  UNL1        0.1724
     30 C           3.8824   42.5591    9.8118 C.ar    1  UNL1        0.1724
     31 C           5.2003   42.1134    9.6133 C.ar    1  UNL1        0.0400
     32 C           1.1927   42.4976   12.3926 C.3     1  UNL1        0.2526
     33 O           1.8664   42.5995   11.1453 O.3     1  UNL1       -0.4684
     34 C           3.8511   44.5947    8.4033 C.3     1  UNL1        0.2526
     35 O           3.2542   43.3979    8.8850 O.3     1  UNL1       -0.4684
@<TRIPOS>BOND
     1    18    19    1
     2    12    19    1
     3    13    14   ar
     4    15    16   ar
     5    15     7    1
     6    17    12   ar
     7     8     9   ar
     8     2     3   ar
     9     4    22    1
    10     4     5   ar
    11    20    24    1
    12    25    26    1
    13    27    28   ar
    14    29    33    1
    15    29    30   ar
    16    32    33    1
    17    30    35    1
    18    34    35    1
    19    31    26   ar
    20     6     1   ar
    21    11    10   ar
    22    11     1    1
    23    11     7   ar
    24    22    20   am
    25    12    13   ar
    26    14    15   ar
    27    16    17   ar
    28     7     8   ar
    29     1     2   ar
    30     3     4   ar
    31    20    21    2
    32    24    25    2
    33    26    27   ar
    34    28    29   ar
    35    30    31   ar
    36     5     6   ar
    37     9    10   ar
    38    22    23    1
@<TRIPOS>MOLECULE
MolPort-007-919-876 3582266 CHEMBL1320868 ChemDiv-K415-0151 PubChem-5868600 ZINC000003582266 ZINC03582266
 35 38 0 0 0
SMALL
GASTEIGER

@<TRIPOS>ATOM
      1 C          16.8425   34.8202    3.2079 C.ar    1  UNL1        0.0845
      2 C          15.9524   34.1713    4.0769 C.ar    1  UNL1        0.0205
      3 C          14.8213   34.8345    4.5608 C.ar    1  UNL1        0.0162
      4 C          14.5502   36.1486    4.1671 C.ar    1  UNL1        0.0506
      5 C          15.4274   36.7940    3.2830 C.ar    1  UNL1        0.0162
      6 C          16.5610   36.1324    2.8027 C.ar    1  UNL1        0.0205
      7 C          18.7318   33.1434    3.2102 C.ar    1  UNL1        0.1053
      8 C          19.6518   32.7461    2.2586 C.ar    1  UNL1        0.1429
      9 N          19.4395   33.5197    1.1725 N.ar    1  UNL1       -0.1268
     10 N          18.4401   34.3446    1.4446 N.ar    1  UNL1       -0.0595
     11 N          17.9902   34.1386    2.6719 N.ar    1  UNL1       -0.2104
     12 C          18.6548   31.6043    7.2115 C.ar    1  UNL1        0.1387
     13 C          19.0987   32.9148    6.9693 C.ar    1  UNL1        0.0369
     14 C          19.1148   33.4239    5.6675 C.ar    1  UNL1        0.0047
     15 C          18.6794   32.6349    4.5938 C.ar    1  UNL1        0.0195
     16 C          18.2583   31.3202    4.8352 C.ar    1  UNL1        0.0047
     17 C          18.2410   30.8103    6.1373 C.ar    1  UNL1        0.0369
     18 C          17.4540   31.1015    9.3147 C.3     1  UNL1        0.2525
     19 O          18.6188   31.0679    8.5014 O.3     1  UNL1       -0.4714
     20 C          12.4695   37.6247    3.9724 C.2     1  UNL1        0.2496
     21 O          12.5284   37.7040    2.7140 O.2     1  UNL1       -0.2698
     22 N          13.3931   36.8062    4.7005 N.am    1  UNL1       -0.2804
     23 H          13.2159   36.6833    5.6611 H       1  UNL1        0.1552
     24 C          11.4256   38.3398    4.7123 C.2     1  UNL1        0.0580
     25 C          11.7209   39.2627    5.6255 C.2     1  UNL1        0.0048
     26 C          10.6949   39.9935    6.3813 C.ar    1  UNL1        0.0034
     27 C          10.9708   41.2132    7.0149 C.ar    1  UNL1        0.0033
     28 C           9.9663   41.8801    7.7197 C.ar    1  UNL1        0.0400
     29 C           8.6720   41.3405    7.7984 C.ar    1  UNL1        0.1724
     30 C           8.3917   40.1198    7.1660 C.ar    1  UNL1        0.1724
     31 C           9.4090   39.4542    6.4611 C.ar    1  UNL1        0.0400
     32 C           7.6152   42.0586    9.9189 C.3     1  UNL1        0.2526
     33 O           7.6538   41.9963    8.4995 O.3     1  UNL1       -0.4684
     34 C           6.0575   39.9421    6.3603 C.3     1  UNL1        0.2526
     35 O           7.1024   39.5839    7.2551 O.3     1  UNL1       -0.4684
@<TRIPOS>BOND
     1    18    19    1
     2    12    19    1
     3    13    14   ar
     4    15    16   ar
     5    15     7    1
     6    17    12   ar
     7     8     9   ar
     8     2     3   ar
     9     4    22    1
    10     4     5   ar
    11    20    24    1
    12    25    26    1
    13    27    28   ar
    14    29    33    1
    15    29    30   ar
    16    32    33    1
    17    30    35    1
    18    34    35    1
    19    31    26   ar
    20     6     1   ar
    21    11    10   ar
    22    11     1    1
    23    11     7   ar
    24    22    20   am
    25    12    13   ar
    26    14    15   ar
    27    16    17   ar
    28     7     8   ar
    29     1     2   ar
    30     3     4   ar
    31    20    21    2
    32    24    25    2
    33    26    27   ar
    34    28    29   ar
    35    30    31   ar
    36     5     6   ar
    37     9    10   ar
    38    22    23    1
