@<TRIPOS>MOLECULE
MolPort-006-579-642 ChemDiv-V021-6494 MCULE-5835425492 PubChem-46040606 ZINC000037543375 ZINC37543375
 28 31 0 0 0
SMALL
GASTEIGER

@<TRIPOS>ATOM
      1 C          13.0831   39.7368    8.2120 C.3     1  UNL1        0.0971
      2 C          13.4267   39.7705    9.6899 C.3     1  UNL1        0.0435
      3 C          12.1406   39.8326   10.5142 C.3     1  UNL1        0.1015
      4 C          11.3961   41.4900    8.7564 C.2     1  UNL1        0.3112
      5 N          12.3826   40.9622    7.8579 N.am    1  UNL1       -0.2596
      6 N          11.2032   40.8690   10.0490 N.am    1  UNL1       -0.2430
      7 O          10.7375   42.5154    8.4302 O.2     1  UNL1       -0.2520
      8 C          10.0705   41.1842   10.8885 C.ar    1  UNL1        0.0565
      9 C          10.1630   41.0451   12.2833 C.ar    1  UNL1        0.0150
     10 C           9.0681   41.3311   13.1018 C.ar    1  UNL1        0.0026
     11 C           7.8650   41.7549   12.5343 C.ar    1  UNL1        0.0148
     12 C           7.7477   41.8928   11.1444 C.ar    1  UNL1        0.0515
     13 C           8.8498   41.6045   10.3335 C.ar    1  UNL1        0.0296
     14 C           5.2382   41.7116   10.6454 C.2     1  UNL1        0.2256
     15 N           6.5296   42.3253   10.5238 N.am    1  UNL1       -0.2839
     16 O           5.0829   40.6518   11.3101 O.2     1  UNL1       -0.2748
     17 H           6.5850   43.1269    9.9550 H       1  UNL1        0.1549
     18 C           4.0704   42.3086    9.9294 C.3     1  UNL1        0.0768
     19 C           2.8039   42.0995   10.7398 C.3     1  UNL1        0.0096
     20 C           3.0865   41.2182    9.5447 C.3     1  UNL1        0.0096
     21 C          12.8032   41.7052    6.6767 C.3     1  UNL1        0.1217
     22 C          18.0011   44.0836    7.5011 C.3     1  UNL1        0.0310
     23 C          16.6613   43.4754    7.2936 C.ar    1  UNL1       -0.0219
     24 C          16.2851   42.3459    8.0271 C.ar    1  UNL1       -0.0045
     25 C          15.0246   41.7734    7.8318 C.ar    1  UNL1       -0.0029
     26 C          14.1369   42.3328    6.9059 C.ar    1  UNL1       -0.0023
     27 C          14.5172   43.4587    6.1674 C.ar    1  UNL1       -0.0029
     28 C          15.7779   44.0310    6.3630 C.ar    1  UNL1       -0.0045
@<TRIPOS>BOND
     1    22    23    1
     2    24    25   ar
     3    26    27   ar
     4    28    23   ar
     5    21    26    1
     6    21     5    1
     7     1     5    1
     8     1     2    1
     9     2     3    1
    10     3     6    1
    11     4     5   am
    12     9    10   ar
    13    11    12   ar
    14    12    15    1
    15    13     8   ar
    16    18    14    1
    17    18    19    1
    18    19    20    1
    19    20    18    1
    20     6     4   am
    21     6     8    1
    22    15    14   am
    23    23    24   ar
    24    25    26   ar
    25    27    28   ar
    26     4     7    2
    27     8     9   ar
    28    10    11   ar
    29    12    13   ar
    30    14    16    2
    31    15    17    1
@<TRIPOS>MOLECULE
MolPort-006-579-642 ChemDiv-V021-6494 MCULE-5835425492 PubChem-46040606 ZINC000037543375 ZINC37543375
 28 31 0 0 0
SMALL
GASTEIGER

@<TRIPOS>ATOM
      1 C           9.9194   41.1804   10.5330 C.3     1  UNL1        0.0971
      2 C           9.2336   41.9165   11.6693 C.3     1  UNL1        0.0435
      3 C           7.7573   41.5222   11.7188 C.3     1  UNL1        0.1015
      4 C           7.8824   41.7231    9.2018 C.2     1  UNL1        0.3112
      5 N           9.3079   41.5743    9.2726 N.am    1  UNL1       -0.2596
      6 N           7.0915   41.6019   10.4074 N.am    1  UNL1       -0.2430
      7 O           7.3363   42.0011    8.0990 O.2     1  UNL1       -0.2520
      8 C           5.6518   41.4886   10.3705 C.ar    1  UNL1        0.0565
      9 C           4.9978   41.1666    9.1696 C.ar    1  UNL1        0.0150
     10 C           3.6053   41.0715    9.1203 C.ar    1  UNL1        0.0026
     11 C           2.8492   41.3026   10.2709 C.ar    1  UNL1        0.0148
     12 C           3.4803   41.6332   11.4780 C.ar    1  UNL1        0.0515
     13 C           4.8750   41.7255   11.5173 C.ar    1  UNL1        0.0296
     14 C           1.3551   42.2440   12.7780 C.2     1  UNL1        0.2256
     15 N           2.7390   41.8777   12.6809 N.am    1  UNL1       -0.2839
     16 O           0.6603   42.4372   11.7439 O.2     1  UNL1       -0.2748
     17 H           3.2310   41.7845   13.5285 H       1  UNL1        0.1549
     18 C           0.7424   42.4515   14.1249 C.3     1  UNL1        0.0768
     19 C          -0.6671   42.9948   13.9748 C.3     1  UNL1        0.0096
     20 C           0.4634   43.9275   14.3449 C.3     1  UNL1        0.0096
     21 C          10.1635   41.9544    8.1557 C.3     1  UNL1        0.1217
     22 C          15.6445   40.4627    9.1986 C.3     1  UNL1        0.0310
     23 C          14.2349   40.8514    8.9342 C.ar    1  UNL1       -0.0219
     24 C          13.2072   40.3405    9.7332 C.ar    1  UNL1       -0.0045
     25 C          11.8809   40.7061    9.4845 C.ar    1  UNL1       -0.0029
     26 C          11.5811   41.5868    8.4392 C.ar    1  UNL1       -0.0023
     27 C          12.6095   42.0917    7.6360 C.ar    1  UNL1       -0.0029
     28 C          13.9359   41.7260    7.8850 C.ar    1  UNL1       -0.0045
@<TRIPOS>BOND
     1    22    23    1
     2    24    25   ar
     3    26    27   ar
     4    28    23   ar
     5    21    26    1
     6    21     5    1
     7     1     5    1
     8     1     2    1
     9     2     3    1
    10     3     6    1
    11     4     5   am
    12     9    10   ar
    13    11    12   ar
    14    12    15    1
    15    13     8   ar
    16    18    14    1
    17    18    19    1
    18    19    20    1
    19    20    18    1
    20     6     4   am
    21     6     8    1
    22    15    14   am
    23    23    24   ar
    24    25    26   ar
    25    27    28   ar
    26     4     7    2
    27     8     9   ar
    28    10    11   ar
    29    12    13   ar
    30    14    16    2
    31    15    17    1
@<TRIPOS>MOLECULE
MolPort-006-579-642 ChemDiv-V021-6494 MCULE-5835425492 PubChem-46040606 ZINC000037543375 ZINC37543375
 28 31 0 0 0
SMALL
GASTEIGER

@<TRIPOS>ATOM
      1 C           8.4240   41.3936    6.5463 C.3     1  UNL1        0.0971
      2 C           9.6881   41.1576    5.7403 C.3     1  UNL1        0.0435
      3 C          10.7300   40.4579    6.6135 C.3     1  UNL1        0.1015
      4 C           9.9535   42.0774    8.3926 C.2     1  UNL1        0.3112
      5 N           8.7304   42.2696    7.6671 N.am    1  UNL1       -0.2596
      6 N          10.9152   41.1030    7.9246 N.am    1  UNL1       -0.2430
      7 O          10.1988   42.7889    9.4052 O.2     1  UNL1       -0.2520
      8 C          12.0350   40.6821    8.7345 C.ar    1  UNL1        0.0565
      9 C          11.8232   39.9065    9.8866 C.ar    1  UNL1        0.0150
     10 C          12.8978   39.5092   10.6852 C.ar    1  UNL1        0.0026
     11 C          14.1976   39.8874   10.3440 C.ar    1  UNL1        0.0148
     12 C          14.4314   40.6679    9.2035 C.ar    1  UNL1        0.0515
     13 C          13.3489   41.0603    8.4101 C.ar    1  UNL1        0.0296
     14 C          16.0983   42.2037    8.0025 C.2     1  UNL1        0.2256
     15 N          15.7512   41.0764    8.8197 N.am    1  UNL1       -0.2839
     16 O          15.2070   42.9336    7.4906 O.2     1  UNL1       -0.2748
     17 H          16.4971   40.5260    9.1515 H       1  UNL1        0.1549
     18 C          17.5365   42.4849    7.7106 C.3     1  UNL1        0.0768
     19 C          17.8764   43.9104    8.1067 C.3     1  UNL1        0.0096
     20 C          17.6478   43.5677    6.6523 C.3     1  UNL1        0.0096
     21 C           7.8664   43.4129    7.9326 C.3     1  UNL1        0.1217
     22 C           2.8419   41.6854   10.1965 C.3     1  UNL1        0.0310
     23 C           4.1330   42.1275    9.6084 C.ar    1  UNL1       -0.0219
     24 C           5.2392   41.2723    9.6276 C.ar    1  UNL1       -0.0045
     25 C           6.4540   41.6881    9.0745 C.ar    1  UNL1       -0.0029
     26 C           6.5627   42.9582    8.4971 C.ar    1  UNL1       -0.0023
     27 C           5.4571   43.8157    8.4848 C.ar    1  UNL1       -0.0029
     28 C           4.2422   43.3995    9.0381 C.ar    1  UNL1       -0.0045
@<TRIPOS>BOND
     1    22    23    1
     2    24    25   ar
     3    26    27   ar
     4    28    23   ar
     5    21    26    1
     6    21     5    1
     7     1     5    1
     8     1     2    1
     9     2     3    1
    10     3     6    1
    11     4     5   am
    12     9    10   ar
    13    11    12   ar
    14    12    15    1
    15    13     8   ar
    16    18    14    1
    17    18    19    1
    18    19    20    1
    19    20    18    1
    20     6     4   am
    21     6     8    1
    22    15    14   am
    23    23    24   ar
    24    25    26   ar
    25    27    28   ar
    26     4     7    2
    27     8     9   ar
    28    10    11   ar
    29    12    13   ar
    30    14    16    2
    31    15    17    1
@<TRIPOS>MOLECULE
MolPort-006-579-642 ChemDiv-V021-6494 MCULE-5835425492 PubChem-46040606 ZINC000037543375 ZINC37543375
 28 31 0 0 0
SMALL
GASTEIGER

@<TRIPOS>ATOM
      1 C          17.2983   39.4674   11.2674 C.3     1  UNL1        0.0971
      2 C          18.0394   39.4049    9.9443 C.3     1  UNL1        0.0435
      3 C          17.7289   40.6565    9.1230 C.3     1  UNL1        0.1015
      4 C          15.3614   40.2879    9.9291 C.2     1  UNL1        0.3112
      5 N          15.8662   39.4909   11.0104 N.am    1  UNL1       -0.2596
      6 N          16.2886   40.9525    9.0391 N.am    1  UNL1       -0.2430
      7 O          14.1169   40.3665    9.7377 O.2     1  UNL1       -0.2520
      8 C          15.8578   41.9610    8.0987 C.ar    1  UNL1        0.0565
      9 C          16.6514   43.0966    7.8658 C.ar    1  UNL1        0.0150
     10 C          16.2353   44.0851    6.9712 C.ar    1  UNL1        0.0026
     11 C          15.0172   43.9523    6.3023 C.ar    1  UNL1        0.0148
     12 C          14.2055   42.8316    6.5254 C.ar    1  UNL1        0.0515
     13 C          14.6312   41.8471    7.4226 C.ar    1  UNL1        0.0296
     14 C          11.8565   41.8302    6.2827 C.2     1  UNL1        0.2256
     15 N          12.9483   42.6588    5.8579 N.am    1  UNL1       -0.2839
     16 O          11.9501   41.1110    7.3139 O.2     1  UNL1       -0.2748
     17 H          12.8209   43.1611    5.0208 H       1  UNL1        0.1549
     18 C          10.6097   41.7788    5.4609 C.3     1  UNL1        0.0768
     19 C           9.7450   40.6124    5.9038 C.3     1  UNL1        0.0096
     20 C          10.5781   40.4971    4.6478 C.3     1  UNL1        0.0096
     21 C          14.9954   38.5914   11.7564 C.3     1  UNL1        0.1217
     22 C          10.1353   37.6960    8.7677 C.3     1  UNL1        0.0310
     23 C          11.3836   37.9227    9.5413 C.ar    1  UNL1       -0.0219
     24 C          11.4663   38.9935   10.4368 C.ar    1  UNL1       -0.0045
     25 C          12.6407   39.2070   11.1647 C.ar    1  UNL1       -0.0029
     26 C          13.7323   38.3469   11.0013 C.ar    1  UNL1       -0.0023
     27 C          13.6509   37.2800   10.0997 C.ar    1  UNL1       -0.0029
     28 C          12.4762   37.0667    9.3719 C.ar    1  UNL1       -0.0045
@<TRIPOS>BOND
     1    22    23    1
     2    24    25   ar
     3    26    27   ar
     4    28    23   ar
     5    21    26    1
     6    21     5    1
     7     1     5    1
     8     1     2    1
     9     2     3    1
    10     3     6    1
    11     4     5   am
    12     9    10   ar
    13    11    12   ar
    14    12    15    1
    15    13     8   ar
    16    18    14    1
    17    18    19    1
    18    19    20    1
    19    20    18    1
    20     6     4   am
    21     6     8    1
    22    15    14   am
    23    23    24   ar
    24    25    26   ar
    25    27    28   ar
    26     4     7    2
    27     8     9   ar
    28    10    11   ar
    29    12    13   ar
    30    14    16    2
    31    15    17    1
@<TRIPOS>MOLECULE
MolPort-006-579-642 ChemDiv-V021-6494 MCULE-5835425492 PubChem-46040606 ZINC000037543375 ZINC37543375
 28 31 0 0 0
SMALL
GASTEIGER

@<TRIPOS>ATOM
      1 C           7.1887   40.2818    7.3024 C.3     1  UNL1        0.0971
      2 C           8.2930   39.8272    6.3658 C.3     1  UNL1        0.0435
      3 C           9.5473   39.4954    7.1746 C.3     1  UNL1        0.1015
      4 C           8.9659   41.5948    8.4572 C.2     1  UNL1        0.3112
      5 N           7.6138   41.4934    7.9873 N.am    1  UNL1       -0.2596
      6 N           9.9136   40.5499    8.1354 N.am    1  UNL1       -0.2430
      7 O           9.3272   42.6132    9.1085 O.2     1  UNL1       -0.2520
      8 C          11.2038   40.4615    8.7791 C.ar    1  UNL1        0.0565
      9 C          11.3180   39.8983   10.0611 C.ar    1  UNL1        0.0150
     10 C          12.5584   39.8240   10.6984 C.ar    1  UNL1        0.0026
     11 C          13.6996   40.3171   10.0632 C.ar    1  UNL1        0.0148
     12 C          13.6078   40.8905    8.7875 C.ar    1  UNL1        0.0515
     13 C          12.3614   40.9599    8.1575 C.ar    1  UNL1        0.0296
     14 C          14.8425   42.6469    7.3840 C.2     1  UNL1        0.2256
     15 N          14.7563   41.4078    8.1024 N.am    1  UNL1       -0.2839
     16 O          13.8352   43.3938    7.2544 O.2     1  UNL1       -0.2748
     17 H          15.5707   40.8551    8.1275 H       1  UNL1        0.1549
     18 C          16.1319   43.0318    6.7345 C.3     1  UNL1        0.0768
     19 C          16.7888   44.1570    7.5136 C.3     1  UNL1        0.0096
     20 C          16.0510   44.4614    6.2300 C.3     1  UNL1        0.0096
     21 C           6.7059   42.6319    8.0470 C.3     1  UNL1        0.1217
     22 C           2.6483   41.8212   12.0761 C.3     1  UNL1        0.0310
     23 C           3.6909   42.0242   11.0369 C.ar    1  UNL1       -0.0219
     24 C           4.9968   41.5767   11.2599 C.ar    1  UNL1       -0.0045
     25 C           5.9778   41.7677   10.2823 C.ar    1  UNL1       -0.0029
     26 C           5.6528   42.4024    9.0783 C.ar    1  UNL1       -0.0023
     27 C           4.3475   42.8561    8.8591 C.ar    1  UNL1       -0.0029
     28 C           3.3665   42.6649    9.8371 C.ar    1  UNL1       -0.0045
@<TRIPOS>BOND
     1    22    23    1
     2    24    25   ar
     3    26    27   ar
     4    28    23   ar
     5    21    26    1
     6    21     5    1
     7     1     5    1
     8     1     2    1
     9     2     3    1
    10     3     6    1
    11     4     5   am
    12     9    10   ar
    13    11    12   ar
    14    12    15    1
    15    13     8   ar
    16    18    14    1
    17    18    19    1
    18    19    20    1
    19    20    18    1
    20     6     4   am
    21     6     8    1
    22    15    14   am
    23    23    24   ar
    24    25    26   ar
    25    27    28   ar
    26     4     7    2
    27     8     9   ar
    28    10    11   ar
    29    12    13   ar
    30    14    16    2
    31    15    17    1
@<TRIPOS>MOLECULE
MolPort-006-579-642 ChemDiv-V021-6494 MCULE-5835425492 PubChem-46040606 ZINC000037543375 ZINC37543375
 28 31 0 0 0
SMALL
GASTEIGER

@<TRIPOS>ATOM
      1 C           7.5523   42.2499   10.5989 C.3     1  UNL1        0.0971
      2 C           8.4735   41.5659   11.5923 C.3     1  UNL1        0.0435
      3 C           9.9141   41.6306   11.0845 C.3     1  UNL1        0.1015
      4 C           8.8801   41.0761    8.8452 C.2     1  UNL1        0.3112
      5 N           7.6119   41.5422    9.3287 N.am    1  UNL1       -0.2596
      6 N          10.0540   41.2059    9.6811 N.am    1  UNL1       -0.2430
      7 O           8.9526   40.5188    7.7158 O.2     1  UNL1       -0.2520
      8 C          11.3873   40.9946    9.1669 C.ar    1  UNL1        0.0565
      9 C          12.0671   42.0359    8.5132 C.ar    1  UNL1        0.0150
     10 C          13.3495   41.8361    7.9978 C.ar    1  UNL1        0.0026
     11 C          13.9661   40.5901    8.1252 C.ar    1  UNL1        0.0148
     12 C          13.3033   39.5346    8.7664 C.ar    1  UNL1        0.0515
     13 C          12.0196   39.7447    9.2796 C.ar    1  UNL1        0.0296
     14 C          15.2332   37.9581    9.3744 C.2     1  UNL1        0.2256
     15 N          13.9027   38.2407    8.9173 N.am    1  UNL1       -0.2839
     16 O          16.0379   38.8895    9.6467 O.2     1  UNL1       -0.2748
     17 H          13.3431   37.4655    8.6828 H       1  UNL1        0.1549
     18 C          15.6888   36.5388    9.4782 C.3     1  UNL1        0.0768
     19 C          17.1209   36.4174    8.9895 C.3     1  UNL1        0.0096
     20 C          15.9814   35.9865    8.0946 C.3     1  UNL1        0.0096
     21 C           6.3699   41.1907    8.6519 C.3     1  UNL1        0.1217
     22 C           1.8954   42.3022   12.1302 C.3     1  UNL1        0.0310
     23 C           3.0429   42.0127   11.2316 C.ar    1  UNL1       -0.0219
     24 C           3.8547   40.8995   11.4709 C.ar    1  UNL1       -0.0045
     25 C           4.9345   40.6270   10.6256 C.ar    1  UNL1       -0.0029
     26 C           5.2009   41.4650    9.5371 C.ar    1  UNL1       -0.0023
     27 C           4.3922   42.5825    9.3027 C.ar    1  UNL1       -0.0029
     28 C           3.3123   42.8547   10.1483 C.ar    1  UNL1       -0.0045
@<TRIPOS>BOND
     1    22    23    1
     2    24    25   ar
     3    26    27   ar
     4    28    23   ar
     5    21    26    1
     6    21     5    1
     7     1     5    1
     8     1     2    1
     9     2     3    1
    10     3     6    1
    11     4     5   am
    12     9    10   ar
    13    11    12   ar
    14    12    15    1
    15    13     8   ar
    16    18    14    1
    17    18    19    1
    18    19    20    1
    19    20    18    1
    20     6     4   am
    21     6     8    1
    22    15    14   am
    23    23    24   ar
    24    25    26   ar
    25    27    28   ar
    26     4     7    2
    27     8     9   ar
    28    10    11   ar
    29    12    13   ar
    30    14    16    2
    31    15    17    1
@<TRIPOS>MOLECULE
MolPort-006-579-642 ChemDiv-V021-6494 MCULE-5835425492 PubChem-46040606 ZINC000037543375 ZINC37543375
 28 31 0 0 0
SMALL
GASTEIGER

@<TRIPOS>ATOM
      1 C           8.9575   42.9434   10.6263 C.3     1  UNL1        0.0971
      2 C           9.0458   41.6671   11.4429 C.3     1  UNL1        0.0435
      3 C          10.4273   41.0375   11.2628 C.3     1  UNL1        0.1015
      4 C          10.1093   41.6520    8.8313 C.2     1  UNL1        0.3112
      5 N           9.1222   42.6195    9.2172 N.am    1  UNL1       -0.2596
      6 N          10.8346   40.9266    9.8517 N.am    1  UNL1       -0.2430
      7 O          10.3048   41.4112    7.6085 O.2     1  UNL1       -0.2520
      8 C          12.0033   40.1352    9.5441 C.ar    1  UNL1        0.0565
      9 C          11.8850   38.7518    9.3302 C.ar    1  UNL1        0.0150
     10 C          13.0115   37.9756    9.0491 C.ar    1  UNL1        0.0026
     11 C          14.2715   38.5731    8.9836 C.ar    1  UNL1        0.0148
     12 C          14.4141   39.9503    9.2017 C.ar    1  UNL1        0.0515
     13 C          13.2801   40.7189    9.4820 C.ar    1  UNL1        0.0296
     14 C          16.0494   41.7161    8.3146 C.2     1  UNL1        0.2256
     15 N          15.6906   40.6008    9.1430 N.am    1  UNL1       -0.2839
     16 O          15.2291   42.2035    7.4906 O.2     1  UNL1       -0.2748
     17 H          16.3942   40.2451    9.7326 H       1  UNL1        0.1549
     18 C          17.4334   42.2740    8.3919 C.3     1  UNL1        0.0768
     19 C          17.3768   43.7592    8.7006 C.3     1  UNL1        0.0096
     20 C          17.6429   43.2941    7.2872 C.3     1  UNL1        0.0096
     21 C           8.1833   43.1689    8.2472 C.3     1  UNL1        0.1217
     22 C           2.8138   41.5282    9.6005 C.3     1  UNL1        0.0310
     23 C           4.1939   41.9502    9.2462 C.ar    1  UNL1       -0.0219
     24 C           5.1797   40.9877    9.0077 C.ar    1  UNL1       -0.0045
     25 C           6.4782   41.3846    8.6744 C.ar    1  UNL1       -0.0029
     26 C           6.7912   42.7448    8.5746 C.ar    1  UNL1       -0.0023
     27 C           5.8056   43.7071    8.8205 C.ar    1  UNL1       -0.0029
     28 C           4.5071   43.3098    9.1537 C.ar    1  UNL1       -0.0045
@<TRIPOS>BOND
     1    22    23    1
     2    24    25   ar
     3    26    27   ar
     4    28    23   ar
     5    21    26    1
     6    21     5    1
     7     1     5    1
     8     1     2    1
     9     2     3    1
    10     3     6    1
    11     4     5   am
    12     9    10   ar
    13    11    12   ar
    14    12    15    1
    15    13     8   ar
    16    18    14    1
    17    18    19    1
    18    19    20    1
    19    20    18    1
    20     6     4   am
    21     6     8    1
    22    15    14   am
    23    23    24   ar
    24    25    26   ar
    25    27    28   ar
    26     4     7    2
    27     8     9   ar
    28    10    11   ar
    29    12    13   ar
    30    14    16    2
    31    15    17    1
@<TRIPOS>MOLECULE
MolPort-006-579-642 ChemDiv-V021-6494 MCULE-5835425492 PubChem-46040606 ZINC000037543375 ZINC37543375
 28 31 0 0 0
SMALL
GASTEIGER

@<TRIPOS>ATOM
      1 C          11.2992   39.9594    5.5005 C.3     1  UNL1        0.0971
      2 C           9.9768   39.2223    5.3938 C.3     1  UNL1        0.0435
      3 C           8.8233   40.2193    5.5060 C.3     1  UNL1        0.1015
      4 C          10.2215   41.2399    7.3484 C.2     1  UNL1        0.3112
      5 N          11.3844   40.5982    6.8052 N.am    1  UNL1       -0.2596
      6 N           8.9576   41.1349    6.6518 N.am    1  UNL1       -0.2430
      7 O          10.3011   41.8521    8.4486 O.2     1  UNL1       -0.2520
      8 C           7.8205   41.9548    7.0009 C.ar    1  UNL1        0.0565
      9 C           7.6526   43.2194    6.4126 C.ar    1  UNL1        0.0150
     10 C           6.5658   44.0263    6.7564 C.ar    1  UNL1        0.0026
     11 C           5.6359   43.5800    7.6971 C.ar    1  UNL1        0.0148
     12 C           5.7880   42.3251    8.3028 C.ar    1  UNL1        0.0515
     13 C           6.8793   41.5245    7.9515 C.ar    1  UNL1        0.0296
     14 C           3.5378   42.3379    9.5339 C.2     1  UNL1        0.2256
     15 N           4.8548   41.8314    9.2730 N.am    1  UNL1       -0.2839
     16 O           3.0981   43.3492    8.9229 O.2     1  UNL1       -0.2748
     17 H           5.1482   41.0650    9.8169 H       1  UNL1        0.1549
     18 C           2.6954   41.6890   10.5836 C.3     1  UNL1        0.0768
     19 C           3.3997   41.7543   11.9268 C.3     1  UNL1        0.0096
     20 C           3.4065   40.4664   11.1355 C.3     1  UNL1        0.0096
     21 C          12.5994   40.4424    7.5949 C.3     1  UNL1        0.1217
     22 C          16.3976   44.5902    6.2817 C.3     1  UNL1        0.0310
     23 C          15.4178   43.5267    6.6240 C.ar    1  UNL1       -0.0219
     24 C          15.7248   42.5848    7.6108 C.ar    1  UNL1       -0.0045
     25 C          14.8031   41.5841    7.9329 C.ar    1  UNL1       -0.0029
     26 C          13.5711   41.5271    7.2716 C.ar    1  UNL1       -0.0023
     27 C          13.2680   42.4659    6.2794 C.ar    1  UNL1       -0.0029
     28 C          14.1901   43.4666    5.9576 C.ar    1  UNL1       -0.0045
@<TRIPOS>BOND
     1    22    23    1
     2    24    25   ar
     3    26    27   ar
     4    28    23   ar
     5    21    26    1
     6    21     5    1
     7     1     5    1
     8     1     2    1
     9     2     3    1
    10     3     6    1
    11     4     5   am
    12     9    10   ar
    13    11    12   ar
    14    12    15    1
    15    13     8   ar
    16    18    14    1
    17    18    19    1
    18    19    20    1
    19    20    18    1
    20     6     4   am
    21     6     8    1
    22    15    14   am
    23    23    24   ar
    24    25    26   ar
    25    27    28   ar
    26     4     7    2
    27     8     9   ar
    28    10    11   ar
    29    12    13   ar
    30    14    16    2
    31    15    17    1
@<TRIPOS>MOLECULE
MolPort-006-579-642 ChemDiv-V021-6494 MCULE-5835425492 PubChem-46040606 ZINC000037543375 ZINC37543375
 28 31 0 0 0
SMALL
GASTEIGER

@<TRIPOS>ATOM
      1 C           8.2357   42.0642   10.4999 C.3     1  UNL1        0.0971
      2 C           8.9199   41.4188   11.6911 C.3     1  UNL1        0.0435
      3 C          10.4344   41.4346   11.4832 C.3     1  UNL1        0.1015
      4 C           9.8590   40.7798    9.1102 C.2     1  UNL1        0.3112
      5 N           8.5319   41.2902    9.3037 N.am    1  UNL1       -0.2596
      6 N          10.8433   40.9349   10.1594 N.am    1  UNL1       -0.2430
      7 O          10.1433   40.1631    8.0470 O.2     1  UNL1       -0.2520
      8 C          12.2470   40.6763    9.9367 C.ar    1  UNL1        0.0565
      9 C          12.9369   39.7646   10.7531 C.ar    1  UNL1        0.0150
     10 C          14.2978   39.5207   10.5564 C.ar    1  UNL1        0.0026
     11 C          14.9871   40.1900    9.5436 C.ar    1  UNL1        0.0148
     12 C          14.3207   41.1099    8.7223 C.ar    1  UNL1        0.0515
     13 C          12.9579   41.3469    8.9269 C.ar    1  UNL1        0.0296
     14 C          14.4850   42.9307    6.9231 C.2     1  UNL1        0.2256
     15 N          14.9932   41.8170    7.6717 N.am    1  UNL1       -0.2839
     16 O          13.3165   43.3632    7.1150 O.2     1  UNL1       -0.2748
     17 H          15.8981   41.5060    7.4398 H       1  UNL1        0.1549
     18 C          15.3346   43.5529    5.8631 C.3     1  UNL1        0.0768
     19 C          16.3805   44.4512    6.4984 C.3     1  UNL1        0.0096
     20 C          15.1485   45.0597    5.8686 C.3     1  UNL1        0.0096
     21 C           7.4432   40.9232    8.4070 C.3     1  UNL1        0.1217
     22 C           3.6672   45.2536    7.8203 C.3     1  UNL1        0.0310
     23 C           4.6418   44.1427    7.9757 C.ar    1  UNL1       -0.0219
     24 C           5.8112   44.1263    7.2093 C.ar    1  UNL1       -0.0045
     25 C           6.7282   43.0811    7.3553 C.ar    1  UNL1       -0.0029
     26 C           6.4789   42.0533    8.2716 C.ar    1  UNL1       -0.0023
     27 C           5.3050   42.0670    9.0329 C.ar    1  UNL1       -0.0029
     28 C           4.3881   43.1126    8.8866 C.ar    1  UNL1       -0.0045
@<TRIPOS>BOND
     1    22    23    1
     2    24    25   ar
     3    26    27   ar
     4    28    23   ar
     5    21    26    1
     6    21     5    1
     7     1     5    1
     8     1     2    1
     9     2     3    1
    10     3     6    1
    11     4     5   am
    12     9    10   ar
    13    11    12   ar
    14    12    15    1
    15    13     8   ar
    16    18    14    1
    17    18    19    1
    18    19    20    1
    19    20    18    1
    20     6     4   am
    21     6     8    1
    22    15    14   am
    23    23    24   ar
    24    25    26   ar
    25    27    28   ar
    26     4     7    2
    27     8     9   ar
    28    10    11   ar
    29    12    13   ar
    30    14    16    2
    31    15    17    1
@<TRIPOS>MOLECULE
MolPort-006-579-642 ChemDiv-V021-6494 MCULE-5835425492 PubChem-46040606 ZINC000037543375 ZINC37543375
 28 31 0 0 0
SMALL
GASTEIGER

@<TRIPOS>ATOM
      1 C           9.7901   40.9592   10.3194 C.3     1  UNL1        0.0971
      2 C           9.1748   41.5963   11.5519 C.3     1  UNL1        0.0435
      3 C           7.6777   41.2895   11.5946 C.3     1  UNL1        0.1015
      4 C           7.7662   41.7786    9.1160 C.2     1  UNL1        0.3112
      5 N           9.1804   41.5358    9.1306 N.am    1  UNL1       -0.2596
      6 N           6.9928   41.5641   10.3199 N.am    1  UNL1       -0.2430
      7 O           7.2175   42.2177    8.0682 O.2     1  UNL1       -0.2520
      8 C           5.5484   41.5439   10.3087 C.ar    1  UNL1        0.0565
      9 C           4.8522   41.3837    9.0991 C.ar    1  UNL1        0.0150
     10 C           3.4558   41.3799    9.0761 C.ar    1  UNL1        0.0026
     11 C           2.7383   41.5416   10.2627 C.ar    1  UNL1        0.0148
     12 C           3.4122   41.7111   11.4800 C.ar    1  UNL1        0.0515
     13 C           4.8105   41.7130   11.4926 C.ar    1  UNL1        0.0296
     14 C           1.3258   42.2145   12.8845 C.2     1  UNL1        0.2256
     15 N           2.7113   41.8799   12.7195 N.am    1  UNL1       -0.2839
     16 O           0.5906   42.4469   11.8872 O.2     1  UNL1       -0.2748
     17 H           3.2355   41.7530   13.5431 H       1  UNL1        0.1549
     18 C           0.7593   42.3415   14.2613 C.3     1  UNL1        0.0768
     19 C          -0.7424   42.1218   14.2259 C.3     1  UNL1        0.0096
     20 C          -0.1893   43.5252   14.3237 C.3     1  UNL1        0.0096
     21 C          10.0365   41.9925    8.0430 C.3     1  UNL1        0.1217
     22 C           9.9730   38.1595    3.7234 C.3     1  UNL1        0.0310
     23 C           9.9952   39.1440    4.8363 C.ar    1  UNL1       -0.0219
     24 C           9.5657   38.7663    6.1124 C.ar    1  UNL1       -0.0045
     25 C           9.5865   39.6924    7.1595 C.ar    1  UNL1       -0.0029
     26 C          10.0412   40.9962    6.9328 C.ar    1  UNL1       -0.0023
     27 C          10.4641   41.3750    5.6539 C.ar    1  UNL1       -0.0029
     28 C          10.4433   40.4485    4.6069 C.ar    1  UNL1       -0.0045
@<TRIPOS>BOND
     1    22    23    1
     2    24    25   ar
     3    26    27   ar
     4    28    23   ar
     5    21    26    1
     6    21     5    1
     7     1     5    1
     8     1     2    1
     9     2     3    1
    10     3     6    1
    11     4     5   am
    12     9    10   ar
    13    11    12   ar
    14    12    15    1
    15    13     8   ar
    16    18    14    1
    17    18    19    1
    18    19    20    1
    19    20    18    1
    20     6     4   am
    21     6     8    1
    22    15    14   am
    23    23    24   ar
    24    25    26   ar
    25    27    28   ar
    26     4     7    2
    27     8     9   ar
    28    10    11   ar
    29    12    13   ar
    30    14    16    2
    31    15    17    1
