@<TRIPOS>MOLECULE
MolPort-002-799-218 MCULE-6031247094 PubChem-135401448
 30 32 0 0 0
SMALL
GASTEIGER

@<TRIPOS>ATOM
      1 C          11.4888   35.4611   11.7247 C.ar    1  UNL1        0.2038
      2 C          11.8636   37.1725   10.1372 C.ar    1  UNL1        0.1499
      3 C          13.1679   37.3680   10.6135 C.ar    1  UNL1        0.1424
      4 C          13.6492   38.8283    8.6156 C.3     1  UNL1        0.0981
      5 C          14.3814   40.1133    8.2267 C.3     1  UNL1        0.0236
      6 C          12.1375   39.0649    8.4901 C.3     1  UNL1        0.0889
      7 C          11.7414   39.2485    7.0358 C.3     1  UNL1        0.0230
      8 C          15.2150   38.8266   10.6114 C.2     1  UNL1        0.2544
      9 C          13.6021   36.5350   11.6712 C.ar    1  UNL1        0.2761
     10 O          15.1322   39.4849   11.6839 O.2     1  UNL1       -0.2695
     11 O          14.7723   36.6089   12.1289 O.2     1  UNL1       -0.2657
     12 N          11.0593   36.2332   10.6961 N.ar    1  UNL1       -0.1988
     13 N          14.0070   38.3653    9.9758 N.am    1  UNL1       -0.2489
     14 N          11.3779   37.9541    9.0479 N.pl3   1  UNL1       -0.3169
     15 N          12.7528   35.6158   12.1981 N.ar    1  UNL1       -0.2932
     16 H          10.4999   37.7356    8.6597 H       1  UNL1        0.1482
     17 H          13.0603   35.0478   12.9411 H       1  UNL1        0.1717
     18 C          16.5411   38.5203   10.0379 C.ar    1  UNL1        0.0730
     19 C          17.5242   39.5139    9.9451 C.ar    1  UNL1        0.1034
     20 C          19.0576   37.9743    8.9884 C.ar    1  UNL1        0.0989
     21 C          18.1114   36.9510    9.0655 C.ar    1  UNL1        0.0208
     22 C          16.8503   37.2286    9.5944 C.ar    1  UNL1        0.0077
     23 N          18.7479   39.2238    9.4267 N.ar    1  UNL1       -0.2422
     24 C          10.3119   34.3246   13.6824 C.2     1  UNL1        0.2277
     25 O          10.8457   35.0700   14.5461 O.2     1  UNL1       -0.2747
     26 N          10.6025   34.4870   12.2868 N.am    1  UNL1       -0.2554
     27 H          10.1529   33.8748   11.6604 H       1  UNL1        0.1577
     28 C          10.0685   32.2739   15.0411 C.3     1  UNL1        0.0096
     29 C           9.3652   33.2610   14.1298 C.3     1  UNL1        0.0769
     30 C           8.1809   33.8741   14.8514 C.3     1  UNL1        0.0096
@<TRIPOS>BOND
     1    28    29    1
     2    29    30    1
     3    29    24    1
     4    24    26   am
     5     2    12   ar
     6     3    13    1
     7     3     9   ar
     8     4    13    1
     9     4     5    1
    10     4     6    1
    11     6     7    1
    12     6    14    1
    13     8    18    1
    14    19    23   ar
    15    20    21   ar
    16    22    18   ar
    17     9    15   ar
    18    26     1    1
    19    13     8   am
    20    14     2    1
    21    15     1   ar
    22    24    25    2
    23     1    12   ar
    24     2     3   ar
    25     8    10    2
    26    18    19   ar
    27    20    23   ar
    28    21    22   ar
    29     9    11    2
    30    26    27    1
    31    14    16    1
    32    15    17    1
@<TRIPOS>MOLECULE
MolPort-002-799-218 MCULE-6031247094 PubChem-135401448
 30 32 0 0 0
SMALL
GASTEIGER

@<TRIPOS>ATOM
      1 C           8.6918   41.4293   10.4606 C.ar    1  UNL1        0.2038
      2 C          10.8617   40.4984   10.5790 C.ar    1  UNL1        0.1499
      3 C          11.1990   41.0541    9.3365 C.ar    1  UNL1        0.1424
      4 C          13.6093   40.4393    9.7466 C.3     1  UNL1        0.0981
      5 C          14.8432   39.9028    9.0198 C.3     1  UNL1        0.0236
      6 C          13.1147   39.3716   10.7326 C.3     1  UNL1        0.0889
      7 C          14.1114   39.1805   11.8621 C.3     1  UNL1        0.0230
      8 C          12.8320   41.1086    7.4265 C.2     1  UNL1        0.2544
      9 C          10.2138   41.8355    8.6885 C.ar    1  UNL1        0.2761
     10 O          12.2954   40.3964    6.5346 O.2     1  UNL1       -0.2695
     11 O          10.4459   42.4107    7.5932 O.2     1  UNL1       -0.2657
     12 N           9.6286   40.6952   11.1102 N.ar    1  UNL1       -0.1988
     13 N          12.5347   40.8420    8.8109 N.am    1  UNL1       -0.2489
     14 N          11.8227   39.7314   11.3013 N.pl3   1  UNL1       -0.3169
     15 N           8.9933   41.9939    9.2623 N.ar    1  UNL1       -0.2932
     16 H          11.6058   39.4352   12.2148 H       1  UNL1        0.1482
     17 H           8.3105   42.5307    8.7987 H       1  UNL1        0.1717
     18 C          13.7338   42.2129    7.0411 C.ar    1  UNL1        0.0730
     19 C          13.2613   43.2830    6.2704 C.ar    1  UNL1        0.1034
     20 C          15.3955   44.3222    6.3187 C.ar    1  UNL1        0.0989
     21 C          15.9094   43.2798    7.0918 C.ar    1  UNL1        0.0208
     22 C          15.0719   42.2240    7.4537 C.ar    1  UNL1        0.0077
     23 N          14.0932   44.3033    5.9278 N.ar    1  UNL1       -0.2422
     24 C           6.1417   41.4627   10.3863 C.2     1  UNL1        0.2277
     25 O           6.0888   41.1566    9.1656 O.2     1  UNL1       -0.2747
     26 N           7.4019   41.6048   11.0572 N.am    1  UNL1       -0.2554
     27 H           7.3778   41.8440   12.0119 H       1  UNL1        0.1577
     28 C           3.9342   42.5744   10.3450 C.3     1  UNL1        0.0096
     29 C           4.8683   41.6779   11.1344 C.3     1  UNL1        0.0769
     30 C           4.1901   40.3521   11.4200 C.3     1  UNL1        0.0096
@<TRIPOS>BOND
     1    28    29    1
     2    29    30    1
     3    29    24    1
     4    24    26   am
     5     2    12   ar
     6     3    13    1
     7     3     9   ar
     8     4    13    1
     9     4     5    1
    10     4     6    1
    11     6     7    1
    12     6    14    1
    13     8    18    1
    14    19    23   ar
    15    20    21   ar
    16    22    18   ar
    17     9    15   ar
    18    26     1    1
    19    13     8   am
    20    14     2    1
    21    15     1   ar
    22    24    25    2
    23     1    12   ar
    24     2     3   ar
    25     8    10    2
    26    18    19   ar
    27    20    23   ar
    28    21    22   ar
    29     9    11    2
    30    26    27    1
    31    14    16    1
    32    15    17    1
@<TRIPOS>MOLECULE
MolPort-002-799-218 MCULE-6031247094 PubChem-135401448
 30 32 0 0 0
SMALL
GASTEIGER

@<TRIPOS>ATOM
      1 C          13.3584   42.4320    7.2731 C.ar    1  UNL1        0.2038
      2 C          11.6526   41.1355    6.2739 C.ar    1  UNL1        0.1499
      3 C          10.7390   41.5215    7.2652 C.ar    1  UNL1        0.1424
      4 C           8.8740   40.5142    5.9002 C.3     1  UNL1        0.0981
      5 C           7.5843   39.7076    6.0557 C.3     1  UNL1        0.0236
      6 C           9.9255   39.6346    5.2091 C.3     1  UNL1        0.0889
      7 C           9.5302   39.3554    3.7698 C.3     1  UNL1        0.0230
      8 C           8.4974   41.1289    8.3324 C.2     1  UNL1        0.2544
      9 C          11.2022   42.4152    8.2592 C.ar    1  UNL1        0.2761
     10 O           8.7563   40.4579    9.3684 O.2     1  UNL1       -0.2695
     11 O          10.4382   42.8509    9.1596 O.2     1  UNL1       -0.2657
     12 N          12.9297   41.5937    6.2975 N.ar    1  UNL1       -0.1988
     13 N           9.3756   41.0302    7.1943 N.am    1  UNL1       -0.2489
     14 N          11.2381   40.2662    5.2222 N.pl3   1  UNL1       -0.3169
     15 N          12.4929   42.8367    8.2389 N.ar    1  UNL1       -0.2932
     16 H          11.8599   40.0869    4.4802 H       1  UNL1        0.1482
     17 H          12.8090   43.4503    8.9409 H       1  UNL1        0.1717
     18 C           7.3180   42.0177    8.3084 C.ar    1  UNL1        0.0730
     19 C           6.1332   41.6473    8.9575 C.ar    1  UNL1        0.1034
     20 C           5.0865   43.6767    8.3070 C.ar    1  UNL1        0.0989
     21 C           6.2470   44.0900    7.6509 C.ar    1  UNL1        0.0208
     22 C           7.3653   43.2555    7.6554 C.ar    1  UNL1        0.0077
     23 N           5.0536   42.4747    8.9422 N.ar    1  UNL1       -0.2422
     24 C          15.1989   44.0713    6.6138 C.2     1  UNL1        0.2277
     25 O          14.4147   44.8303    5.9848 O.2     1  UNL1       -0.2747
     26 N          14.7168   42.8847    7.2604 N.am    1  UNL1       -0.2554
     27 H          15.3783   42.3332    7.7374 H       1  UNL1        0.1577
     28 C          17.2457   43.9619    7.9956 C.3     1  UNL1        0.0096
     29 C          16.6481   44.4225    6.6803 C.3     1  UNL1        0.0769
     30 C          17.4003   43.7922    5.5244 C.3     1  UNL1        0.0096
@<TRIPOS>BOND
     1    28    29    1
     2    29    30    1
     3    29    24    1
     4    24    26   am
     5     2    12   ar
     6     3    13    1
     7     3     9   ar
     8     4    13    1
     9     4     5    1
    10     4     6    1
    11     6     7    1
    12     6    14    1
    13     8    18    1
    14    19    23   ar
    15    20    21   ar
    16    22    18   ar
    17     9    15   ar
    18    26     1    1
    19    13     8   am
    20    14     2    1
    21    15     1   ar
    22    24    25    2
    23     1    12   ar
    24     2     3   ar
    25     8    10    2
    26    18    19   ar
    27    20    23   ar
    28    21    22   ar
    29     9    11    2
    30    26    27    1
    31    14    16    1
    32    15    17    1
@<TRIPOS>MOLECULE
MolPort-002-799-218 MCULE-6031247094 PubChem-135401448
 30 32 0 0 0
SMALL
GASTEIGER

@<TRIPOS>ATOM
      1 C          10.9634   41.0729   11.0603 C.ar    1  UNL1        0.2038
      2 C          11.2590   40.3415    8.8316 C.ar    1  UNL1        0.1499
      3 C          12.3285   39.5188    9.2133 C.ar    1  UNL1        0.1424
      4 C          12.2769   38.4412    6.9346 C.3     1  UNL1        0.0981
      5 C          13.2098   37.9082    5.8465 C.3     1  UNL1        0.0236
      6 C          11.5794   39.7046    6.4107 C.3     1  UNL1        0.0889
      7 C          10.6191   39.3607    5.2859 C.3     1  UNL1        0.0230
      8 C          14.2690   38.1052    8.4689 C.2     1  UNL1        0.2544
      9 C          12.6690   39.4956   10.5861 C.ar    1  UNL1        0.2761
     10 O          15.2770   38.8454    8.6320 O.2     1  UNL1       -0.2695
     11 O          13.5840   38.7507   11.0244 O.2     1  UNL1       -0.2657
     12 N          10.6051   41.0935    9.7527 N.ar    1  UNL1       -0.1988
     13 N          12.9886   38.7111    8.2047 N.am    1  UNL1       -0.2489
     14 N          10.8415   40.3815    7.4687 N.pl3   1  UNL1       -0.3169
     15 N          11.9854   40.2740   11.4639 N.ar    1  UNL1       -0.2932
     16 H          10.0274   40.8833    7.2350 H       1  UNL1        0.1482
     17 H          12.2365   40.2592   12.4158 H       1  UNL1        0.1717
     18 C          14.4098   36.6387    8.5725 C.ar    1  UNL1        0.0730
     19 C          15.4068   35.9659    7.8543 C.ar    1  UNL1        0.1034
     20 C          14.7218   33.8822    8.7630 C.ar    1  UNL1        0.0989
     21 C          13.7172   34.5099    9.5012 C.ar    1  UNL1        0.0208
     22 C          13.5650   35.8936    9.4043 C.ar    1  UNL1        0.0077
     23 N          15.5396   34.6164    7.9622 N.ar    1  UNL1       -0.2422
     24 C           9.4364   41.4080   13.0766 C.2     1  UNL1        0.2277
     25 O           9.2965   40.1733   13.2827 O.2     1  UNL1       -0.2747
     26 N          10.2481   41.8881   11.9953 N.am    1  UNL1       -0.2554
     27 H          10.3196   42.8640   11.8867 H       1  UNL1        0.1577
     28 C           7.6159   43.0723   13.2399 C.3     1  UNL1        0.0096
     29 C           8.7429   42.3754   13.9772 C.3     1  UNL1        0.0769
     30 C           8.1960   41.6641   15.1995 C.3     1  UNL1        0.0096
@<TRIPOS>BOND
     1    28    29    1
     2    29    30    1
     3    29    24    1
     4    24    26   am
     5     2    12   ar
     6     3    13    1
     7     3     9   ar
     8     4    13    1
     9     4     5    1
    10     4     6    1
    11     6     7    1
    12     6    14    1
    13     8    18    1
    14    19    23   ar
    15    20    21   ar
    16    22    18   ar
    17     9    15   ar
    18    26     1    1
    19    13     8   am
    20    14     2    1
    21    15     1   ar
    22    24    25    2
    23     1    12   ar
    24     2     3   ar
    25     8    10    2
    26    18    19   ar
    27    20    23   ar
    28    21    22   ar
    29     9    11    2
    30    26    27    1
    31    14    16    1
    32    15    17    1
@<TRIPOS>MOLECULE
MolPort-002-799-218 MCULE-6031247094 PubChem-135401448
 30 32 0 0 0
SMALL
GASTEIGER

@<TRIPOS>ATOM
      1 C           8.4716   41.5718   11.7939 C.ar    1  UNL1        0.2038
      2 C           6.2124   42.0295   11.2687 C.ar    1  UNL1        0.1499
      3 C           6.5909   42.7010   10.0973 C.ar    1  UNL1        0.1424
      4 C           4.1772   42.7365    9.3704 C.3     1  UNL1        0.0981
      5 C           3.1514   43.6405    8.6856 C.3     1  UNL1        0.0236
      6 C           3.7849   42.5749   10.8459 C.3     1  UNL1        0.0889
      7 C           2.4982   41.7790   10.9757 C.3     1  UNL1        0.0230
      8 C           5.8885   44.2079    8.2123 C.2     1  UNL1        0.2544
      9 C           7.9734   42.7591    9.8029 C.ar    1  UNL1        0.2761
     10 O           6.3099   45.3481    8.5484 O.2     1  UNL1       -0.2695
     11 O           8.3993   43.3004    8.7494 O.2     1  UNL1       -0.2657
     12 N           7.1501   41.4842   12.0842 N.ar    1  UNL1       -0.1988
     13 N           5.5593   43.2508    9.2377 N.am    1  UNL1       -0.2489
     14 N           4.8321   41.9029   11.6034 N.pl3   1  UNL1       -0.3169
     15 N           8.8692   42.2025   10.6582 N.ar    1  UNL1       -0.2932
     16 H           4.5783   41.3426   12.3721 H       1  UNL1        0.1482
     17 H           9.8299   42.2572   10.4502 H       1  UNL1        0.1717
     18 C           5.7604   43.8643    6.7815 C.ar    1  UNL1        0.0730
     19 C           6.7454   43.1017    6.1408 C.ar    1  UNL1        0.1034
     20 C           5.5404   43.1759    4.0965 C.ar    1  UNL1        0.0989
     21 C           4.5315   43.9333    4.6938 C.ar    1  UNL1        0.0208
     22 C           4.6447   44.2752    6.0419 C.ar    1  UNL1        0.0077
     23 N           6.6170   42.7782    4.8258 N.ar    1  UNL1       -0.2422
     24 C           9.3813   41.0513   14.1201 C.2     1  UNL1        0.2277
     25 O           8.4500   41.6583   14.7126 O.2     1  UNL1       -0.2747
     26 N           9.4253   40.9865   12.6874 N.am    1  UNL1       -0.2554
     27 H          10.1774   40.4964   12.2832 H       1  UNL1        0.1577
     28 C          11.6407   41.3177   15.0869 C.3     1  UNL1        0.0096
     29 C          10.4481   40.3942   14.9311 C.3     1  UNL1        0.0769
     30 C           9.9144   40.0079   16.2967 C.3     1  UNL1        0.0096
@<TRIPOS>BOND
     1    28    29    1
     2    29    30    1
     3    29    24    1
     4    24    26   am
     5     2    12   ar
     6     3    13    1
     7     3     9   ar
     8     4    13    1
     9     4     5    1
    10     4     6    1
    11     6     7    1
    12     6    14    1
    13     8    18    1
    14    19    23   ar
    15    20    21   ar
    16    22    18   ar
    17     9    15   ar
    18    26     1    1
    19    13     8   am
    20    14     2    1
    21    15     1   ar
    22    24    25    2
    23     1    12   ar
    24     2     3   ar
    25     8    10    2
    26    18    19   ar
    27    20    23   ar
    28    21    22   ar
    29     9    11    2
    30    26    27    1
    31    14    16    1
    32    15    17    1
@<TRIPOS>MOLECULE
MolPort-002-799-218 MCULE-6031247094 PubChem-135401448
 30 32 0 0 0
SMALL
GASTEIGER

@<TRIPOS>ATOM
      1 C           8.3243   41.6165    9.5705 C.ar    1  UNL1        0.2038
      2 C          10.4479   40.6811   10.0228 C.ar    1  UNL1        0.1499
      3 C          10.9572   41.1816    8.8160 C.ar    1  UNL1        0.1424
      4 C          13.2825   40.5734    9.5766 C.3     1  UNL1        0.0981
      5 C          14.5981   40.0004    9.0482 C.3     1  UNL1        0.0236
      6 C          12.6468   39.5510   10.5295 C.3     1  UNL1        0.0889
      7 C          13.4783   39.4036   11.7915 C.3     1  UNL1        0.0230
      8 C          12.8356   41.1468    7.1463 C.2     1  UNL1        0.2544
      9 C          10.0778   41.9394    8.0075 C.ar    1  UNL1        0.2761
     10 O          12.4181   40.3997    6.2199 O.2     1  UNL1       -0.2695
     11 O          10.4631   42.4663    6.9313 O.2     1  UNL1       -0.2657
     12 N           9.1560   40.9064   10.3719 N.ar    1  UNL1       -0.1988
     13 N          12.3497   40.9409    8.4870 N.am    1  UNL1       -0.2489
     14 N          11.2933   39.9411   10.9008 N.pl3   1  UNL1       -0.3169
     15 N           8.7922   42.1280    8.4021 N.ar    1  UNL1       -0.2932
     16 H          10.9509   39.6852   11.7877 H       1  UNL1        0.1482
     17 H           8.1847   42.6479    7.8278 H       1  UNL1        0.1717
     18 C          13.7933   42.2293    6.8420 C.ar    1  UNL1        0.0730
     19 C          15.1023   42.1833    7.3388 C.ar    1  UNL1        0.1034
     20 C          15.6312   44.2354    6.2683 C.ar    1  UNL1        0.0989
     21 C          14.3393   44.3214    5.7471 C.ar    1  UNL1        0.0208
     22 C          13.4203   43.3117    6.0358 C.ar    1  UNL1        0.0077
     23 N          15.9837   43.1771    7.0460 N.ar    1  UNL1       -0.2422
     24 C           5.8014   41.4249    9.2422 C.2     1  UNL1        0.2277
     25 O           5.9050   40.8349    8.1341 O.2     1  UNL1       -0.2747
     26 N           6.9671   41.8235    9.9776 N.am    1  UNL1       -0.2554
     27 H           6.8211   42.2795   10.8378 H       1  UNL1        0.1577
     28 C           4.4748   41.7487   11.3028 C.3     1  UNL1        0.0096
     29 C           4.4410   41.7076    9.7873 C.3     1  UNL1        0.0769
     30 C           3.9164   43.0242    9.2483 C.3     1  UNL1        0.0096
@<TRIPOS>BOND
     1    28    29    1
     2    29    30    1
     3    29    24    1
     4    24    26   am
     5     2    12   ar
     6     3    13    1
     7     3     9   ar
     8     4    13    1
     9     4     5    1
    10     4     6    1
    11     6     7    1
    12     6    14    1
    13     8    18    1
    14    19    23   ar
    15    20    21   ar
    16    22    18   ar
    17     9    15   ar
    18    26     1    1
    19    13     8   am
    20    14     2    1
    21    15     1   ar
    22    24    25    2
    23     1    12   ar
    24     2     3   ar
    25     8    10    2
    26    18    19   ar
    27    20    23   ar
    28    21    22   ar
    29     9    11    2
    30    26    27    1
    31    14    16    1
    32    15    17    1
@<TRIPOS>MOLECULE
MolPort-002-799-218 MCULE-6031247094 PubChem-135401448
 30 32 0 0 0
SMALL
GASTEIGER

@<TRIPOS>ATOM
      1 C          13.0626   41.5211    8.0159 C.ar    1  UNL1        0.2038
      2 C          11.2500   40.4379    6.9527 C.ar    1  UNL1        0.1499
      3 C          10.3294   41.1377    7.7460 C.ar    1  UNL1        0.1424
      4 C           8.4651   40.3098    6.2645 C.3     1  UNL1        0.0981
      5 C           7.0258   39.7978    6.3329 C.3     1  UNL1        0.0236
      6 C           9.3816   39.1507    5.8477 C.3     1  UNL1        0.0889
      7 C           9.1053   38.7366    4.4132 C.3     1  UNL1        0.0230
      8 C           7.9475   41.3479    8.5204 C.2     1  UNL1        0.2544
      9 C          10.8517   42.0670    8.6760 C.ar    1  UNL1        0.2761
     10 O           7.9387   40.8054    9.6589 O.2     1  UNL1       -0.2695
     11 O          10.0973   42.7726    9.3952 O.2     1  UNL1       -0.2657
     12 N          12.5833   40.6417    7.1020 N.ar    1  UNL1       -0.1988
     13 N           8.9108   40.9112    7.5420 N.am    1  UNL1       -0.2489
     14 N          10.7869   39.5142    5.9700 N.pl3   1  UNL1       -0.3169
     15 N          12.1955   42.2259    8.7886 N.ar    1  UNL1       -0.2932
     16 H          11.4386   39.1087    5.3537 H       1  UNL1        0.1482
     17 H          12.5500   42.8673    9.4461 H       1  UNL1        0.1717
     18 C           6.9913   42.4316    8.2156 C.ar    1  UNL1        0.0730
     19 C           7.2550   43.3465    7.1881 C.ar    1  UNL1        0.1034
     20 C           5.2026   44.4683    7.5959 C.ar    1  UNL1        0.0989
     21 C           4.8951   43.5770    8.6251 C.ar    1  UNL1        0.0208
     22 C           5.7944   42.5551    8.9319 C.ar    1  UNL1        0.0077
     23 N           6.3656   44.3358    6.9038 N.ar    1  UNL1       -0.2422
     24 C          15.2911   42.5557    7.3280 C.2     1  UNL1        0.2277
     25 O          14.7828   43.2438    6.4034 O.2     1  UNL1       -0.2747
     26 N          14.4780   41.6985    8.1420 N.am    1  UNL1       -0.2554
     27 H          14.9332   41.1872    8.8495 H       1  UNL1        0.1577
     28 C          17.1841   44.0865    7.7568 C.3     1  UNL1        0.0096
     29 C          16.7613   42.6422    7.5704 C.3     1  UNL1        0.0769
     30 C          17.1462   41.8314    8.7925 C.3     1  UNL1        0.0096
@<TRIPOS>BOND
     1    28    29    1
     2    29    30    1
     3    29    24    1
     4    24    26   am
     5     2    12   ar
     6     3    13    1
     7     3     9   ar
     8     4    13    1
     9     4     5    1
    10     4     6    1
    11     6     7    1
    12     6    14    1
    13     8    18    1
    14    19    23   ar
    15    20    21   ar
    16    22    18   ar
    17     9    15   ar
    18    26     1    1
    19    13     8   am
    20    14     2    1
    21    15     1   ar
    22    24    25    2
    23     1    12   ar
    24     2     3   ar
    25     8    10    2
    26    18    19   ar
    27    20    23   ar
    28    21    22   ar
    29     9    11    2
    30    26    27    1
    31    14    16    1
    32    15    17    1
@<TRIPOS>MOLECULE
MolPort-002-799-218 MCULE-6031247094 PubChem-135401448
 30 32 0 0 0
SMALL
GASTEIGER

@<TRIPOS>ATOM
      1 C          10.3619   41.7520    9.8625 C.ar    1  UNL1        0.2038
      2 C           8.6664   42.9407    8.7216 C.ar    1  UNL1        0.1499
      3 C           7.6771   42.1103    9.2676 C.ar    1  UNL1        0.1424
      4 C           5.9132   43.6951    8.4116 C.3     1  UNL1        0.0981
      5 C           4.5240   43.7003    7.7723 C.3     1  UNL1        0.0236
      6 C           6.9340   44.1894    7.3768 C.3     1  UNL1        0.0889
      7 C           6.7145   45.6594    7.0655 C.3     1  UNL1        0.0230
      8 C           5.2758   41.3705    9.2022 C.2     1  UNL1        0.2544
      9 C           8.1027   41.0942   10.1550 C.ar    1  UNL1        0.2761
     10 O           5.2999   40.2826    8.5647 O.2     1  UNL1       -0.2695
     11 O           7.2794   40.3336   10.7276 O.2     1  UNL1       -0.2657
     12 N           9.9744   42.7470    9.0269 N.ar    1  UNL1       -0.1988
     13 N           6.2869   42.3622    8.9370 N.am    1  UNL1       -0.2489
     14 N           8.2999   44.0075    7.8493 N.pl3   1  UNL1       -0.3169
     15 N           9.4257   40.9406   10.4199 N.ar    1  UNL1       -0.2932
     16 H           8.9931   44.6424    7.5566 H       1  UNL1        0.1482
     17 H           9.7133   40.2239   11.0306 H       1  UNL1        0.1717
     18 C           4.2317   41.6022   10.2208 C.ar    1  UNL1        0.0730
     19 C           3.0691   42.3149    9.9004 C.ar    1  UNL1        0.1034
     20 C           2.2330   42.0352   12.1049 C.ar    1  UNL1        0.0989
     21 C           3.3720   41.3150   12.4686 C.ar    1  UNL1        0.0208
     22 C           4.3720   41.0983   11.5198 C.ar    1  UNL1        0.0077
     23 N           2.1053   42.5155   10.8391 N.ar    1  UNL1       -0.2422
     24 C          12.5266   40.4018    9.8876 C.2     1  UNL1        0.2277
     25 O          12.0000   39.3883    9.3564 O.2     1  UNL1       -0.2747
     26 N          11.7542   41.5819   10.1508 N.am    1  UNL1       -0.2554
     27 H          12.2227   42.3417   10.5661 H       1  UNL1        0.1577
     28 C          14.2516   39.2347   11.2191 C.3     1  UNL1        0.0096
     29 C          13.9756   40.3622   10.2434 C.3     1  UNL1        0.0769
     30 C          14.8229   40.1847    8.9986 C.3     1  UNL1        0.0096
@<TRIPOS>BOND
     1    28    29    1
     2    29    30    1
     3    29    24    1
     4    24    26   am
     5     2    12   ar
     6     3    13    1
     7     3     9   ar
     8     4    13    1
     9     4     5    1
    10     4     6    1
    11     6     7    1
    12     6    14    1
    13     8    18    1
    14    19    23   ar
    15    20    21   ar
    16    22    18   ar
    17     9    15   ar
    18    26     1    1
    19    13     8   am
    20    14     2    1
    21    15     1   ar
    22    24    25    2
    23     1    12   ar
    24     2     3   ar
    25     8    10    2
    26    18    19   ar
    27    20    23   ar
    28    21    22   ar
    29     9    11    2
    30    26    27    1
    31    14    16    1
    32    15    17    1
@<TRIPOS>MOLECULE
MolPort-002-799-218 MCULE-6031247094 PubChem-135401448
 30 32 0 0 0
SMALL
GASTEIGER

@<TRIPOS>ATOM
      1 C          13.6172   38.3690    9.1720 C.ar    1  UNL1        0.2038
      2 C          15.8871   38.0938    9.7729 C.ar    1  UNL1        0.1499
      3 C          15.9681   36.9045    9.0344 C.ar    1  UNL1        0.1424
      4 C          18.4726   36.9286    9.3220 C.3     1  UNL1        0.0981
      5 C          19.6522   35.9902    9.5800 C.3     1  UNL1        0.0236
      6 C          18.2697   37.8168   10.5577 C.3     1  UNL1        0.0889
      7 C          19.4324   38.7791   10.7244 C.3     1  UNL1        0.0230
      8 C          17.2929   34.8322    8.5166 C.2     1  UNL1        0.2544
      9 C          14.8056   36.4929    8.3413 C.ar    1  UNL1        0.2761
     10 O          16.7362   33.9263    9.1948 O.2     1  UNL1       -0.2695
     11 O          14.8016   35.4640    7.6163 O.2     1  UNL1       -0.2657
     12 N          14.7262   38.7944    9.8260 N.ar    1  UNL1       -0.1988
     13 N          17.2325   36.1947    8.9815 N.am    1  UNL1       -0.2489
     14 N          17.0345   38.5832   10.4639 N.pl3   1  UNL1       -0.3169
     15 N          13.6682   37.2288    8.4352 N.ar    1  UNL1       -0.2932
     16 H          16.9904   39.4688   10.8918 H       1  UNL1        0.1482
     17 H          12.8611   36.9288    7.9579 H       1  UNL1        0.1717
     18 C          17.9752   34.4892    7.2524 C.ar    1  UNL1        0.0730
     19 C          18.6836   33.2871    7.1282 C.ar    1  UNL1        0.1034
     20 C          19.2497   33.7979    4.8797 C.ar    1  UNL1        0.0989
     21 C          18.5515   35.0041    4.9553 C.ar    1  UNL1        0.0208
     22 C          17.9117   35.3466    6.1471 C.ar    1  UNL1        0.0077
     23 N          19.3005   32.9707    5.9579 N.ar    1  UNL1       -0.2422
     24 C          12.0175   39.9489   10.3779 C.2     1  UNL1        0.2277
     25 O          12.7454   40.0407   11.4018 O.2     1  UNL1       -0.2747
     26 N          12.4128   39.1382    9.2621 N.am    1  UNL1       -0.2554
     27 H          11.8021   39.1081    8.4904 H       1  UNL1        0.1577
     28 C          10.2718   41.0473   11.7406 C.3     1  UNL1        0.0096
     29 C          10.7279   40.6992   10.3369 C.3     1  UNL1        0.0769
     30 C          10.8762   41.9648    9.5152 C.3     1  UNL1        0.0096
@<TRIPOS>BOND
     1    28    29    1
     2    29    30    1
     3    29    24    1
     4    24    26   am
     5     2    12   ar
     6     3    13    1
     7     3     9   ar
     8     4    13    1
     9     4     5    1
    10     4     6    1
    11     6     7    1
    12     6    14    1
    13     8    18    1
    14    19    23   ar
    15    20    21   ar
    16    22    18   ar
    17     9    15   ar
    18    26     1    1
    19    13     8   am
    20    14     2    1
    21    15     1   ar
    22    24    25    2
    23     1    12   ar
    24     2     3   ar
    25     8    10    2
    26    18    19   ar
    27    20    23   ar
    28    21    22   ar
    29     9    11    2
    30    26    27    1
    31    14    16    1
    32    15    17    1
@<TRIPOS>MOLECULE
MolPort-002-799-218 MCULE-6031247094 PubChem-135401448
 30 32 0 0 0
SMALL
GASTEIGER

@<TRIPOS>ATOM
      1 C           9.3886   39.6355    6.6305 C.ar    1  UNL1        0.2038
      2 C           9.4612   40.5456    8.8112 C.ar    1  UNL1        0.1499
      3 C           8.1956   41.1252    8.6424 C.ar    1  UNL1        0.1424
      4 C           8.1390   41.6536   11.1068 C.3     1  UNL1        0.0981
      5 C           7.7036   42.7482   12.0818 C.3     1  UNL1        0.0236
      6 C           9.6724   41.5761   11.1052 C.3     1  UNL1        0.0889
      7 C          10.1855   41.0604   12.4381 C.3     1  UNL1        0.0230
      8 C           6.4852   42.7434    9.5219 C.2     1  UNL1        0.2544
      9 C           7.5398   40.8992    7.4095 C.ar    1  UNL1        0.2761
     10 O           6.6319   43.7733    8.8089 O.2     1  UNL1       -0.2695
     11 O           6.3821   41.3415    7.1894 O.2     1  UNL1       -0.2657
     12 N          10.0259   39.8203    7.8129 N.ar    1  UNL1       -0.1988
     13 N           7.6133   41.8742    9.7403 N.am    1  UNL1       -0.2489
     14 N          10.1591   40.7043   10.0446 N.pl3   1  UNL1       -0.3169
     15 N           8.1544   40.1712    6.4420 N.ar    1  UNL1       -0.2932
     16 H          10.9978   40.2080   10.1840 H       1  UNL1        0.1482
     17 H           7.6946   40.0281    5.5833 H       1  UNL1        0.1717
     18 C           5.1623   42.4329   10.1006 C.ar    1  UNL1        0.0730
     19 C           3.9960   42.9723    9.5428 C.ar    1  UNL1        0.1034
     20 C           2.6528   41.8497   11.1468 C.ar    1  UNL1        0.0989
     21 C           3.7868   41.2850   11.7328 C.ar    1  UNL1        0.0208
     22 C           5.0442   41.5787   11.2039 C.ar    1  UNL1        0.0077
     23 N           2.7791   42.6740   10.0726 N.ar    1  UNL1       -0.2422
     24 C           9.6807   38.8795    4.2112 C.2     1  UNL1        0.2277
     25 O           8.7457   39.6064    3.7822 O.2     1  UNL1       -0.2747
     26 N          10.0263   38.8677    5.6037 N.am    1  UNL1       -0.2554
     27 H          10.7672   38.2799    5.8773 H       1  UNL1        0.1577
     28 C          11.9170   38.0562    3.5539 C.3     1  UNL1        0.0096
     29 C          10.4322   38.0229    3.2474 C.3     1  UNL1        0.0769
     30 C           9.9274   36.5941    3.3019 C.3     1  UNL1        0.0096
@<TRIPOS>BOND
     1    28    29    1
     2    29    30    1
     3    29    24    1
     4    24    26   am
     5     2    12   ar
     6     3    13    1
     7     3     9   ar
     8     4    13    1
     9     4     5    1
    10     4     6    1
    11     6     7    1
    12     6    14    1
    13     8    18    1
    14    19    23   ar
    15    20    21   ar
    16    22    18   ar
    17     9    15   ar
    18    26     1    1
    19    13     8   am
    20    14     2    1
    21    15     1   ar
    22    24    25    2
    23     1    12   ar
    24     2     3   ar
    25     8    10    2
    26    18    19   ar
    27    20    23   ar
    28    21    22   ar
    29     9    11    2
    30    26    27    1
    31    14    16    1
    32    15    17    1
