@<TRIPOS>MOLECULE
MolPort-006-464-632 ChemDiv-V009-4776 MCULE-5161161012 PubChem-45944114 ZINC000035806832 ZINC35806832
 36 40 0 0 0
SMALL
GASTEIGER

@<TRIPOS>ATOM
      1 C          13.9596   40.1352    9.6258 C.ar    1  UNL1        0.0847
      2 C          13.1550   40.1566   10.7736 C.ar    1  UNL1        0.0205
      3 C          11.8099   40.5219   10.6913 C.ar    1  UNL1        0.0162
      4 C          11.2490   40.8852    9.4590 C.ar    1  UNL1        0.0506
      5 C          12.0507   40.8763    8.3136 C.ar    1  UNL1        0.0162
      6 C          13.3986   40.5155    8.3974 C.ar    1  UNL1        0.0205
      7 C          17.1253   38.8378   10.4167 C.ar    1  UNL1        0.3383
      8 C          16.4488   40.5378    9.3859 C.ar    1  UNL1        0.1685
      9 N          17.5892   39.9480    9.8044 N.ar    1  UNL1       -0.1739
     10 N          15.3576   39.8171    9.7473 N.ar    1  UNL1       -0.2081
     11 N          15.7850   38.7440   10.3914 N.ar    1  UNL1       -0.1077
     12 C          16.4601   41.7731    8.5798 C.ar    1  UNL1        0.0392
     13 C          17.4519   42.7641    8.7791 C.ar    1  UNL1        0.0064
     14 C          17.4278   43.9634    8.0420 C.ar    1  UNL1        0.0403
     15 C          16.3886   44.1381    7.1322 C.ar    1  UNL1        0.1764
     16 C          15.4226   43.2017    6.9535 C.ar    1  UNL1        0.1765
     17 C          15.4135   42.0043    7.6628 C.ar    1  UNL1        0.0432
     18 C          14.9486   44.9378    5.5586 C.3     1  UNL1        0.4294
     19 O          14.5237   43.6409    6.0014 O.3     1  UNL1       -0.4346
     20 O          16.1440   45.2152    6.3031 O.3     1  UNL1       -0.4346
     21 O          17.9393   37.8836   11.0249 O.3     1  UNL1       -0.4457
     22 C          17.4483   36.4693    9.1557 C.3     1  UNL1        0.0513
     23 C          18.3666   36.7200   10.3337 C.3     1  UNL1        0.2089
     24 C           8.9445   41.4607   10.4169 C.2     1  UNL1        0.2495
     25 O           9.3531   41.4948   11.6106 O.2     1  UNL1       -0.2698
     26 N           9.8687   41.2534    9.3369 N.am    1  UNL1       -0.2804
     27 H           9.5204   41.3759    8.4242 H       1  UNL1        0.1552
     28 C           7.5123   41.6585   10.1286 C.ar    1  UNL1        0.0541
     29 C           7.0864   41.9577    8.8274 C.ar    1  UNL1        0.0108
     30 C           5.7292   42.1503    8.5551 C.ar    1  UNL1        0.0754
     31 C           4.7776   42.0512    9.5815 C.ar    1  UNL1        0.2901
     32 C           5.2040   41.7527   10.8821 C.ar    1  UNL1        0.0754
     33 C           6.5612   41.5566   11.1535 C.ar    1  UNL1        0.0108
     34 O           2.9413   43.3923    9.0666 O.2     1  UNL1        0.0415
     35 O           2.5215   41.1774    9.2810 O.co2   1  UNL1       -0.5760
     36 N           3.3844   42.2486    9.3051 N.pl3   1  UNL1        0.0809
@<TRIPOS>UNITY_ATOM_ATTR
35 1
charge -1
36 1
charge 1
@<TRIPOS>BOND
     1    22    23    1
     2    23    21    1
     3     7    21    1
     4     7     9   ar
     5     8    10   ar
     6     8    12    1
     7     2     3   ar
     8     4     5   ar
     9     4    26    1
    10     6     1   ar
    11    24    28    1
    12    29    30   ar
    13    31    32   ar
    14    31    36    1
    15    33    28   ar
    16    13    14   ar
    17    15    16   ar
    18    15    20    1
    19    16    19    1
    20    17    12   ar
    21    18    19    1
    22    18    20    1
    23    10    11   ar
    24    10     1    1
    25    26    24   am
    26    36    35    1
    27     7    11   ar
    28     8     9   ar
    29     1     2   ar
    30     3     4   ar
    31     5     6   ar
    32    24    25    2
    33    28    29   ar
    34    30    31   ar
    35    32    33   ar
    36    12    13   ar
    37    14    15   ar
    38    16    17   ar
    39    36    34    2
    40    26    27    1
@<TRIPOS>MOLECULE
MolPort-006-464-632 ChemDiv-V009-4776 MCULE-5161161012 PubChem-45944114 ZINC000035806832 ZINC35806832
 36 40 0 0 0
SMALL
GASTEIGER

@<TRIPOS>ATOM
      1 C          14.0348   40.2315    9.7543 C.ar    1  UNL1        0.0847
      2 C          13.2127   39.9947   10.8648 C.ar    1  UNL1        0.0205
      3 C          11.8604   40.3409   10.8340 C.ar    1  UNL1        0.0162
      4 C          11.3095   40.9427    9.6941 C.ar    1  UNL1        0.0506
      5 C          12.1283   41.1911    8.5885 C.ar    1  UNL1        0.0162
      6 C          13.4833   40.8491    8.6217 C.ar    1  UNL1        0.0205
      7 C          17.2343   38.9703   10.4634 C.ar    1  UNL1        0.3383
      8 C          16.5116   40.6433    9.4201 C.ar    1  UNL1        0.1685
      9 N          17.6696   40.0695    9.8116 N.ar    1  UNL1       -0.1739
     10 N          15.4383   39.9243    9.8344 N.ar    1  UNL1       -0.2081
     11 N          15.8947   38.8680   10.4864 N.ar    1  UNL1       -0.1077
     12 C          16.4871   41.8607    8.5874 C.ar    1  UNL1        0.0392
     13 C          17.3799   42.9315    8.8359 C.ar    1  UNL1        0.0064
     14 C          17.3177   44.1114    8.0704 C.ar    1  UNL1        0.0403
     15 C          16.3401   44.1857    7.0819 C.ar    1  UNL1        0.1764
     16 C          15.4670   43.1718    6.8546 C.ar    1  UNL1        0.1765
     17 C          15.4982   41.9906    7.5899 C.ar    1  UNL1        0.0432
     18 C          14.9655   44.8387    5.3869 C.3     1  UNL1        0.4294
     19 O          14.6114   43.5202    5.8280 O.3     1  UNL1       -0.4346
     20 O          16.0754   45.2245    6.2112 O.3     1  UNL1       -0.4346
     21 O          18.0751   38.0344   11.0638 O.3     1  UNL1       -0.4457
     22 C          19.3800   36.0402   10.8285 C.3     1  UNL1        0.0513
     23 C          19.1758   37.4688   10.3690 C.3     1  UNL1        0.2089
     24 C           9.2089   41.7157    8.4491 C.2     1  UNL1        0.2495
     25 O           9.7471   41.6309    7.3105 O.2     1  UNL1       -0.2698
     26 N           9.9224   41.2993    9.6242 N.am    1  UNL1       -0.2804
     27 H           9.4092   41.2545   10.4632 H       1  UNL1        0.1552
     28 C           7.8302   42.2237    8.5699 C.ar    1  UNL1        0.0541
     29 C           6.8531   41.4696    9.2333 C.ar    1  UNL1        0.0108
     30 C           5.5448   41.9488    9.3433 C.ar    1  UNL1        0.0754
     31 C           5.1931   43.1880    8.7871 C.ar    1  UNL1        0.2901
     32 C           6.1701   43.9412    8.1235 C.ar    1  UNL1        0.0754
     33 C           7.4795   43.4632    8.0166 C.ar    1  UNL1        0.0108
     34 O           3.5618   44.8273    8.4909 O.2     1  UNL1        0.0415
     35 O           2.8622   42.8931    9.4382 O.co2   1  UNL1       -0.5760
     36 N           3.8514   43.6821    8.8981 N.pl3   1  UNL1        0.0809
@<TRIPOS>UNITY_ATOM_ATTR
35 1
charge -1
36 1
charge 1
@<TRIPOS>BOND
     1    22    23    1
     2    23    21    1
     3     7    21    1
     4     7     9   ar
     5     8    10   ar
     6     8    12    1
     7     2     3   ar
     8     4     5   ar
     9     4    26    1
    10     6     1   ar
    11    24    28    1
    12    29    30   ar
    13    31    32   ar
    14    31    36    1
    15    33    28   ar
    16    13    14   ar
    17    15    16   ar
    18    15    20    1
    19    16    19    1
    20    17    12   ar
    21    18    19    1
    22    18    20    1
    23    10    11   ar
    24    10     1    1
    25    26    24   am
    26    36    35    1
    27     7    11   ar
    28     8     9   ar
    29     1     2   ar
    30     3     4   ar
    31     5     6   ar
    32    24    25    2
    33    28    29   ar
    34    30    31   ar
    35    32    33   ar
    36    12    13   ar
    37    14    15   ar
    38    16    17   ar
    39    36    34    2
    40    26    27    1
@<TRIPOS>MOLECULE
MolPort-006-464-632 ChemDiv-V009-4776 MCULE-5161161012 PubChem-45944114 ZINC000035806832 ZINC35806832
 36 40 0 0 0
SMALL
GASTEIGER

@<TRIPOS>ATOM
      1 C           5.5823   36.0199   15.1647 C.ar    1  UNL1        0.0847
      2 C           5.7021   34.7417   14.6019 C.ar    1  UNL1        0.0205
      3 C           6.9375   34.0916   14.5724 C.ar    1  UNL1        0.0162
      4 C           8.0786   34.7159   15.0950 C.ar    1  UNL1        0.0506
      5 C           7.9659   35.9954   15.6470 C.ar    1  UNL1        0.0162
      6 C           6.7299   36.6480   15.6715 C.ar    1  UNL1        0.0205
      7 C           2.2237   37.0223   15.3778 C.ar    1  UNL1        0.3383
      8 C           3.9281   37.7870   14.4185 C.ar    1  UNL1        0.1685
      9 N           2.6041   38.0182   14.5495 N.ar    1  UNL1       -0.1739
     10 N           4.3118   36.6943   15.1252 N.ar    1  UNL1       -0.2081
     11 N           3.2389   36.2169   15.7334 N.ar    1  UNL1       -0.1077
     12 C           4.8044   38.6883   13.6467 C.ar    1  UNL1        0.0392
     13 C           4.3002   39.4362   12.5550 C.ar    1  UNL1        0.0064
     14 C           5.1523   40.2557   11.7906 C.ar    1  UNL1        0.0403
     15 C           6.4998   40.2846   12.1396 C.ar    1  UNL1        0.1764
     16 C           6.9927   39.5523   13.1704 C.ar    1  UNL1        0.1765
     17 C           6.1815   38.7319   13.9488 C.ar    1  UNL1        0.0432
     18 C           8.7382   40.6914   12.2539 C.3     1  UNL1        0.4294
     19 O           8.3520   39.7694   13.2830 O.3     1  UNL1       -0.4346
     20 O           7.5254   40.9972   11.5498 O.3     1  UNL1       -0.4346
     21 O           0.9154   36.8307   15.8193 O.3     1  UNL1       -0.4457
     22 C          -0.6478   38.2098   14.6406 C.3     1  UNL1        0.0513
     23 C           0.0143   37.9168   15.9707 C.3     1  UNL1        0.2089
     24 C           9.7094   32.8697   15.7966 C.2     1  UNL1        0.2495
     25 O           8.8180   32.1766   16.3605 O.2     1  UNL1       -0.2698
     26 N           9.3597   34.0718   15.0922 N.am    1  UNL1       -0.2804
     27 H          10.0685   34.4946   14.5555 H       1  UNL1        0.1552
     28 C          11.1156   32.4291   15.8419 C.ar    1  UNL1        0.0541
     29 C          12.0056   32.7950   14.8232 C.ar    1  UNL1        0.0108
     30 C          13.3374   32.3730   14.8634 C.ar    1  UNL1        0.0754
     31 C          13.7979   31.5745   15.9213 C.ar    1  UNL1        0.2901
     32 C          12.9076   31.2085   16.9390 C.ar    1  UNL1        0.0754
     33 C          11.5764   31.6337   16.9003 C.ar    1  UNL1        0.0108
     34 O          15.9996   31.5929   15.1544 O.2     1  UNL1        0.0415
     35 O          15.5744   30.2313   16.9131 O.co2   1  UNL1       -0.5760
     36 N          15.1637   31.1397   15.9650 N.pl3   1  UNL1        0.0809
@<TRIPOS>UNITY_ATOM_ATTR
35 1
charge -1
36 1
charge 1
@<TRIPOS>BOND
     1    22    23    1
     2    23    21    1
     3     7    21    1
     4     7     9   ar
     5     8    10   ar
     6     8    12    1
     7     2     3   ar
     8     4     5   ar
     9     4    26    1
    10     6     1   ar
    11    24    28    1
    12    29    30   ar
    13    31    32   ar
    14    31    36    1
    15    33    28   ar
    16    13    14   ar
    17    15    16   ar
    18    15    20    1
    19    16    19    1
    20    17    12   ar
    21    18    19    1
    22    18    20    1
    23    10    11   ar
    24    10     1    1
    25    26    24   am
    26    36    35    1
    27     7    11   ar
    28     8     9   ar
    29     1     2   ar
    30     3     4   ar
    31     5     6   ar
    32    24    25    2
    33    28    29   ar
    34    30    31   ar
    35    32    33   ar
    36    12    13   ar
    37    14    15   ar
    38    16    17   ar
    39    36    34    2
    40    26    27    1
@<TRIPOS>MOLECULE
MolPort-006-464-632 ChemDiv-V009-4776 MCULE-5161161012 PubChem-45944114 ZINC000035806832 ZINC35806832
 36 40 0 0 0
SMALL
GASTEIGER

@<TRIPOS>ATOM
      1 C          11.7099   42.3967    8.3658 C.ar    1  UNL1        0.0847
      2 C          10.8037   41.4845    7.8073 C.ar    1  UNL1        0.0205
      3 C           9.5318   41.3187    8.3591 C.ar    1  UNL1        0.0162
      4 C           9.1489   42.0549    9.4890 C.ar    1  UNL1        0.0506
      5 C          10.0536   42.9574   10.0561 C.ar    1  UNL1        0.0162
      6 C          11.3287   43.1192    9.5064 C.ar    1  UNL1        0.0205
      7 C          14.6071   43.0903    6.5069 C.ar    1  UNL1        0.3383
      8 C          14.1342   41.7380    8.0424 C.ar    1  UNL1        0.1685
      9 N          15.1487   42.0793    7.2191 N.ar    1  UNL1       -0.1739
     10 N          13.0361   42.5024    7.8176 N.ar    1  UNL1       -0.2081
     11 N          13.3368   43.3573    6.8544 N.ar    1  UNL1       -0.1077
     12 C          14.2883   40.7032    9.0822 C.ar    1  UNL1        0.0392
     13 C          13.2399   40.4226    9.9920 C.ar    1  UNL1        0.0064
     14 C          13.4112   39.4698   11.0141 C.ar    1  UNL1        0.0403
     15 C          14.6475   38.8356   11.1014 C.ar    1  UNL1        0.1764
     16 C          15.6633   39.1170   10.2466 C.ar    1  UNL1        0.1765
     17 C          15.5313   40.0517    9.2238 C.ar    1  UNL1        0.0432
     18 C          16.4215   37.5392   11.7026 C.3     1  UNL1        0.4294
     19 O          16.7650   38.3493   10.5694 O.3     1  UNL1       -0.4346
     20 O          15.0605   37.8784   12.0073 O.3     1  UNL1       -0.4346
     21 O          15.2802   43.7879    5.5052 O.3     1  UNL1       -0.4457
     22 C          17.6579   43.8714    5.7779 C.3     1  UNL1        0.0513
     23 C          16.3629   44.6563    5.8015 C.3     1  UNL1        0.2089
     24 C           6.5953   41.8987    9.3681 C.2     1  UNL1        0.2495
     25 O           6.5724   41.8310    8.1079 O.2     1  UNL1       -0.2698
     26 N           7.8466   41.9185   10.0733 N.am    1  UNL1       -0.2804
     27 H           7.8061   41.8298   11.0530 H       1  UNL1        0.1552
     28 C           5.3285   41.9342   10.1214 C.ar    1  UNL1        0.0541
     29 C           4.3414   42.8766    9.8032 C.ar    1  UNL1        0.0108
     30 C           3.1426   42.9136   10.5207 C.ar    1  UNL1        0.0754
     31 C           2.9149   42.0110   11.5706 C.ar    1  UNL1        0.2901
     32 C           3.9022   41.0696   11.8886 C.ar    1  UNL1        0.0754
     33 C           5.0998   41.0305   11.1685 C.ar    1  UNL1        0.0108
     34 O           0.5936   42.1733   11.7155 O.2     1  UNL1        0.0415
     35 O           1.6938   41.9238   13.6790 O.co2   1  UNL1       -0.5760
     36 N           1.6860   42.0468   12.3087 N.pl3   1  UNL1        0.0809
@<TRIPOS>UNITY_ATOM_ATTR
35 1
charge -1
36 1
charge 1
@<TRIPOS>BOND
     1    22    23    1
     2    23    21    1
     3     7    21    1
     4     7     9   ar
     5     8    10   ar
     6     8    12    1
     7     2     3   ar
     8     4     5   ar
     9     4    26    1
    10     6     1   ar
    11    24    28    1
    12    29    30   ar
    13    31    32   ar
    14    31    36    1
    15    33    28   ar
    16    13    14   ar
    17    15    16   ar
    18    15    20    1
    19    16    19    1
    20    17    12   ar
    21    18    19    1
    22    18    20    1
    23    10    11   ar
    24    10     1    1
    25    26    24   am
    26    36    35    1
    27     7    11   ar
    28     8     9   ar
    29     1     2   ar
    30     3     4   ar
    31     5     6   ar
    32    24    25    2
    33    28    29   ar
    34    30    31   ar
    35    32    33   ar
    36    12    13   ar
    37    14    15   ar
    38    16    17   ar
    39    36    34    2
    40    26    27    1
@<TRIPOS>MOLECULE
MolPort-006-464-632 ChemDiv-V009-4776 MCULE-5161161012 PubChem-45944114 ZINC000035806832 ZINC35806832
 36 40 0 0 0
SMALL
GASTEIGER

@<TRIPOS>ATOM
      1 C          12.4195   42.3419    8.0474 C.ar    1  UNL1        0.0847
      2 C          11.9912   42.9425    9.2395 C.ar    1  UNL1        0.0205
      3 C          10.6663   42.8170    9.6619 C.ar    1  UNL1        0.0162
      4 C           9.7426   42.0976    8.8909 C.ar    1  UNL1        0.0506
      5 C          10.1627   41.5066    7.6956 C.ar    1  UNL1        0.0162
      6 C          11.4880   41.6370    7.2705 C.ar    1  UNL1        0.0205
      7 C          15.3982   43.2600    6.4303 C.ar    1  UNL1        0.3383
      8 C          14.8943   41.8285    7.8818 C.ar    1  UNL1        0.1685
      9 N          15.9441   42.2545    7.1470 N.ar    1  UNL1       -0.1739
     10 N          13.7734   42.5397    7.6020 N.ar    1  UNL1       -0.2081
     11 N          14.0931   43.4445    6.6920 N.ar    1  UNL1       -0.1077
     12 C          15.0322   40.7660    8.8957 C.ar    1  UNL1        0.0392
     13 C          16.2602   40.5564    9.5692 C.ar    1  UNL1        0.0064
     14 C          16.4004   39.5084   10.4987 C.ar    1  UNL1        0.0403
     15 C          15.2975   38.6857   10.7112 C.ar    1  UNL1        0.1764
     16 C          14.1254   38.8677   10.0518 C.ar    1  UNL1        0.1765
     17 C          13.9489   39.8927    9.1269 C.ar    1  UNL1        0.0432
     18 C          13.8595   37.0675   11.4204 C.3     1  UNL1        0.4294
     19 O          13.2159   37.9088   10.4526 O.3     1  UNL1       -0.4346
     20 O          15.1851   37.6007   11.5582 O.3     1  UNL1       -0.4346
     21 O          16.1005   44.0295    5.5042 O.3     1  UNL1       -0.4457
     22 C          18.0109   44.2134    6.9364 C.3     1  UNL1        0.0513
     23 C          17.5184   44.0905    5.5095 C.3     1  UNL1        0.2089
     24 C           7.2846   42.8122    8.9783 C.2     1  UNL1        0.2495
     25 O           7.4327   43.7352    8.1302 O.2     1  UNL1       -0.2698
     26 N           8.3780   41.9384    9.3015 N.am    1  UNL1       -0.2804
     27 H           8.1703   41.1541    9.8591 H       1  UNL1        0.1552
     28 C           5.9737   42.6159    9.6236 C.ar    1  UNL1        0.0541
     29 C           5.8569   41.7985   10.7558 C.ar    1  UNL1        0.0108
     30 C           4.6133   41.6082   11.3645 C.ar    1  UNL1        0.0754
     31 C           3.4665   42.2293   10.8468 C.ar    1  UNL1        0.2901
     32 C           3.5838   43.0458    9.7147 C.ar    1  UNL1        0.0754
     33 C           4.8285   43.2388    9.1081 C.ar    1  UNL1        0.0108
     34 O           1.1768   41.7954   10.7772 O.2     1  UNL1        0.0415
     35 O           2.0665   42.0940   12.8382 O.co2   1  UNL1       -0.5760
     36 N           2.1891   42.0357   11.4691 N.pl3   1  UNL1        0.0809
@<TRIPOS>UNITY_ATOM_ATTR
35 1
charge -1
36 1
charge 1
@<TRIPOS>BOND
     1    22    23    1
     2    23    21    1
     3     7    21    1
     4     7     9   ar
     5     8    10   ar
     6     8    12    1
     7     2     3   ar
     8     4     5   ar
     9     4    26    1
    10     6     1   ar
    11    24    28    1
    12    29    30   ar
    13    31    32   ar
    14    31    36    1
    15    33    28   ar
    16    13    14   ar
    17    15    16   ar
    18    15    20    1
    19    16    19    1
    20    17    12   ar
    21    18    19    1
    22    18    20    1
    23    10    11   ar
    24    10     1    1
    25    26    24   am
    26    36    35    1
    27     7    11   ar
    28     8     9   ar
    29     1     2   ar
    30     3     4   ar
    31     5     6   ar
    32    24    25    2
    33    28    29   ar
    34    30    31   ar
    35    32    33   ar
    36    12    13   ar
    37    14    15   ar
    38    16    17   ar
    39    36    34    2
    40    26    27    1
@<TRIPOS>MOLECULE
MolPort-006-464-632 ChemDiv-V009-4776 MCULE-5161161012 PubChem-45944114 ZINC000035806832 ZINC35806832
 36 40 0 0 0
SMALL
GASTEIGER

@<TRIPOS>ATOM
      1 C          11.5369   41.1817   10.0070 C.ar    1  UNL1        0.0847
      2 C          10.5964   40.4352    9.2836 C.ar    1  UNL1        0.0205
      3 C           9.2442   40.4691    9.6303 C.ar    1  UNL1        0.0162
      4 C           8.8111   41.2420   10.7167 C.ar    1  UNL1        0.0506
      5 C           9.7473   41.9792   11.4479 C.ar    1  UNL1        0.0162
      6 C          11.1016   41.9408   11.1037 C.ar    1  UNL1        0.0205
      7 C          14.8197   41.5936    8.8307 C.ar    1  UNL1        0.3383
      8 C          13.7589   40.0047    9.7025 C.ar    1  UNL1        0.1685
      9 N          14.9646   40.2943    9.1678 N.ar    1  UNL1       -0.1739
     10 N          12.9320   41.0797    9.6698 N.ar    1  UNL1       -0.2081
     11 N          13.6029   42.0813    9.1258 N.ar    1  UNL1       -0.1077
     12 C          13.4653   38.6862   10.2953 C.ar    1  UNL1        0.0392
     13 C          14.4452   37.9889   11.0429 C.ar    1  UNL1        0.0064
     14 C          14.1760   36.7086   11.5630 C.ar    1  UNL1        0.0403
     15 C          12.9254   36.1571   11.2984 C.ar    1  UNL1        0.1764
     16 C          11.9907   36.8111   10.5632 C.ar    1  UNL1        0.1765
     17 C          12.2200   38.0776   10.0335 C.ar    1  UNL1        0.0432
     18 C          11.0969   34.8051   11.1644 C.3     1  UNL1        0.4294
     19 O          10.8568   36.0298   10.4567 O.3     1  UNL1       -0.4346
     20 O          12.4272   34.9296   11.6889 O.3     1  UNL1       -0.4346
     21 O          15.8168   42.3601    8.2295 O.3     1  UNL1       -0.4457
     22 C          17.0877   40.3304    8.2285 C.3     1  UNL1        0.0513
     23 C          17.0543   41.7913    7.8305 C.3     1  UNL1        0.2089
     24 C           6.3366   40.6419   10.4401 C.2     1  UNL1        0.2495
     25 O           6.5567   39.7762    9.5483 O.2     1  UNL1       -0.2698
     26 N           7.4288   41.3094   11.0919 N.am    1  UNL1       -0.2804
     27 H           7.2068   41.8673   11.8721 H       1  UNL1        0.1552
     28 C           4.9494   40.9523   10.8309 C.ar    1  UNL1        0.0541
     29 C           3.8936   40.1358   10.4036 C.ar    1  UNL1        0.0108
     30 C           2.5780   40.4330   10.7698 C.ar    1  UNL1        0.0754
     31 C           2.2980   41.5544   11.5653 C.ar    1  UNL1        0.2901
     32 C           3.3537   42.3705   11.9916 C.ar    1  UNL1        0.0754
     33 C           4.6699   42.0710   11.6281 C.ar    1  UNL1        0.0108
     34 O           0.5436   41.6212   13.0994 O.2     1  UNL1        0.0415
     35 O           0.0897   42.4433   11.0387 O.co2   1  UNL1       -0.5760
     36 N           0.9490   41.8619   11.9423 N.pl3   1  UNL1        0.0809
@<TRIPOS>UNITY_ATOM_ATTR
35 1
charge -1
36 1
charge 1
@<TRIPOS>BOND
     1    22    23    1
     2    23    21    1
     3     7    21    1
     4     7     9   ar
     5     8    10   ar
     6     8    12    1
     7     2     3   ar
     8     4     5   ar
     9     4    26    1
    10     6     1   ar
    11    24    28    1
    12    29    30   ar
    13    31    32   ar
    14    31    36    1
    15    33    28   ar
    16    13    14   ar
    17    15    16   ar
    18    15    20    1
    19    16    19    1
    20    17    12   ar
    21    18    19    1
    22    18    20    1
    23    10    11   ar
    24    10     1    1
    25    26    24   am
    26    36    35    1
    27     7    11   ar
    28     8     9   ar
    29     1     2   ar
    30     3     4   ar
    31     5     6   ar
    32    24    25    2
    33    28    29   ar
    34    30    31   ar
    35    32    33   ar
    36    12    13   ar
    37    14    15   ar
    38    16    17   ar
    39    36    34    2
    40    26    27    1
@<TRIPOS>MOLECULE
MolPort-006-464-632 ChemDiv-V009-4776 MCULE-5161161012 PubChem-45944114 ZINC000035806832 ZINC35806832
 36 40 0 0 0
SMALL
GASTEIGER

@<TRIPOS>ATOM
      1 C           2.8670   42.0358   13.1761 C.ar    1  UNL1        0.0847
      2 C           3.3312   40.7133   13.1506 C.ar    1  UNL1        0.0205
      3 C           4.2168   40.2905   12.1573 C.ar    1  UNL1        0.0162
      4 C           4.6439   41.1820   11.1634 C.ar    1  UNL1        0.0506
      5 C           4.1745   42.4988   11.1783 C.ar    1  UNL1        0.0162
      6 C           3.2838   42.9202   12.1699 C.ar    1  UNL1        0.0205
      7 C           1.1273   43.0203   16.0630 C.ar    1  UNL1        0.3383
      8 C           0.5540   42.3140   14.1703 C.ar    1  UNL1        0.1685
      9 N           0.0277   42.6727   15.3610 N.ar    1  UNL1       -0.1739
     10 N           1.9058   42.4294   14.1719 N.ar    1  UNL1       -0.2081
     11 N           2.2652   42.8796   15.3624 N.ar    1  UNL1       -0.1077
     12 C          -0.2945   41.9229   13.0288 C.ar    1  UNL1        0.0392
     13 C          -1.6191   41.4637   13.2292 C.ar    1  UNL1        0.0064
     14 C          -2.4065   41.0438   12.1403 C.ar    1  UNL1        0.0403
     15 C          -1.8270   41.0825   10.8750 C.ar    1  UNL1        0.1764
     16 C          -0.5505   41.4999   10.6798 C.ar    1  UNL1        0.1765
     17 C           0.2578   41.9229   11.7309 C.ar    1  UNL1        0.0432
     18 C          -1.3940   40.9270    8.6440 C.3     1  UNL1        0.4294
     19 O          -0.2410   41.4275    9.3358 O.3     1  UNL1       -0.4346
     20 O          -2.3839   40.7234    9.6632 O.3     1  UNL1       -0.4346
     21 O           1.1015   43.4710   17.3819 O.3     1  UNL1       -0.4457
     22 C           2.8226   45.0758   17.8261 C.3     1  UNL1        0.0513
     23 C           1.3325   44.8329   17.7078 C.3     1  UNL1        0.2089
     24 C           5.8050   41.4723    8.8990 C.2     1  UNL1        0.2495
     25 O           5.3200   42.6204    8.6997 O.2     1  UNL1       -0.2698
     26 N           5.5622   40.7844   10.1365 N.am    1  UNL1       -0.2804
     27 H           6.0762   39.9598   10.2949 H       1  UNL1        0.1552
     28 C           6.6455   40.8440    7.8635 C.ar    1  UNL1        0.0541
     29 C           8.0428   40.8931    7.9595 C.ar    1  UNL1        0.0108
     30 C           8.8396   40.3020    6.9751 C.ar    1  UNL1        0.0754
     31 C           8.2506   39.6567    5.8772 C.ar    1  UNL1        0.2901
     32 C           6.8539   39.6085    5.7815 C.ar    1  UNL1        0.0754
     33 C           6.0571   40.1968    6.7681 C.ar    1  UNL1        0.0108
     34 O          10.3065   38.9916    5.0014 O.2     1  UNL1        0.0415
     35 O           8.4889   38.5068    3.7407 O.co2   1  UNL1       -0.5760
     36 N           9.0658   39.0496    4.8655 N.pl3   1  UNL1        0.0809
@<TRIPOS>UNITY_ATOM_ATTR
35 1
charge -1
36 1
charge 1
@<TRIPOS>BOND
     1    22    23    1
     2    23    21    1
     3     7    21    1
     4     7     9   ar
     5     8    10   ar
     6     8    12    1
     7     2     3   ar
     8     4     5   ar
     9     4    26    1
    10     6     1   ar
    11    24    28    1
    12    29    30   ar
    13    31    32   ar
    14    31    36    1
    15    33    28   ar
    16    13    14   ar
    17    15    16   ar
    18    15    20    1
    19    16    19    1
    20    17    12   ar
    21    18    19    1
    22    18    20    1
    23    10    11   ar
    24    10     1    1
    25    26    24   am
    26    36    35    1
    27     7    11   ar
    28     8     9   ar
    29     1     2   ar
    30     3     4   ar
    31     5     6   ar
    32    24    25    2
    33    28    29   ar
    34    30    31   ar
    35    32    33   ar
    36    12    13   ar
    37    14    15   ar
    38    16    17   ar
    39    36    34    2
    40    26    27    1
@<TRIPOS>MOLECULE
MolPort-006-464-632 ChemDiv-V009-4776 MCULE-5161161012 PubChem-45944114 ZINC000035806832 ZINC35806832
 36 40 0 0 0
SMALL
GASTEIGER

@<TRIPOS>ATOM
      1 C          13.2373   39.7203    8.7922 C.ar    1  UNL1        0.0847
      2 C          14.0467   38.6527    8.3797 C.ar    1  UNL1        0.0205
      3 C          14.8102   37.9407    9.3069 C.ar    1  UNL1        0.0162
      4 C          14.7865   38.2936   10.6635 C.ar    1  UNL1        0.0506
      5 C          13.9894   39.3649   11.0776 C.ar    1  UNL1        0.0162
      6 C          13.2293   40.0807   10.1481 C.ar    1  UNL1        0.0205
      7 C          11.0063   40.9630    6.3821 C.ar    1  UNL1        0.3383
      8 C          12.8957   41.5561    7.0809 C.ar    1  UNL1        0.1685
      9 N          11.9665   41.8851    6.1579 N.ar    1  UNL1       -0.1739
     10 N          12.5100   40.4782    7.8088 N.ar    1  UNL1       -0.2081
     11 N          11.3176   40.1090    7.3717 N.ar    1  UNL1       -0.1077
     12 C          14.1228   42.3526    7.2703 C.ar    1  UNL1        0.0392
     13 C          14.1461   43.7369    6.9725 C.ar    1  UNL1        0.0064
     14 C          15.3336   44.4810    7.1070 C.ar    1  UNL1        0.0403
     15 C          16.4748   43.8009    7.5234 C.ar    1  UNL1        0.1764
     16 C          16.4638   42.4699    7.7881 C.ar    1  UNL1        0.1765
     17 C          15.3094   41.7017    7.6674 C.ar    1  UNL1        0.0432
     18 C          18.5872   43.2123    8.1403 C.3     1  UNL1        0.4294
     19 O          17.7270   42.0645    8.1720 O.3     1  UNL1       -0.4346
     20 O          17.7470   44.2994    7.7247 O.3     1  UNL1       -0.4346
     21 O           9.8144   40.8861    5.6632 O.3     1  UNL1       -0.4457
     22 C          10.4455   38.9636    4.3823 C.3     1  UNL1        0.0513
     23 C           9.3351   39.6544    5.1461 C.3     1  UNL1        0.2089
     24 C          16.8232   36.9472   11.4374 C.2     1  UNL1        0.2495
     25 O          17.4647   37.1379   10.3673 O.2     1  UNL1       -0.2698
     26 N          15.5482   37.5760   11.6437 N.am    1  UNL1       -0.2804
     27 H          15.1596   37.5075   12.5457 H       1  UNL1        0.1552
     28 C          17.3981   36.0920   12.4917 C.ar    1  UNL1        0.0541
     29 C          16.6365   35.7446   13.6156 C.ar    1  UNL1        0.0108
     30 C          17.1833   34.9381   14.6176 C.ar    1  UNL1        0.0754
     31 C          18.5021   34.4706   14.5126 C.ar    1  UNL1        0.2901
     32 C          19.2630   34.8186   13.3892 C.ar    1  UNL1        0.0754
     33 C          18.7147   35.6225   12.3855 C.ar    1  UNL1        0.0108
     34 O          19.5247   34.1529   16.5837 O.2     1  UNL1        0.0415
     35 O          19.0912   32.2753   15.3943 O.co2   1  UNL1       -0.5760
     36 N          19.0657   33.6432   15.5393 N.pl3   1  UNL1        0.0809
@<TRIPOS>UNITY_ATOM_ATTR
35 1
charge -1
36 1
charge 1
@<TRIPOS>BOND
     1    22    23    1
     2    23    21    1
     3     7    21    1
     4     7     9   ar
     5     8    10   ar
     6     8    12    1
     7     2     3   ar
     8     4     5   ar
     9     4    26    1
    10     6     1   ar
    11    24    28    1
    12    29    30   ar
    13    31    32   ar
    14    31    36    1
    15    33    28   ar
    16    13    14   ar
    17    15    16   ar
    18    15    20    1
    19    16    19    1
    20    17    12   ar
    21    18    19    1
    22    18    20    1
    23    10    11   ar
    24    10     1    1
    25    26    24   am
    26    36    35    1
    27     7    11   ar
    28     8     9   ar
    29     1     2   ar
    30     3     4   ar
    31     5     6   ar
    32    24    25    2
    33    28    29   ar
    34    30    31   ar
    35    32    33   ar
    36    12    13   ar
    37    14    15   ar
    38    16    17   ar
    39    36    34    2
    40    26    27    1
@<TRIPOS>MOLECULE
MolPort-006-464-632 ChemDiv-V009-4776 MCULE-5161161012 PubChem-45944114 ZINC000035806832 ZINC35806832
 36 40 0 0 0
SMALL
GASTEIGER

@<TRIPOS>ATOM
      1 C           1.3596   43.7032   13.4386 C.ar    1  UNL1        0.0847
      2 C           1.6297   42.3561   13.7169 C.ar    1  UNL1        0.0205
      3 C           2.5299   41.6349   12.9301 C.ar    1  UNL1        0.0162
      4 C           3.1668   42.2470   11.8416 C.ar    1  UNL1        0.0506
      5 C           2.8918   43.5871   11.5534 C.ar    1  UNL1        0.0162
      6 C           1.9864   44.3072   12.3383 C.ar    1  UNL1        0.0205
      7 C          -1.2914   45.6422   14.6806 C.ar    1  UNL1        0.3383
      8 C           0.3893   44.7251   15.5433 C.ar    1  UNL1        0.1685
      9 N          -0.6551   45.5184   15.8649 N.ar    1  UNL1       -0.1739
     10 N           0.3804   44.4058   14.2248 N.ar    1  UNL1       -0.2081
     11 N          -0.6814   44.9792   13.6837 N.ar    1  UNL1       -0.1077
     12 C           1.3444   44.2435   16.5590 C.ar    1  UNL1        0.0392
     13 C           1.2372   42.9389   17.0994 C.ar    1  UNL1        0.0064
     14 C           2.1205   42.5029   18.1053 C.ar    1  UNL1        0.0403
     15 C           3.0813   43.4056   18.5528 C.ar    1  UNL1        0.1764
     16 C           3.1740   44.6646   18.0547 C.ar    1  UNL1        0.1765
     17 C           2.3196   45.1309   17.0599 C.ar    1  UNL1        0.0432
     18 C           4.7934   44.4428   19.6400 C.3     1  UNL1        0.4294
     19 O           4.2053   45.3351   18.6827 O.3     1  UNL1       -0.4346
     20 O           4.0482   43.2218   19.5216 O.3     1  UNL1       -0.4346
     21 O          -2.4559   46.3853   14.4939 O.3     1  UNL1       -0.4457
     22 C          -1.9802   48.4413   13.3618 C.3     1  UNL1        0.0513
     23 C          -2.4701   47.7968   14.6417 C.3     1  UNL1        0.2089
     24 C           5.5060   41.8309   10.8850 C.2     1  UNL1        0.2495
     25 O           6.0615   42.6702   11.6466 O.2     1  UNL1       -0.2698
     26 N           4.1060   41.5395   11.0209 N.am    1  UNL1       -0.2804
     27 H           3.7574   40.7803   10.5000 H       1  UNL1        0.1552
     28 C           6.3055   41.1283    9.8648 C.ar    1  UNL1        0.0541
     29 C           5.7390   40.7945    8.6272 C.ar    1  UNL1        0.0108
     30 C           6.4953   40.1239    7.6621 C.ar    1  UNL1        0.0754
     31 C           7.8287   39.7728    7.9221 C.ar    1  UNL1        0.2901
     32 C           8.3942   40.1062    9.1596 C.ar    1  UNL1        0.0754
     33 C           7.6385   40.7802   10.1235 C.ar    1  UNL1        0.0108
     34 O           8.1697   38.9360    5.7729 O.2     1  UNL1        0.0415
     35 O           9.8539   38.5948    7.2477 O.co2   1  UNL1       -0.5760
     36 N           8.6070   39.0844    6.9338 N.pl3   1  UNL1        0.0809
@<TRIPOS>UNITY_ATOM_ATTR
35 1
charge -1
36 1
charge 1
@<TRIPOS>BOND
     1    22    23    1
     2    23    21    1
     3     7    21    1
     4     7     9   ar
     5     8    10   ar
     6     8    12    1
     7     2     3   ar
     8     4     5   ar
     9     4    26    1
    10     6     1   ar
    11    24    28    1
    12    29    30   ar
    13    31    32   ar
    14    31    36    1
    15    33    28   ar
    16    13    14   ar
    17    15    16   ar
    18    15    20    1
    19    16    19    1
    20    17    12   ar
    21    18    19    1
    22    18    20    1
    23    10    11   ar
    24    10     1    1
    25    26    24   am
    26    36    35    1
    27     7    11   ar
    28     8     9   ar
    29     1     2   ar
    30     3     4   ar
    31     5     6   ar
    32    24    25    2
    33    28    29   ar
    34    30    31   ar
    35    32    33   ar
    36    12    13   ar
    37    14    15   ar
    38    16    17   ar
    39    36    34    2
    40    26    27    1
@<TRIPOS>MOLECULE
MolPort-006-464-632 ChemDiv-V009-4776 MCULE-5161161012 PubChem-45944114 ZINC000035806832 ZINC35806832
 36 40 0 0 0
SMALL
GASTEIGER

@<TRIPOS>ATOM
      1 C          11.7823   39.4659    9.6638 C.ar    1  UNL1        0.0847
      2 C          13.1306   39.5689    9.2942 C.ar    1  UNL1        0.0205
      3 C          13.9025   38.4222    9.0971 C.ar    1  UNL1        0.0162
      4 C          13.3409   37.1507    9.2792 C.ar    1  UNL1        0.0506
      5 C          11.9996   37.0436    9.6590 C.ar    1  UNL1        0.0162
      6 C          11.2287   38.1920    9.8613 C.ar    1  UNL1        0.0205
      7 C           9.5536   41.9407   10.7769 C.ar    1  UNL1        0.3383
      8 C          10.9378   41.8091    9.2032 C.ar    1  UNL1        0.1685
      9 N          10.0039   42.6401    9.7136 N.ar    1  UNL1       -0.1739
     10 N          11.0262   40.6625    9.9229 N.ar    1  UNL1       -0.2081
     11 N          10.1581   40.7488   10.9169 N.ar    1  UNL1       -0.1077
     12 C          11.7729   42.1898    8.0484 C.ar    1  UNL1        0.0392
     13 C          11.4724   41.7217    6.7461 C.ar    1  UNL1        0.0064
     14 C          12.3022   42.0469    5.6562 C.ar    1  UNL1        0.0403
     15 C          13.4275   42.8249    5.9146 C.ar    1  UNL1        0.1764
     16 C          13.7328   43.2572    7.1643 C.ar    1  UNL1        0.1765
     17 C          12.9366   42.9567    8.2656 C.ar    1  UNL1        0.0432
     18 C          15.3573   44.0261    5.7664 C.3     1  UNL1        0.4294
     19 O          14.8983   43.9972    7.1254 O.3     1  UNL1       -0.4346
     20 O          14.3878   43.2689    5.0269 O.3     1  UNL1       -0.4346
     21 O           8.5586   42.3909   11.6432 O.3     1  UNL1       -0.4457
     22 C           6.3914   41.4420   11.2722 C.3     1  UNL1        0.0513
     23 C           7.5931   41.5070   12.1916 C.3     1  UNL1        0.2089
     24 C          15.4706   35.8771    8.6453 C.2     1  UNL1        0.2495
     25 O          16.1786   36.9199    8.5793 O.2     1  UNL1       -0.2698
     26 N          14.1014   35.9528    9.0730 N.am    1  UNL1       -0.2804
     27 H          13.6403   35.0993    9.2408 H       1  UNL1        0.1552
     28 C          16.0608   34.5701    8.3034 C.ar    1  UNL1        0.0541
     29 C          17.3613   34.4935    7.7871 C.ar    1  UNL1        0.0108
     30 C          17.9189   33.2549    7.4581 C.ar    1  UNL1        0.0754
     31 C          17.1819   32.0742    7.6362 C.ar    1  UNL1        0.2901
     32 C          15.8817   32.1514    8.1517 C.ar    1  UNL1        0.0754
     33 C          15.3255   33.3902    8.4840 C.ar    1  UNL1        0.0108
     34 O          17.4953   30.2637    6.2010 O.2     1  UNL1        0.0415
     35 O          18.6019   30.1669    8.1744 O.co2   1  UNL1       -0.5760
     36 N          17.7514   30.8020    7.2991 N.pl3   1  UNL1        0.0809
@<TRIPOS>UNITY_ATOM_ATTR
35 1
charge -1
36 1
charge 1
@<TRIPOS>BOND
     1    22    23    1
     2    23    21    1
     3     7    21    1
     4     7     9   ar
     5     8    10   ar
     6     8    12    1
     7     2     3   ar
     8     4     5   ar
     9     4    26    1
    10     6     1   ar
    11    24    28    1
    12    29    30   ar
    13    31    32   ar
    14    31    36    1
    15    33    28   ar
    16    13    14   ar
    17    15    16   ar
    18    15    20    1
    19    16    19    1
    20    17    12   ar
    21    18    19    1
    22    18    20    1
    23    10    11   ar
    24    10     1    1
    25    26    24   am
    26    36    35    1
    27     7    11   ar
    28     8     9   ar
    29     1     2   ar
    30     3     4   ar
    31     5     6   ar
    32    24    25    2
    33    28    29   ar
    34    30    31   ar
    35    32    33   ar
    36    12    13   ar
    37    14    15   ar
    38    16    17   ar
    39    36    34    2
    40    26    27    1
