@<TRIPOS>MOLECULE
MolPort-035-704-099 LN00427521 PubChem-86207152 ZINC000218305408
 33 36 0 0 0
SMALL
GASTEIGER

@<TRIPOS>ATOM
      1 C           9.0879   42.5502   11.2057 C.ar    1  UNL1        0.1359
      2 C          10.4918   42.5645    9.6661 C.ar    1  UNL1        0.2407
      3 N           9.6536   41.7242   10.3047 N.ar    1  UNL1       -0.1980
      4 N          10.4413   43.8202   10.1431 N.ar    1  UNL1       -0.1360
      5 N           9.5470   43.8124   11.1158 N.ar    1  UNL1       -0.2603
      6 H           9.2705   44.5797   11.6671 H       1  UNL1        0.1903
      7 C          12.5203   41.3671    8.7221 C.2     1  UNL1        0.2328
      8 O          12.8470   40.8787    9.8360 O.2     1  UNL1       -0.2743
      9 N          11.3498   42.1798    8.5876 N.am    1  UNL1       -0.2525
     10 H          11.1176   42.4980    7.6854 H       1  UNL1        0.1578
     11 C          13.3533   41.0842    7.5193 C.3     1  UNL1        0.1132
     12 C          14.1331   42.2933    7.1217 C.ar    1  UNL1        0.0053
     13 C          13.6874   43.3437    6.3267 C.ar    1  UNL1        0.0685
     14 C          15.6975   43.8197    6.9234 C.ar    1  UNL1        0.0563
     15 C          16.9304   44.4436    7.1095 C.ar    1  UNL1        0.0170
     16 C          17.8794   43.7891    7.9157 C.ar    1  UNL1        0.0015
     17 C          17.5794   42.5438    8.5095 C.ar    1  UNL1        0.0001
     18 C          16.3273   41.9378    8.3044 C.ar    1  UNL1        0.0012
     19 C          15.4110   42.6135    7.5018 C.ar    1  UNL1        0.0135
     20 N          14.6593   44.2843    6.2049 N.ar    1  UNL1       -0.3522
     21 H          14.6138   45.1273    5.6984 H       1  UNL1        0.1660
     22 C           8.0623   42.1052   12.1925 C.3     1  UNL1        0.0699
     23 C           7.1233   41.0831   11.5691 C.3     1  UNL1        0.0344
     24 C           4.0281   43.1223    9.3779 C.ar    1  UNL1        0.1724
     25 C           5.3600   43.1618    8.9478 C.ar    1  UNL1        0.0397
     26 C           6.3628   42.4929    9.6521 C.ar    1  UNL1       -0.0009
     27 C           6.0448   41.7670   10.8001 C.ar    1  UNL1       -0.0185
     28 C           4.7221   41.7208   11.2461 C.ar    1  UNL1        0.0358
     29 C           3.7018   42.3927   10.5507 C.ar    1  UNL1        0.1721
     30 C           3.3819   44.9516    7.7972 C.3     1  UNL1        0.2526
     31 O           3.0870   43.8221    8.6072 O.3     1  UNL1       -0.4684
     32 C           2.0554   42.2285   12.3958 C.3     1  UNL1        0.2526
     33 O           2.3831   42.3422   11.0180 O.3     1  UNL1       -0.4684
@<TRIPOS>BOND
     1    30    31    1
     2    24    31    1
     3    25    26   ar
     4    27    28   ar
     5    23    27    1
     6    23    22    1
     7    22     1    1
     8     2     3   ar
     9     2     9    1
    10    11     7    1
    11    11    12    1
    12    13    20   ar
    13    15    16   ar
    14    17    18   ar
    15    19    12   ar
    16    19    14   ar
    17    29    33    1
    18    29    24   ar
    19    32    33    1
    20     9     7   am
    21    20    14   ar
    22     5     4   ar
    23     5     1   ar
    24    24    25   ar
    25    26    27   ar
    26     1     3   ar
    27     2     4   ar
    28     7     8    2
    29    12    13   ar
    30    14    15   ar
    31    16    17   ar
    32    18    19   ar
    33    28    29   ar
    34     9    10    1
    35    20    21    1
    36     5     6    1
@<TRIPOS>MOLECULE
MolPort-035-704-099 LN00427521 PubChem-86207152 ZINC000218305408
 33 36 0 0 0
SMALL
GASTEIGER

@<TRIPOS>ATOM
      1 C           9.4001   42.4733   11.2155 C.ar    1  UNL1        0.1359
      2 C          10.9515   42.5664    9.8277 C.ar    1  UNL1        0.2407
      3 N          10.1800   41.6671   10.4700 N.ar    1  UNL1       -0.1980
      4 N          10.6621   43.8371   10.1568 N.ar    1  UNL1       -0.1360
      5 N           9.6745   43.7784   11.0327 N.ar    1  UNL1       -0.2603
      6 H           9.2269   44.5403   11.4668 H       1  UNL1        0.1903
      7 C          11.7454   41.9009    7.5111 C.2     1  UNL1        0.2328
      8 O          10.5890   41.9539    7.0150 O.2     1  UNL1       -0.2743
      9 N          11.9735   42.2237    8.8868 N.am    1  UNL1       -0.2525
     10 H          12.9034   42.2088    9.2098 H       1  UNL1        0.1578
     11 C          12.8996   41.5119    6.6526 C.3     1  UNL1        0.1132
     12 C          13.9410   42.5814    6.6529 C.ar    1  UNL1        0.0053
     13 C          13.8845   43.7948    5.9759 C.ar    1  UNL1        0.0685
     14 C          15.7344   43.7751    7.0717 C.ar    1  UNL1        0.0563
     15 C          16.9681   44.1089    7.6290 C.ar    1  UNL1        0.0170
     16 C          17.5674   43.1772    8.4960 C.ar    1  UNL1        0.0015
     17 C          16.9297   41.9506    8.7827 C.ar    1  UNL1        0.0001
     18 C          15.6853   41.6406    8.2060 C.ar    1  UNL1        0.0012
     19 C          15.1198   42.5858    7.3532 C.ar    1  UNL1        0.0135
     20 N          14.9970   44.5288    6.2361 N.ar    1  UNL1       -0.3522
     21 H          15.2172   45.4227    5.8873 H       1  UNL1        0.1660
     22 C           8.3466   41.9654   12.1405 C.3     1  UNL1        0.0699
     23 C           7.3946   41.0295   11.4103 C.3     1  UNL1        0.0344
     24 C           4.3608   43.2199    9.2801 C.ar    1  UNL1        0.1724
     25 C           4.0427   42.4751   10.4224 C.ar    1  UNL1        0.0397
     26 C           5.0273   41.7724   11.1194 C.ar    1  UNL1       -0.0009
     27 C           6.3522   41.8092   10.6841 C.ar    1  UNL1       -0.0185
     28 C           6.6864   42.5432    9.5438 C.ar    1  UNL1        0.0358
     29 C           5.7058   43.2522    8.8284 C.ar    1  UNL1        0.1721
     30 C           3.4610   45.0444    7.8226 C.3     1  UNL1        0.2526
     31 O           3.3078   43.8957    8.6446 O.3     1  UNL1       -0.4684
     32 C           6.6525   43.3728    6.5412 C.3     1  UNL1        0.2526
     33 O           6.0583   43.9753    7.6826 O.3     1  UNL1       -0.4684
@<TRIPOS>BOND
     1    30    31    1
     2    24    31    1
     3    25    26   ar
     4    27    28   ar
     5    23    27    1
     6    23    22    1
     7    22     1    1
     8     2     3   ar
     9     2     9    1
    10    11     7    1
    11    11    12    1
    12    13    20   ar
    13    15    16   ar
    14    17    18   ar
    15    19    12   ar
    16    19    14   ar
    17    29    33    1
    18    29    24   ar
    19    32    33    1
    20     9     7   am
    21    20    14   ar
    22     5     4   ar
    23     5     1   ar
    24    24    25   ar
    25    26    27   ar
    26     1     3   ar
    27     2     4   ar
    28     7     8    2
    29    12    13   ar
    30    14    15   ar
    31    16    17   ar
    32    18    19   ar
    33    28    29   ar
    34     9    10    1
    35    20    21    1
    36     5     6    1
@<TRIPOS>MOLECULE
MolPort-035-704-099 LN00427521 PubChem-86207152 ZINC000218305408
 33 36 0 0 0
SMALL
GASTEIGER

@<TRIPOS>ATOM
      1 C           8.9794   44.1130   10.1904 C.ar    1  UNL1        0.1359
      2 C          10.6549   42.9244    9.8421 C.ar    1  UNL1        0.2407
      3 N          10.0228   44.0062    9.3455 N.ar    1  UNL1       -0.1980
      4 N          10.0406   42.4052   10.9191 N.ar    1  UNL1       -0.1360
      5 N           8.9810   43.1623   11.1433 N.ar    1  UNL1       -0.2603
      6 H           8.3217   43.0524   11.8661 H       1  UNL1        0.1903
      7 C          11.9302   41.5822    8.1066 C.2     1  UNL1        0.2328
      8 O          10.9036   41.3586    7.4121 O.2     1  UNL1       -0.2743
      9 N          11.8578   42.3742    9.2966 N.am    1  UNL1       -0.2525
     10 H          12.6988   42.5540    9.7757 H       1  UNL1        0.1578
     11 C          13.2458   41.0287    7.6783 C.3     1  UNL1        0.1132
     12 C          14.0947   42.0963    7.0717 C.ar    1  UNL1        0.0053
     13 C          13.7349   42.9564    6.0398 C.ar    1  UNL1        0.0685
     14 C          15.7293   43.4946    6.6364 C.ar    1  UNL1        0.0563
     15 C          16.9757   44.1082    6.7541 C.ar    1  UNL1        0.0170
     16 C          17.8535   43.6219    7.7399 C.ar    1  UNL1        0.0015
     17 C          17.4717   42.5488    8.5741 C.ar    1  UNL1        0.0001
     18 C          16.2078   41.9489    8.4329 C.ar    1  UNL1        0.0012
     19 C          15.3633   42.4557    7.4478 C.ar    1  UNL1        0.0135
     20 N          14.7500   43.8179    5.7725 N.ar    1  UNL1       -0.3522
     21 H          14.7659   44.5283    5.0911 H       1  UNL1        0.1660
     22 C           7.9392   45.1753   10.0756 C.3     1  UNL1        0.0699
     23 C           7.3335   45.1870    8.6798 C.3     1  UNL1        0.0344
     24 C           6.3932   41.2040    7.3413 C.ar    1  UNL1        0.1724
     25 C           7.3495   41.9802    6.6753 C.ar    1  UNL1        0.0397
     26 C           7.6621   43.2681    7.1143 C.ar    1  UNL1       -0.0009
     27 C           7.0226   43.7986    8.2348 C.ar    1  UNL1       -0.0185
     28 C           6.0627   43.0400    8.9084 C.ar    1  UNL1        0.0358
     29 C           5.7334   41.7436    8.4761 C.ar    1  UNL1        0.1721
     30 C           7.1081   39.1086    6.1749 C.3     1  UNL1        0.2526
     31 O           6.1444   39.9206    6.8311 O.3     1  UNL1       -0.4684
     32 C           3.4613   41.5015    9.4359 C.3     1  UNL1        0.2526
     33 O           4.7621   41.0016    9.1588 O.3     1  UNL1       -0.4684
@<TRIPOS>BOND
     1    30    31    1
     2    24    31    1
     3    25    26   ar
     4    27    28   ar
     5    23    27    1
     6    23    22    1
     7    22     1    1
     8     2     3   ar
     9     2     9    1
    10    11     7    1
    11    11    12    1
    12    13    20   ar
    13    15    16   ar
    14    17    18   ar
    15    19    12   ar
    16    19    14   ar
    17    29    33    1
    18    29    24   ar
    19    32    33    1
    20     9     7   am
    21    20    14   ar
    22     5     4   ar
    23     5     1   ar
    24    24    25   ar
    25    26    27   ar
    26     1     3   ar
    27     2     4   ar
    28     7     8    2
    29    12    13   ar
    30    14    15   ar
    31    16    17   ar
    32    18    19   ar
    33    28    29   ar
    34     9    10    1
    35    20    21    1
    36     5     6    1
@<TRIPOS>MOLECULE
MolPort-035-704-099 LN00427521 PubChem-86207152 ZINC000218305408
 33 36 0 0 0
SMALL
GASTEIGER

@<TRIPOS>ATOM
      1 C           9.3921   42.1821   11.3497 C.ar    1  UNL1        0.1359
      2 C          11.0333   41.7925   10.1266 C.ar    1  UNL1        0.2407
      3 N          10.0641   41.1488   10.8067 N.ar    1  UNL1       -0.1980
      4 N          10.9586   43.1294   10.2441 N.ar    1  UNL1       -0.1360
      5 N           9.9145   43.3768   11.0153 N.ar    1  UNL1       -0.2603
      6 H           9.5833   44.2618   11.2913 H       1  UNL1        0.1903
      7 C          13.0819   40.3140    9.8874 C.2     1  UNL1        0.2328
      8 O          13.1399   40.0623   11.1200 O.2     1  UNL1       -0.2743
      9 N          12.0423   41.1386    9.3509 N.am    1  UNL1       -0.2525
     10 H          12.0197   41.2653    8.3748 H       1  UNL1        0.1578
     11 C          14.1001   39.7337    8.9670 C.3     1  UNL1        0.1132
     12 C          15.3914   40.4749    9.0744 C.ar    1  UNL1        0.0053
     13 C          16.4876   40.1232    9.8546 C.ar    1  UNL1        0.0685
     14 C          17.0273   41.9091    8.7858 C.ar    1  UNL1        0.0563
     15 C          17.7064   43.0150    8.2761 C.ar    1  UNL1        0.0170
     16 C          17.0343   43.8200    7.3385 C.ar    1  UNL1        0.0015
     17 C          15.7177   43.5063    6.9367 C.ar    1  UNL1        0.0001
     18 C          15.0570   42.3843    7.4676 C.ar    1  UNL1        0.0012
     19 C          15.7519   41.6086    8.3927 C.ar    1  UNL1        0.0135
     20 N          17.4961   41.0146    9.6746 N.ar    1  UNL1       -0.3522
     21 H          18.3823   41.0077   10.1035 H       1  UNL1        0.1660
     22 C           8.1972   42.0112   12.2252 C.3     1  UNL1        0.0699
     23 C           7.2059   41.0410   11.5997 C.3     1  UNL1        0.0344
     24 C           4.1651   43.1185    9.3687 C.ar    1  UNL1        0.1724
     25 C           3.8634   42.4880   10.5820 C.ar    1  UNL1        0.0397
     26 C           4.8507   41.8224   11.3110 C.ar    1  UNL1       -0.0009
     27 C           6.1619   41.7822   10.8364 C.ar    1  UNL1       -0.0185
     28 C           6.4795   42.4018    9.6256 C.ar    1  UNL1        0.0358
     29 C           5.4959   43.0719    8.8776 C.ar    1  UNL1        0.1721
     30 C           3.2511   44.9270    7.9003 C.3     1  UNL1        0.2526
     31 O           3.1107   43.7648    8.7054 O.3     1  UNL1       -0.4684
     32 C           6.9580   43.2905    6.8886 C.3     1  UNL1        0.2526
     33 O           5.8313   43.6795    7.6618 O.3     1  UNL1       -0.4684
@<TRIPOS>BOND
     1    30    31    1
     2    24    31    1
     3    25    26   ar
     4    27    28   ar
     5    23    27    1
     6    23    22    1
     7    22     1    1
     8     2     3   ar
     9     2     9    1
    10    11     7    1
    11    11    12    1
    12    13    20   ar
    13    15    16   ar
    14    17    18   ar
    15    19    12   ar
    16    19    14   ar
    17    29    33    1
    18    29    24   ar
    19    32    33    1
    20     9     7   am
    21    20    14   ar
    22     5     4   ar
    23     5     1   ar
    24    24    25   ar
    25    26    27   ar
    26     1     3   ar
    27     2     4   ar
    28     7     8    2
    29    12    13   ar
    30    14    15   ar
    31    16    17   ar
    32    18    19   ar
    33    28    29   ar
    34     9    10    1
    35    20    21    1
    36     5     6    1
@<TRIPOS>MOLECULE
MolPort-035-704-099 LN00427521 PubChem-86207152 ZINC000218305408
 33 36 0 0 0
SMALL
GASTEIGER

@<TRIPOS>ATOM
      1 C           8.6867   42.4309   10.3655 C.ar    1  UNL1        0.1359
      2 C          10.7310   42.4871    9.9666 C.ar    1  UNL1        0.2407
      3 N           9.6601   41.6839    9.8102 N.ar    1  UNL1       -0.1980
      4 N          10.4327   43.6480   10.5750 N.ar    1  UNL1       -0.1360
      5 N           9.1352   43.6147   10.8231 N.ar    1  UNL1       -0.2603
      6 H           8.6009   44.3183   11.2576 H       1  UNL1        0.1903
      7 C          12.4152   40.9557    8.8451 C.2     1  UNL1        0.2328
      8 O          11.5437   40.1060    8.5216 O.2     1  UNL1       -0.2743
      9 N          12.0541   42.1581    9.5325 N.am    1  UNL1       -0.2525
     10 H          12.7697   42.8074    9.7207 H       1  UNL1        0.1578
     11 C          13.8439   40.7174    8.4949 C.3     1  UNL1        0.1132
     12 C          14.3550   41.7980    7.6008 C.ar    1  UNL1        0.0053
     13 C          13.6600   42.4190    6.5686 C.ar    1  UNL1        0.0685
     14 C          15.5946   43.3519    6.6706 C.ar    1  UNL1        0.0563
     15 C          16.7057   44.1656    6.4528 C.ar    1  UNL1        0.0170
     16 C          17.8231   43.9837    7.2877 C.ar    1  UNL1        0.0015
     17 C          17.8055   43.0070    8.3071 C.ar    1  UNL1        0.0001
     18 C          16.6707   42.2003    8.5039 C.ar    1  UNL1        0.0012
     19 C          15.5818   42.4075    7.6603 C.ar    1  UNL1        0.0135
     20 N          14.4317   43.3778    5.9947 N.ar    1  UNL1       -0.3522
     21 H          14.1911   43.9668    5.2434 H       1  UNL1        0.1660
     22 C           7.2663   41.9865   10.4575 C.3     1  UNL1        0.0699
     23 C           6.4816   42.4343    9.2332 C.3     1  UNL1        0.0344
     24 C           7.7920   40.2040    5.7910 C.ar    1  UNL1        0.1724
     25 C           6.7671   39.7215    6.6140 C.ar    1  UNL1        0.0397
     26 C           6.3349   40.4484    7.7247 C.ar    1  UNL1       -0.0009
     27 C           6.9216   41.6775    8.0266 C.ar    1  UNL1       -0.0185
     28 C           7.9485   42.1717    7.2192 C.ar    1  UNL1        0.0358
     29 C           8.3981   41.4496    6.1001 C.ar    1  UNL1        0.1721
     30 C           9.3572   38.6465    4.6134 C.3     1  UNL1        0.2526
     31 O           8.1603   39.4075    4.6959 O.3     1  UNL1       -0.4684
     32 C          10.8027   41.6462    5.5331 C.3     1  UNL1        0.2526
     33 O           9.4347   41.9569    5.3076 O.3     1  UNL1       -0.4684
@<TRIPOS>BOND
     1    30    31    1
     2    24    31    1
     3    25    26   ar
     4    27    28   ar
     5    23    27    1
     6    23    22    1
     7    22     1    1
     8     2     3   ar
     9     2     9    1
    10    11     7    1
    11    11    12    1
    12    13    20   ar
    13    15    16   ar
    14    17    18   ar
    15    19    12   ar
    16    19    14   ar
    17    29    33    1
    18    29    24   ar
    19    32    33    1
    20     9     7   am
    21    20    14   ar
    22     5     4   ar
    23     5     1   ar
    24    24    25   ar
    25    26    27   ar
    26     1     3   ar
    27     2     4   ar
    28     7     8    2
    29    12    13   ar
    30    14    15   ar
    31    16    17   ar
    32    18    19   ar
    33    28    29   ar
    34     9    10    1
    35    20    21    1
    36     5     6    1
@<TRIPOS>MOLECULE
MolPort-035-704-099 LN00427521 PubChem-86207152 ZINC000218305408
 33 36 0 0 0
SMALL
GASTEIGER

@<TRIPOS>ATOM
      1 C          10.0284   40.7094    5.9283 C.ar    1  UNL1        0.1359
      2 C           8.4135   41.9423    6.3904 C.ar    1  UNL1        0.2407
      3 N           9.7156   41.7725    6.6938 N.ar    1  UNL1       -0.1980
      4 N           7.9606   41.0448    5.4981 N.ar    1  UNL1       -0.1360
      5 N           8.9861   40.2663    5.2009 N.ar    1  UNL1       -0.2603
      6 H           8.9875   39.5100    4.5706 H       1  UNL1        0.1903
      7 C           7.7806   43.5748    8.2272 C.2     1  UNL1        0.2328
      8 O           8.7660   43.2658    8.9481 O.2     1  UNL1       -0.2743
      9 N           7.5849   42.9681    6.9458 N.am    1  UNL1       -0.2525
     10 H           6.8230   43.2799    6.4059 H       1  UNL1        0.1578
     11 C           6.8093   44.5990    8.7048 C.3     1  UNL1        0.1132
     12 C           5.4278   44.0352    8.7498 C.ar    1  UNL1        0.0053
     13 C           4.3128   44.5162    8.0720 C.ar    1  UNL1        0.0685
     14 C           3.6818   42.7686    9.1542 C.ar    1  UNL1        0.0563
     15 C           2.9404   41.7158    9.6889 C.ar    1  UNL1        0.0170
     16 C           3.6090   40.8044   10.5263 C.ar    1  UNL1        0.0015
     17 C           4.9836   40.9630   10.8065 C.ar    1  UNL1        0.0001
     18 C           5.7064   42.0346   10.2530 C.ar    1  UNL1        0.0012
     19 C           5.0139   42.9176    9.4277 C.ar    1  UNL1        0.0135
     20 N           3.2346   43.7309    8.3271 N.ar    1  UNL1       -0.3522
     21 H           2.3199   43.8421    7.9804 H       1  UNL1        0.1660
     22 C          11.3875   40.0966    5.8954 C.3     1  UNL1        0.0699
     23 C          12.0396   40.1591    7.2687 C.3     1  UNL1        0.0344
     24 C          15.3142   42.9547    7.3027 C.ar    1  UNL1        0.1724
     25 C          15.2989   41.8534    8.1673 C.ar    1  UNL1        0.0397
     26 C          14.2424   40.9411    8.1503 C.ar    1  UNL1       -0.0009
     27 C          13.1828   41.1157    7.2598 C.ar    1  UNL1       -0.0185
     28 C          13.1795   42.2113    6.3936 C.ar    1  UNL1        0.0358
     29 C          14.2336   43.1413    6.4017 C.ar    1  UNL1        0.1721
     30 C          17.7578   43.4016    7.6053 C.3     1  UNL1        0.2526
     31 O          16.4171   43.8184    7.3879 O.3     1  UNL1       -0.4684
     32 C          15.1094   45.3315    5.6415 C.3     1  UNL1        0.2526
     33 O          14.2086   44.2382    5.5322 O.3     1  UNL1       -0.4684
@<TRIPOS>BOND
     1    30    31    1
     2    24    31    1
     3    25    26   ar
     4    27    28   ar
     5    23    27    1
     6    23    22    1
     7    22     1    1
     8     2     3   ar
     9     2     9    1
    10    11     7    1
    11    11    12    1
    12    13    20   ar
    13    15    16   ar
    14    17    18   ar
    15    19    12   ar
    16    19    14   ar
    17    29    33    1
    18    29    24   ar
    19    32    33    1
    20     9     7   am
    21    20    14   ar
    22     5     4   ar
    23     5     1   ar
    24    24    25   ar
    25    26    27   ar
    26     1     3   ar
    27     2     4   ar
    28     7     8    2
    29    12    13   ar
    30    14    15   ar
    31    16    17   ar
    32    18    19   ar
    33    28    29   ar
    34     9    10    1
    35    20    21    1
    36     5     6    1
@<TRIPOS>MOLECULE
MolPort-035-704-099 LN00427521 PubChem-86207152 ZINC000218305408
 33 36 0 0 0
SMALL
GASTEIGER

@<TRIPOS>ATOM
      1 C           9.4278   40.3022    6.2076 C.ar    1  UNL1        0.1359
      2 C          11.3418   41.0613    5.8887 C.ar    1  UNL1        0.2407
      3 N          10.0600   41.4686    5.9756 N.ar    1  UNL1       -0.1980
      4 N          11.4845   39.7355    6.0577 N.ar    1  UNL1       -0.1360
      5 N          10.2713   39.2548    6.2654 N.ar    1  UNL1       -0.2603
      6 H          10.0313   38.3143    6.4302 H       1  UNL1        0.1903
      7 C          12.9672   42.8800    6.5890 C.2     1  UNL1        0.2328
      8 O          12.4925   42.9640    7.7525 O.2     1  UNL1       -0.2743
      9 N          12.4491   41.9347    5.6473 N.am    1  UNL1       -0.2525
     10 H          12.8876   41.8816    4.7674 H       1  UNL1        0.1578
     11 C          14.0964   43.7654    6.1869 C.3     1  UNL1        0.1132
     12 C          15.3400   43.4040    6.9293 C.ar    1  UNL1        0.0053
     13 C          16.5347   44.1157    6.9428 C.ar    1  UNL1        0.0685
     14 C          16.7996   42.4232    8.2423 C.ar    1  UNL1        0.0563
     15 C          17.3147   41.4825    9.1331 C.ar    1  UNL1        0.0170
     16 C          16.4718   40.4290    9.5313 C.ar    1  UNL1        0.0015
     17 C          15.1521   40.3405    9.0377 C.ar    1  UNL1        0.0001
     18 C          14.6591   41.3040    8.1400 C.ar    1  UNL1        0.0012
     19 C          15.5198   42.3339    7.7674 C.ar    1  UNL1        0.0135
     20 N          17.4353   43.5039    7.7545 N.ar    1  UNL1       -0.3522
     21 H          18.3577   43.7904    7.9454 H       1  UNL1        0.1660
     22 C           7.9509   40.1928    6.3820 C.3     1  UNL1        0.0699
     23 C           7.5643   40.3982    7.8393 C.3     1  UNL1        0.0344
     24 C           5.0077   43.8327    8.2954 C.ar    1  UNL1        0.1724
     25 C           6.2202   43.9250    7.6012 C.ar    1  UNL1        0.0397
     26 C           7.0452   42.8098    7.4444 C.ar    1  UNL1       -0.0009
     27 C           6.6645   41.5785    7.9784 C.ar    1  UNL1       -0.0185
     28 C           5.4606   41.4695    8.6779 C.ar    1  UNL1        0.0358
     29 C           4.6211   42.5841    8.8484 C.ar    1  UNL1        0.1721
     30 C           3.1940   45.3705    7.5155 C.3     1  UNL1        0.2526
     31 O           4.2420   45.0039    8.4021 O.3     1  UNL1       -0.4684
     32 C           2.7496   41.2170    9.7263 C.3     1  UNL1        0.2526
     33 O           3.4222   42.4575    9.5602 O.3     1  UNL1       -0.4684
@<TRIPOS>BOND
     1    30    31    1
     2    24    31    1
     3    25    26   ar
     4    27    28   ar
     5    23    27    1
     6    23    22    1
     7    22     1    1
     8     2     3   ar
     9     2     9    1
    10    11     7    1
    11    11    12    1
    12    13    20   ar
    13    15    16   ar
    14    17    18   ar
    15    19    12   ar
    16    19    14   ar
    17    29    33    1
    18    29    24   ar
    19    32    33    1
    20     9     7   am
    21    20    14   ar
    22     5     4   ar
    23     5     1   ar
    24    24    25   ar
    25    26    27   ar
    26     1     3   ar
    27     2     4   ar
    28     7     8    2
    29    12    13   ar
    30    14    15   ar
    31    16    17   ar
    32    18    19   ar
    33    28    29   ar
    34     9    10    1
    35    20    21    1
    36     5     6    1
@<TRIPOS>MOLECULE
MolPort-035-704-099 LN00427521 PubChem-86207152 ZINC000218305408
 33 36 0 0 0
SMALL
GASTEIGER

@<TRIPOS>ATOM
      1 C           8.2765   41.5246    6.1843 C.ar    1  UNL1        0.1359
      2 C          10.2990   41.0462    6.3326 C.ar    1  UNL1        0.2407
      3 N           9.4146   41.9755    6.7458 N.ar    1  UNL1       -0.1980
      4 N           9.7394   40.0903    5.5710 N.ar    1  UNL1       -0.1360
      5 N           8.4558   40.3906    5.4815 N.ar    1  UNL1       -0.2603
      6 H           7.7654   39.8840    4.9957 H       1  UNL1        0.1903
      7 C          12.2379   40.6324    7.9166 C.2     1  UNL1        0.2328
      8 O          11.5000   40.1555    8.8190 O.2     1  UNL1       -0.2743
      9 N          11.6909   41.0564    6.6637 N.am    1  UNL1       -0.2525
     10 H          12.3196   41.3794    5.9784 H       1  UNL1        0.1578
     11 C          13.7060   40.7441    8.1461 C.3     1  UNL1        0.1132
     12 C          14.2543   41.9579    7.4720 C.ar    1  UNL1        0.0053
     13 C          13.5671   42.8155    6.6198 C.ar    1  UNL1        0.0685
     14 C          15.5570   43.6028    6.8289 C.ar    1  UNL1        0.0563
     15 C          16.7083   44.3837    6.7358 C.ar    1  UNL1        0.0170
     16 C          17.8376   43.9735    7.4674 C.ar    1  UNL1        0.0015
     17 C          17.7918   42.8090    8.2644 C.ar    1  UNL1        0.0001
     18 C          16.6167   42.0405    8.3394 C.ar    1  UNL1        0.0012
     19 C          15.5171   42.4757    7.6033 C.ar    1  UNL1        0.0135
     20 N          14.3777   43.8301    6.2226 N.ar    1  UNL1       -0.3522
     21 H          14.1506   44.5741    5.6192 H       1  UNL1        0.1660
     22 C           6.9624   42.2138    6.3322 C.3     1  UNL1        0.0699
     23 C           7.0293   43.2716    7.4240 C.3     1  UNL1        0.0344
     24 C           4.5836   42.2013   10.8022 C.ar    1  UNL1        0.1724
     25 C           4.0500   42.9220    9.7268 C.ar    1  UNL1        0.0397
     26 C           4.8397   43.2611    8.6266 C.ar    1  UNL1       -0.0009
     27 C           6.1803   42.8776    8.5841 C.ar    1  UNL1       -0.0185
     28 C           6.7301   42.1624    9.6504 C.ar    1  UNL1        0.0358
     29 C           5.9495   41.8174   10.7673 C.ar    1  UNL1        0.1721
     30 C           2.3145   42.1355   11.8556 C.3     1  UNL1        0.2526
     31 O           3.7161   41.9030   11.8643 O.3     1  UNL1       -0.4684
     32 C           7.8704   41.2809   12.2385 C.3     1  UNL1        0.2526
     33 O           6.5204   41.1078   11.8306 O.3     1  UNL1       -0.4684
@<TRIPOS>BOND
     1    30    31    1
     2    24    31    1
     3    25    26   ar
     4    27    28   ar
     5    23    27    1
     6    23    22    1
     7    22     1    1
     8     2     3   ar
     9     2     9    1
    10    11     7    1
    11    11    12    1
    12    13    20   ar
    13    15    16   ar
    14    17    18   ar
    15    19    12   ar
    16    19    14   ar
    17    29    33    1
    18    29    24   ar
    19    32    33    1
    20     9     7   am
    21    20    14   ar
    22     5     4   ar
    23     5     1   ar
    24    24    25   ar
    25    26    27   ar
    26     1     3   ar
    27     2     4   ar
    28     7     8    2
    29    12    13   ar
    30    14    15   ar
    31    16    17   ar
    32    18    19   ar
    33    28    29   ar
    34     9    10    1
    35    20    21    1
    36     5     6    1
@<TRIPOS>MOLECULE
MolPort-035-704-099 LN00427521 PubChem-86207152 ZINC000218305408
 33 36 0 0 0
SMALL
GASTEIGER

@<TRIPOS>ATOM
      1 C           8.3078   39.8147    6.0032 C.ar    1  UNL1        0.1359
      2 C          10.3889   39.8961    6.0638 C.ar    1  UNL1        0.2407
      3 N           9.3191   39.9570    6.8812 N.ar    1  UNL1       -0.1980
      4 N          10.0548   39.7264    4.7729 N.ar    1  UNL1       -0.1360
      5 N           8.7352   39.6693    4.7351 N.ar    1  UNL1       -0.2603
      6 H           8.1743   39.5447    3.9357 H       1  UNL1        0.1903
      7 C          12.2185   40.9061    7.5034 C.2     1  UNL1        0.2328
      8 O          11.4240   41.6693    8.1138 O.2     1  UNL1       -0.2743
      9 N          11.7462   39.9949    6.5058 N.am    1  UNL1       -0.2525
     10 H          12.4046   39.3906    6.0928 H       1  UNL1        0.1578
     11 C          13.6715   40.9375    7.8326 C.3     1  UNL1        0.1132
     12 C          14.3456   42.0725    7.1358 C.ar    1  UNL1        0.0053
     13 C          13.8096   42.8604    6.1228 C.ar    1  UNL1        0.0685
     14 C          15.7762   43.6250    6.5361 C.ar    1  UNL1        0.0563
     15 C          16.9539   44.3715    6.5351 C.ar    1  UNL1        0.0170
     16 C          17.9585   44.0092    7.4507 C.ar    1  UNL1        0.0015
     17 C          17.7665   42.9250    8.3344 C.ar    1  UNL1        0.0001
     18 C          16.5681   42.1897    8.3132 C.ar    1  UNL1        0.0012
     19 C          15.5944   42.5758    7.3950 C.ar    1  UNL1        0.0135
     20 N          14.6991   43.8178    5.7535 N.ar    1  UNL1       -0.3522
     21 H          14.5807   44.5067    5.0602 H       1  UNL1        0.1660
     22 C           6.8711   39.8177    6.4027 C.3     1  UNL1        0.0699
     23 C           6.4410   41.2053    6.8550 C.3     1  UNL1        0.0344
     24 C           7.1168   41.6104   11.0881 C.ar    1  UNL1        0.1724
     25 C           8.1638   41.7746   10.1730 C.ar    1  UNL1        0.0397
     26 C           7.9437   41.6530    8.7998 C.ar    1  UNL1       -0.0009
     27 C           6.6652   41.3690    8.3196 C.ar    1  UNL1       -0.0185
     28 C           5.6101   41.1974    9.2185 C.ar    1  UNL1        0.0358
     29 C           5.8163   41.3119   10.6043 C.ar    1  UNL1        0.1721
     30 C           8.6260   41.2876   13.0580 C.3     1  UNL1        0.2526
     31 O           7.4296   41.7523   12.4487 O.3     1  UNL1       -0.4684
     32 C           3.4029   41.4364   11.1536 C.3     1  UNL1        0.2526
     33 O           4.7483   41.1279   11.4905 O.3     1  UNL1       -0.4684
@<TRIPOS>BOND
     1    30    31    1
     2    24    31    1
     3    25    26   ar
     4    27    28   ar
     5    23    27    1
     6    23    22    1
     7    22     1    1
     8     2     3   ar
     9     2     9    1
    10    11     7    1
    11    11    12    1
    12    13    20   ar
    13    15    16   ar
    14    17    18   ar
    15    19    12   ar
    16    19    14   ar
    17    29    33    1
    18    29    24   ar
    19    32    33    1
    20     9     7   am
    21    20    14   ar
    22     5     4   ar
    23     5     1   ar
    24    24    25   ar
    25    26    27   ar
    26     1     3   ar
    27     2     4   ar
    28     7     8    2
    29    12    13   ar
    30    14    15   ar
    31    16    17   ar
    32    18    19   ar
    33    28    29   ar
    34     9    10    1
    35    20    21    1
    36     5     6    1
@<TRIPOS>MOLECULE
MolPort-035-704-099 LN00427521 PubChem-86207152 ZINC000218305408
 33 36 0 0 0
SMALL
GASTEIGER

@<TRIPOS>ATOM
      1 C           9.0087   41.4769    7.1784 C.ar    1  UNL1        0.1359
      2 C          10.9910   40.8448    7.0694 C.ar    1  UNL1        0.2407
      3 N           9.9298   40.8093    7.8993 N.ar    1  UNL1       -0.1980
      4 N          10.7361   41.4892    5.9176 N.ar    1  UNL1       -0.1360
      5 N           9.4772   41.8853    5.9844 N.ar    1  UNL1       -0.2603
      6 H           8.9793   42.3821    5.2955 H       1  UNL1        0.1903
      7 C          13.0249   40.5087    8.5493 C.2     1  UNL1        0.2328
      8 O          12.5770   41.2482    9.4652 O.2     1  UNL1       -0.2743
      9 N          12.2629   40.2590    7.3638 N.am    1  UNL1       -0.2525
     10 H          12.6423   39.6376    6.7011 H       1  UNL1        0.1578
     11 C          14.3616   39.8688    8.7049 C.3     1  UNL1        0.1132
     12 C          15.4401   40.9005    8.7328 C.ar    1  UNL1        0.0053
     13 C          16.5795   40.8885    9.5302 C.ar    1  UNL1        0.0685
     14 C          16.6942   42.6491    8.3012 C.ar    1  UNL1        0.0563
     15 C          17.0987   43.8343    7.6883 C.ar    1  UNL1        0.0170
     16 C          16.2661   44.3712    6.6896 C.ar    1  UNL1        0.0015
     17 C          15.0654   43.7210    6.3307 C.ar    1  UNL1        0.0001
     18 C          14.6824   42.5264    6.9659 C.ar    1  UNL1        0.0012
     19 C          15.5303   42.0221    7.9493 C.ar    1  UNL1        0.0135
     20 N          17.3510   41.9733    9.2613 N.ar    1  UNL1       -0.3522
     21 H          18.2088   42.2140    9.6801 H       1  UNL1        0.1660
     22 C           7.6200   41.7304    7.6591 C.3     1  UNL1        0.0699
     23 C           7.5562   41.6667    9.1780 C.3     1  UNL1        0.0344
     24 C           3.5487   42.4824   10.5252 C.ar    1  UNL1        0.1724
     25 C           4.3698   41.5804   11.2129 C.ar    1  UNL1        0.0397
     26 C           5.6726   41.3226   10.7825 C.ar    1  UNL1       -0.0009
     27 C           6.1769   41.9707    9.6549 C.ar    1  UNL1       -0.0185
     28 C           5.3701   42.8700    8.9541 C.ar    1  UNL1        0.0358
     29 C           4.0547   43.1368    9.3719 C.ar    1  UNL1        0.1721
     30 C           1.7881   42.1902   12.2794 C.3     1  UNL1        0.2526
     31 O           2.2547   42.6811   11.0304 O.3     1  UNL1       -0.4684
     32 C           3.7957   44.9998    7.7582 C.3     1  UNL1        0.2526
     33 O           3.2579   44.0346    8.6515 O.3     1  UNL1       -0.4684
@<TRIPOS>BOND
     1    30    31    1
     2    24    31    1
     3    25    26   ar
     4    27    28   ar
     5    23    27    1
     6    23    22    1
     7    22     1    1
     8     2     3   ar
     9     2     9    1
    10    11     7    1
    11    11    12    1
    12    13    20   ar
    13    15    16   ar
    14    17    18   ar
    15    19    12   ar
    16    19    14   ar
    17    29    33    1
    18    29    24   ar
    19    32    33    1
    20     9     7   am
    21    20    14   ar
    22     5     4   ar
    23     5     1   ar
    24    24    25   ar
    25    26    27   ar
    26     1     3   ar
    27     2     4   ar
    28     7     8    2
    29    12    13   ar
    30    14    15   ar
    31    16    17   ar
    32    18    19   ar
    33    28    29   ar
    34     9    10    1
    35    20    21    1
    36     5     6    1
