@<TRIPOS>MOLECULE
MolPort-051-561-905 CHEMBL5994056 CSSS06454646771 MCULE-8069612432 PubChem-135378781
 35 38 0 0 0
SMALL
GASTEIGER

@<TRIPOS>ATOM
      1 C          11.0376   39.9019    7.0721 C.ar    1  UNL1        0.1118
      2 C          12.2604   40.0277    7.7023 C.ar    1  UNL1        0.0892
      3 C          12.3119   39.0427    8.6778 C.ar    1  UNL1        0.1187
      4 N          10.4067   38.8792    7.6795 N.ar    1  UNL1       -0.2388
      5 N          11.1561   38.3520    8.6349 N.ar    1  UNL1       -0.1674
      6 C          13.4250   38.7557    9.6205 C.ar    1  UNL1        0.0556
      7 C          13.2774   37.8495   10.6982 C.ar    1  UNL1        0.1458
      8 C          14.3637   37.6178   11.5600 C.ar    1  UNL1        0.0380
      9 C          15.5823   38.2674   11.3632 C.ar    1  UNL1        0.0145
     10 C          15.7301   39.1579   10.3018 C.ar    1  UNL1        0.0579
     11 C          14.6600   39.3981    9.4404 C.ar    1  UNL1        0.0160
     12 CL         17.2563   39.9756   10.0480 Cl      1  UNL1       -0.0822
     13 O          12.0578   37.1909   10.9047 O.3     1  UNL1       -0.4236
     14 C          11.8382   35.8261   10.5685 C.3     1  UNL1        0.5087
     15 F          13.0335   35.1382   10.6435 F       1  UNL1       -0.1550
     16 F          10.9339   35.2664   11.4525 F       1  UNL1       -0.1550
     17 C          13.1441   42.1300    6.5641 C.2     1  UNL1        0.2541
     18 N          13.2903   40.9771    7.4012 N.am    1  UNL1       -0.2778
     19 O          12.0406   42.3903    6.0137 O.2     1  UNL1       -0.2696
     20 H          14.1752   40.8238    7.8047 H       1  UNL1        0.1553
     21 C          14.2969   43.0141    6.3493 C.ar    1  UNL1        0.1102
     22 C          15.4898   43.0468    7.0304 C.ar    1  UNL1        0.1697
     23 C          17.1481   42.4984    8.5851 C.ar    1  UNL1        0.1022
     24 C          17.9787   43.5046    8.0523 C.ar    1  UNL1        0.0414
     25 C          17.5045   44.2739    6.9805 C.ar    1  UNL1        0.1037
     26 C          14.4181   44.0214    5.3904 C.ar    1  UNL1        0.1281
     27 N          15.9044   42.2772    8.0668 N.ar    1  UNL1       -0.2248
     28 N          16.2626   44.0038    6.5132 N.ar    1  UNL1       -0.2105
     29 N          15.6367   44.6086    5.5191 N.ar    1  UNL1       -0.1619
     30 C           9.0976   38.3683    7.3093 C.3     1  UNL1        0.2121
     31 C           7.8022   40.7878    8.4215 C.3     1  UNL1        0.1150
     32 C           7.0239   41.4384    6.1426 C.3     1  UNL1        0.1150
     33 C           8.3910   39.3553    6.4360 C.2     1  UNL1        0.2506
     34 N           7.7460   40.5092    6.9955 N.am    1  UNL1       -0.2744
     35 O           8.3410   39.1409    5.1950 O.2     1  UNL1       -0.2727
@<TRIPOS>BOND
     1    31    34    1
     2    32    34    1
     3    30    33    1
     4    30     4    1
     5     2     3   ar
     6     2    18    1
     7     3     6    1
     8     7     8   ar
     9     7    13    1
    10     9    10   ar
    11    10    12    1
    12    11     6   ar
    13    14    13    1
    14    14    15    1
    15    14    16    1
    16    17    21    1
    17    22    27   ar
    18    23    24   ar
    19    25    28   ar
    20    26    21   ar
    21    34    33   am
    22     4     1   ar
    23     4     5   ar
    24    18    17   am
    25    28    29   ar
    26    28    22   ar
    27    33    35    2
    28     1     2   ar
    29     3     5   ar
    30     6     7   ar
    31     8     9   ar
    32    10    11   ar
    33    17    19    2
    34    21    22   ar
    35    23    27   ar
    36    24    25   ar
    37    26    29   ar
    38    18    20    1
@<TRIPOS>MOLECULE
MolPort-051-561-905 CHEMBL5994056 CSSS06454646771 MCULE-8069612432 PubChem-135378781
 35 38 0 0 0
SMALL
GASTEIGER

@<TRIPOS>ATOM
      1 C          10.8736   39.9878    6.9395 C.ar    1  UNL1        0.1118
      2 C          12.0569   40.1300    7.6380 C.ar    1  UNL1        0.0892
      3 C          12.0521   39.1654    8.6350 C.ar    1  UNL1        0.1187
      4 N          10.2095   38.9761    7.5297 N.ar    1  UNL1       -0.2388
      5 N          10.9021   38.4709    8.5384 N.ar    1  UNL1       -0.1674
      6 C          13.1082   38.9011    9.6476 C.ar    1  UNL1        0.0556
      7 C          13.0055   39.3770   10.9769 C.ar    1  UNL1        0.1458
      8 C          14.0356   39.0986   11.8922 C.ar    1  UNL1        0.0380
      9 C          15.1530   38.3583   11.5059 C.ar    1  UNL1        0.0145
     10 C          15.2547   37.8872   10.1986 C.ar    1  UNL1        0.0579
     11 C          14.2407   38.1577    9.2802 C.ar    1  UNL1        0.0160
     12 CL         16.6531   36.9569    9.7071 Cl      1  UNL1       -0.0822
     13 O          11.8869   40.1210   11.3758 O.3     1  UNL1       -0.4236
     14 C          11.1397   40.9471   10.4908 C.3     1  UNL1        0.5087
     15 F           9.7934   40.8183   10.7715 F       1  UNL1       -0.1550
     16 F          11.5152   42.2678   10.6549 F       1  UNL1       -0.1550
     17 C          13.0011   42.2141    6.5150 C.2     1  UNL1        0.2541
     18 N          13.1013   41.0759    7.3785 N.am    1  UNL1       -0.2778
     19 O          11.9297   42.4632    5.8997 O.2     1  UNL1       -0.2696
     20 H          13.9624   40.9309    7.8332 H       1  UNL1        0.1553
     21 C          14.1634   43.0963    6.3497 C.ar    1  UNL1        0.1102
     22 C          15.3765   43.0444    6.9930 C.ar    1  UNL1        0.1697
     23 C          17.0696   42.3228    8.4353 C.ar    1  UNL1        0.1022
     24 C          17.9028   43.3623    7.9754 C.ar    1  UNL1        0.0414
     25 C          17.4115   44.2385    6.9975 C.ar    1  UNL1        0.1037
     26 C          14.2751   44.1892    5.4881 C.ar    1  UNL1        0.1281
     27 N          15.8071   42.1722    7.9375 N.ar    1  UNL1       -0.2248
     28 N          16.1514   44.0343    6.5457 N.ar    1  UNL1       -0.2105
     29 N          15.5077   44.7417    5.6341 N.ar    1  UNL1       -0.1619
     30 C           8.9253   38.4541    7.0935 C.3     1  UNL1        0.2121
     31 C           7.4930   40.7677    8.2615 C.3     1  UNL1        0.1150
     32 C           6.8026   41.5113    5.9827 C.3     1  UNL1        0.1150
     33 C           8.2269   39.4618    6.2374 C.2     1  UNL1        0.2506
     34 N           7.5153   40.5628    6.8221 N.am    1  UNL1       -0.2744
     35 O           8.2444   39.3113    4.9863 O.2     1  UNL1       -0.2727
@<TRIPOS>BOND
     1    31    34    1
     2    32    34    1
     3    30    33    1
     4    30     4    1
     5     2     3   ar
     6     2    18    1
     7     3     6    1
     8     7     8   ar
     9     7    13    1
    10     9    10   ar
    11    10    12    1
    12    11     6   ar
    13    14    13    1
    14    14    15    1
    15    14    16    1
    16    17    21    1
    17    22    27   ar
    18    23    24   ar
    19    25    28   ar
    20    26    21   ar
    21    34    33   am
    22     4     1   ar
    23     4     5   ar
    24    18    17   am
    25    28    29   ar
    26    28    22   ar
    27    33    35    2
    28     1     2   ar
    29     3     5   ar
    30     6     7   ar
    31     8     9   ar
    32    10    11   ar
    33    17    19    2
    34    21    22   ar
    35    23    27   ar
    36    24    25   ar
    37    26    29   ar
    38    18    20    1
@<TRIPOS>MOLECULE
MolPort-051-561-905 CHEMBL5994056 CSSS06454646771 MCULE-8069612432 PubChem-135378781
 35 38 0 0 0
SMALL
GASTEIGER

@<TRIPOS>ATOM
      1 C          10.2158   42.9111    9.5558 C.ar    1  UNL1        0.1118
      2 C          11.4017   42.2621    9.2717 C.ar    1  UNL1        0.0892
      3 C          11.3072   40.9938    9.8256 C.ar    1  UNL1        0.1187
      4 N           9.4710   42.0387   10.2608 N.ar    1  UNL1       -0.2388
      5 N          10.1052   40.8884   10.4245 N.ar    1  UNL1       -0.1674
      6 C          12.3211   39.9072    9.7846 C.ar    1  UNL1        0.0556
      7 C          12.3300   38.9310    8.7593 C.ar    1  UNL1        0.1458
      8 C          13.3116   37.9247    8.7716 C.ar    1  UNL1        0.0380
      9 C          14.2754   37.8799    9.7789 C.ar    1  UNL1        0.0145
     10 C          14.2696   38.8411   10.7876 C.ar    1  UNL1        0.0579
     11 C          13.3004   39.8438   10.7882 C.ar    1  UNL1        0.0160
     12 CL         15.4763   38.7918   12.0541 Cl      1  UNL1       -0.0822
     13 O          11.3668   38.9672    7.7419 O.3     1  UNL1       -0.4236
     14 C          10.0369   38.4891    7.9054 C.3     1  UNL1        0.5087
     15 F           9.5149   38.1569    6.6705 F       1  UNL1       -0.1550
     16 F          10.0391   37.3685    8.7157 F       1  UNL1       -0.1550
     17 C          12.7335   42.6157    7.1276 C.2     1  UNL1        0.2541
     18 N          12.5129   42.7837    8.5327 N.am    1  UNL1       -0.2778
     19 O          11.9185   41.9637    6.4212 O.2     1  UNL1       -0.2696
     20 H          13.1826   43.3026    9.0341 H       1  UNL1        0.1553
     21 C          13.9247   43.2128    6.5099 C.ar    1  UNL1        0.1102
     22 C          15.2395   43.0886    6.8889 C.ar    1  UNL1        0.1697
     23 C          17.1227   42.4163    8.1011 C.ar    1  UNL1        0.1022
     24 C          17.9464   43.1571    7.2299 C.ar    1  UNL1        0.0414
     25 C          17.3507   43.8646    6.1763 C.ar    1  UNL1        0.1037
     26 C          13.9645   44.0448    5.3895 C.ar    1  UNL1        0.1281
     27 N          15.7694   42.3885    7.9221 N.ar    1  UNL1       -0.2248
     28 N          16.0039   43.7953    6.0542 N.ar    1  UNL1       -0.2105
     29 N          15.2560   44.3837    5.1376 N.ar    1  UNL1       -0.1619
     30 C           8.1211   42.2886   10.7375 C.3     1  UNL1        0.2121
     31 C           5.3591   41.4795   11.4340 C.3     1  UNL1        0.1150
     32 C           4.8574   41.0607    9.0266 C.3     1  UNL1        0.1150
     33 C           7.1277   41.8968    9.6908 C.2     1  UNL1        0.2506
     34 N           5.8008   41.4821   10.0487 N.am    1  UNL1       -0.2744
     35 O           7.4848   41.9044    8.4821 O.2     1  UNL1       -0.2727
@<TRIPOS>BOND
     1    31    34    1
     2    32    34    1
     3    30    33    1
     4    30     4    1
     5     2     3   ar
     6     2    18    1
     7     3     6    1
     8     7     8   ar
     9     7    13    1
    10     9    10   ar
    11    10    12    1
    12    11     6   ar
    13    14    13    1
    14    14    15    1
    15    14    16    1
    16    17    21    1
    17    22    27   ar
    18    23    24   ar
    19    25    28   ar
    20    26    21   ar
    21    34    33   am
    22     4     1   ar
    23     4     5   ar
    24    18    17   am
    25    28    29   ar
    26    28    22   ar
    27    33    35    2
    28     1     2   ar
    29     3     5   ar
    30     6     7   ar
    31     8     9   ar
    32    10    11   ar
    33    17    19    2
    34    21    22   ar
    35    23    27   ar
    36    24    25   ar
    37    26    29   ar
    38    18    20    1
@<TRIPOS>MOLECULE
MolPort-051-561-905 CHEMBL5994056 CSSS06454646771 MCULE-8069612432 PubChem-135378781
 35 38 0 0 0
SMALL
GASTEIGER

@<TRIPOS>ATOM
      1 C          12.9658   38.2659    8.7381 C.ar    1  UNL1        0.1118
      2 C          12.2499   39.3129    8.1907 C.ar    1  UNL1        0.0892
      3 C          10.9177   39.0994    8.5130 C.ar    1  UNL1        0.1187
      4 N          12.0636   37.4732    9.3468 N.ar    1  UNL1       -0.2388
      5 N          10.8384   37.9600    9.2272 N.ar    1  UNL1       -0.1674
      6 C           9.7510   39.9517    8.1628 C.ar    1  UNL1        0.0556
      7 C           9.6567   41.3000    8.5841 C.ar    1  UNL1        0.1458
      8 C           8.5290   42.0589    8.2253 C.ar    1  UNL1        0.0380
      9 C           7.5066   41.4998    7.4586 C.ar    1  UNL1        0.0145
     10 C           7.5988   40.1736    7.0412 C.ar    1  UNL1        0.0579
     11 C           8.7112   39.4091    7.3916 C.ar    1  UNL1        0.0160
     12 CL          6.3206   39.4656    6.0782 Cl      1  UNL1       -0.0822
     13 O          10.6784   41.8721    9.3541 O.3     1  UNL1       -0.4236
     14 C          10.5789   42.0783   10.7582 C.3     1  UNL1        0.5087
     15 F          10.2620   43.3998   11.0053 F       1  UNL1       -0.1550
     16 F           9.5887   41.2668   11.2810 F       1  UNL1       -0.1550
     17 C          13.7832   41.3288    7.9054 C.2     1  UNL1        0.2541
     18 N          12.7756   40.4196    7.4479 N.am    1  UNL1       -0.2778
     19 O          14.2939   41.2010    9.0505 O.2     1  UNL1       -0.2696
     20 H          12.4127   40.5679    6.5448 H       1  UNL1        0.1553
     21 C          14.2215   42.4194    7.0250 C.ar    1  UNL1        0.1102
     22 C          15.4723   42.9763    6.9089 C.ar    1  UNL1        0.1697
     23 C          17.7475   43.3656    7.2824 C.ar    1  UNL1        0.1022
     24 C          17.7297   44.3907    6.3154 C.ar    1  UNL1        0.0414
     25 C          16.5255   44.6763    5.6566 C.ar    1  UNL1        0.1037
     26 C          13.4413   43.1267    6.1084 C.ar    1  UNL1        0.1281
     27 N          16.6127   42.6638    7.5722 N.ar    1  UNL1       -0.2248
     28 N          15.4368   43.9435    5.9902 N.ar    1  UNL1       -0.2105
     29 N          14.2186   44.0544    5.4908 N.ar    1  UNL1       -0.1619
     30 C          12.3812   36.2674   10.0932 C.3     1  UNL1        0.2121
     31 C          13.7289   38.2282   11.8561 C.3     1  UNL1        0.1150
     32 C          15.9278   37.1346   11.4186 C.3     1  UNL1        0.1150
     33 C          13.8507   36.2043   10.3628 C.2     1  UNL1        0.2506
     34 N          14.4918   37.1790   11.1993 N.am    1  UNL1       -0.2744
     35 O          14.5298   35.2951    9.8144 O.2     1  UNL1       -0.2727
@<TRIPOS>BOND
     1    31    34    1
     2    32    34    1
     3    30    33    1
     4    30     4    1
     5     2     3   ar
     6     2    18    1
     7     3     6    1
     8     7     8   ar
     9     7    13    1
    10     9    10   ar
    11    10    12    1
    12    11     6   ar
    13    14    13    1
    14    14    15    1
    15    14    16    1
    16    17    21    1
    17    22    27   ar
    18    23    24   ar
    19    25    28   ar
    20    26    21   ar
    21    34    33   am
    22     4     1   ar
    23     4     5   ar
    24    18    17   am
    25    28    29   ar
    26    28    22   ar
    27    33    35    2
    28     1     2   ar
    29     3     5   ar
    30     6     7   ar
    31     8     9   ar
    32    10    11   ar
    33    17    19    2
    34    21    22   ar
    35    23    27   ar
    36    24    25   ar
    37    26    29   ar
    38    18    20    1
@<TRIPOS>MOLECULE
MolPort-051-561-905 CHEMBL5994056 CSSS06454646771 MCULE-8069612432 PubChem-135378781
 35 38 0 0 0
SMALL
GASTEIGER

@<TRIPOS>ATOM
      1 C          12.8489   38.3442    8.8017 C.ar    1  UNL1        0.1118
      2 C          12.1043   39.2801    8.1103 C.ar    1  UNL1        0.0892
      3 C          10.7750   38.9009    8.2277 C.ar    1  UNL1        0.1187
      4 N          11.9676   37.4515    9.2908 N.ar    1  UNL1       -0.2388
      5 N          10.7261   37.7731    8.9627 N.ar    1  UNL1       -0.1674
      6 C           9.5818   39.5885    7.6677 C.ar    1  UNL1        0.0556
      7 C           9.2504   39.5110    6.2935 C.ar    1  UNL1        0.1458
      8 C           8.1108   40.1833    5.8184 C.ar    1  UNL1        0.0380
      9 C           7.3044   40.9215    6.6848 C.ar    1  UNL1        0.0145
     10 C           7.6278   40.9971    8.0379 C.ar    1  UNL1        0.0579
     11 C           8.7564   40.3363    8.5221 C.ar    1  UNL1        0.0160
     12 CL          6.6203   41.9204    9.1310 Cl      1  UNL1       -0.0822
     13 O          10.0531   38.7715    5.4144 O.3     1  UNL1       -0.4236
     14 C          10.5903   39.3033    4.2092 C.3     1  UNL1        0.5087
     15 F          11.2614   40.4783    4.4866 F       1  UNL1       -0.1550
     16 F          11.4715   38.3963    3.6497 F       1  UNL1       -0.1550
     17 C          13.6308   41.3089    7.8866 C.2     1  UNL1        0.2541
     18 N          12.5990   40.4330    7.4182 N.am    1  UNL1       -0.2778
     19 O          14.1942   41.1051    8.9954 O.2     1  UNL1       -0.2696
     20 H          12.1946   40.6411    6.5450 H       1  UNL1        0.1553
     21 C          14.0316   42.4549    7.0604 C.ar    1  UNL1        0.1102
     22 C          15.2783   43.0153    6.9203 C.ar    1  UNL1        0.1697
     23 C          17.5713   43.3731    7.2064 C.ar    1  UNL1        0.1022
     24 C          17.5120   44.4607    6.3120 C.ar    1  UNL1        0.0414
     25 C          16.2787   44.7926    5.7339 C.ar    1  UNL1        0.1037
     26 C          13.2115   43.2238    6.2326 C.ar    1  UNL1        0.1281
     27 N          16.4481   42.6563    7.5043 N.ar    1  UNL1       -0.2248
     28 N          15.2034   44.0418    6.0711 N.ar    1  UNL1       -0.2105
     29 N          13.9629   44.1889    5.6408 N.ar    1  UNL1       -0.1619
     30 C          12.3105   36.3100   10.1222 C.3     1  UNL1        0.2121
     31 C          13.8448   38.2185   11.7871 C.3     1  UNL1        0.1150
     32 C          15.9737   37.0810   11.1578 C.3     1  UNL1        0.1150
     33 C          13.7953   36.2105   10.2684 C.2     1  UNL1        0.2506
     34 N          14.5260   37.1604   11.0587 N.am    1  UNL1       -0.2744
     35 O          14.4052   35.2930    9.6564 O.2     1  UNL1       -0.2727
@<TRIPOS>BOND
     1    31    34    1
     2    32    34    1
     3    30    33    1
     4    30     4    1
     5     2     3   ar
     6     2    18    1
     7     3     6    1
     8     7     8   ar
     9     7    13    1
    10     9    10   ar
    11    10    12    1
    12    11     6   ar
    13    14    13    1
    14    14    15    1
    15    14    16    1
    16    17    21    1
    17    22    27   ar
    18    23    24   ar
    19    25    28   ar
    20    26    21   ar
    21    34    33   am
    22     4     1   ar
    23     4     5   ar
    24    18    17   am
    25    28    29   ar
    26    28    22   ar
    27    33    35    2
    28     1     2   ar
    29     3     5   ar
    30     6     7   ar
    31     8     9   ar
    32    10    11   ar
    33    17    19    2
    34    21    22   ar
    35    23    27   ar
    36    24    25   ar
    37    26    29   ar
    38    18    20    1
@<TRIPOS>MOLECULE
MolPort-051-561-905 CHEMBL5994056 CSSS06454646771 MCULE-8069612432 PubChem-135378781
 35 38 0 0 0
SMALL
GASTEIGER

@<TRIPOS>ATOM
      1 C          13.5771   37.6909    9.1401 C.ar    1  UNL1        0.1118
      2 C          12.8169   38.7724    8.7393 C.ar    1  UNL1        0.0892
      3 C          11.4883   38.3830    8.8273 C.ar    1  UNL1        0.1187
      4 N          12.7047   36.7098    9.4386 N.ar    1  UNL1       -0.2388
      5 N          11.4548   37.1090    9.2635 N.ar    1  UNL1       -0.1674
      6 C          10.2819   39.1939    8.5153 C.ar    1  UNL1        0.0556
      7 C           9.6786   40.0379    9.4787 C.ar    1  UNL1        0.1458
      8 C           8.5375   40.7808    9.1288 C.ar    1  UNL1        0.0380
      9 C           7.9970   40.6973    7.8456 C.ar    1  UNL1        0.0145
     10 C           8.5908   39.8689    6.8955 C.ar    1  UNL1        0.0579
     11 C           9.7222   39.1252    7.2299 C.ar    1  UNL1        0.0160
     12 CL          7.9190   39.7598    5.2833 Cl      1  UNL1       -0.0822
     13 O          10.2138   40.1299   10.7706 O.3     1  UNL1       -0.4236
     14 C          11.1328   41.1409   11.1672 C.3     1  UNL1        0.5087
     15 F          10.6686   41.7575   12.3127 F       1  UNL1       -0.1550
     16 F          12.3686   40.5754   11.4228 F       1  UNL1       -0.1550
     17 C          13.0042   40.6995    7.0818 C.2     1  UNL1        0.2541
     18 N          13.2981   40.0577    8.3279 N.am    1  UNL1       -0.2778
     19 O          12.2647   40.1402    6.2281 O.2     1  UNL1       -0.2696
     20 H          13.8813   40.5416    8.9564 H       1  UNL1        0.1553
     21 C          13.5740   42.0239    6.8026 C.ar    1  UNL1        0.1102
     22 C          14.7978   42.5256    7.1749 C.ar    1  UNL1        0.1697
     23 C          16.9259   42.6381    8.1374 C.ar    1  UNL1        0.1022
     24 C          17.0710   43.9560    7.6595 C.ar    1  UNL1        0.0414
     25 C          16.0222   44.5270    6.9251 C.ar    1  UNL1        0.1037
     26 C          12.9766   43.0638    6.0878 C.ar    1  UNL1        0.1281
     27 N          15.7845   41.9308    7.8897 N.ar    1  UNL1       -0.2248
     28 N          14.9178   43.7722    6.7145 N.ar    1  UNL1       -0.2105
     29 N          13.8287   44.1215    6.0531 N.ar    1  UNL1       -0.1619
     30 C          13.0668   35.3966    9.9449 C.3     1  UNL1        0.2121
     31 C          13.6376   32.8248    8.5926 C.3     1  UNL1        0.1150
     32 C          16.0585   33.4120    8.4624 C.3     1  UNL1        0.1150
     33 C          14.4447   35.0347    9.4904 C.2     1  UNL1        0.2506
     34 N          14.7078   33.7722    8.8598 N.am    1  UNL1       -0.2744
     35 O          15.3856   35.8466    9.6999 O.2     1  UNL1       -0.2727
@<TRIPOS>BOND
     1    31    34    1
     2    32    34    1
     3    30    33    1
     4    30     4    1
     5     2     3   ar
     6     2    18    1
     7     3     6    1
     8     7     8   ar
     9     7    13    1
    10     9    10   ar
    11    10    12    1
    12    11     6   ar
    13    14    13    1
    14    14    15    1
    15    14    16    1
    16    17    21    1
    17    22    27   ar
    18    23    24   ar
    19    25    28   ar
    20    26    21   ar
    21    34    33   am
    22     4     1   ar
    23     4     5   ar
    24    18    17   am
    25    28    29   ar
    26    28    22   ar
    27    33    35    2
    28     1     2   ar
    29     3     5   ar
    30     6     7   ar
    31     8     9   ar
    32    10    11   ar
    33    17    19    2
    34    21    22   ar
    35    23    27   ar
    36    24    25   ar
    37    26    29   ar
    38    18    20    1
@<TRIPOS>MOLECULE
MolPort-051-561-905 CHEMBL5994056 CSSS06454646771 MCULE-8069612432 PubChem-135378781
 35 38 0 0 0
SMALL
GASTEIGER

@<TRIPOS>ATOM
      1 C          12.8808   39.6253   10.2758 C.ar    1  UNL1        0.1118
      2 C          12.8526   40.7911    9.5352 C.ar    1  UNL1        0.0892
      3 C          13.9926   40.7915    8.7449 C.ar    1  UNL1        0.1187
      4 N          14.0115   38.9849    9.9233 N.ar    1  UNL1       -0.2388
      5 N          14.6822   39.6644    9.0064 N.ar    1  UNL1       -0.1674
      6 C          14.4165   41.8245    7.7632 C.ar    1  UNL1        0.0556
      7 C          13.5325   42.3279    6.7787 C.ar    1  UNL1        0.1458
      8 C          13.9881   43.3031    5.8744 C.ar    1  UNL1        0.0380
      9 C          15.2973   43.7803    5.9389 C.ar    1  UNL1        0.0145
     10 C          16.1681   43.2877    6.9086 C.ar    1  UNL1        0.0579
     11 C          15.7294   42.3189    7.8107 C.ar    1  UNL1        0.0160
     12 CL         17.8116   43.8824    6.9962 Cl      1  UNL1       -0.0822
     13 O          12.2149   41.8561    6.7055 O.3     1  UNL1       -0.4236
     14 C          11.7863   40.8720    5.7717 C.3     1  UNL1        0.5087
     15 F          11.7694   39.6350    6.3858 F       1  UNL1       -0.1550
     16 F          10.5139   41.1757    5.3233 F       1  UNL1       -0.1550
     17 C          10.4434   41.5903    9.3045 C.2     1  UNL1        0.2541
     18 N          11.8369   41.8014    9.5587 N.am    1  UNL1       -0.2778
     19 O          10.0058   40.4406    9.0304 O.2     1  UNL1       -0.2696
     20 H          12.1217   42.7204    9.7677 H       1  UNL1        0.1553
     21 C           9.5200   42.7306    9.3658 C.ar    1  UNL1        0.1102
     22 C           8.4359   42.9988    8.5653 C.ar    1  UNL1        0.1697
     23 C           6.8424   42.7579    6.8711 C.ar    1  UNL1        0.1022
     24 C           6.2308   43.9611    7.2768 C.ar    1  UNL1        0.0414
     25 C           6.7758   44.6630    8.3611 C.ar    1  UNL1        0.1037
     26 C           9.5561   43.7956   10.2678 C.ar    1  UNL1        0.1281
     27 N           7.9453   42.2849    7.5222 N.ar    1  UNL1       -0.2248
     28 N           7.8700   44.1398    8.9633 N.ar    1  UNL1       -0.2105
     29 N           8.5294   44.6419    9.9923 N.ar    1  UNL1       -0.1619
     30 C          14.4282   37.6879   10.4292 C.3     1  UNL1        0.2121
     31 C          16.7759   36.5036    9.0673 C.3     1  UNL1        0.1150
     32 C          18.2523   37.2376   10.9392 C.3     1  UNL1        0.1150
     33 C          15.8041   37.7817   11.0072 C.2     1  UNL1        0.2506
     34 N          16.9268   37.1789   10.3462 N.am    1  UNL1       -0.2744
     35 O          15.9605   38.3740   12.1086 O.2     1  UNL1       -0.2727
@<TRIPOS>BOND
     1    31    34    1
     2    32    34    1
     3    30    33    1
     4    30     4    1
     5     2     3   ar
     6     2    18    1
     7     3     6    1
     8     7     8   ar
     9     7    13    1
    10     9    10   ar
    11    10    12    1
    12    11     6   ar
    13    14    13    1
    14    14    15    1
    15    14    16    1
    16    17    21    1
    17    22    27   ar
    18    23    24   ar
    19    25    28   ar
    20    26    21   ar
    21    34    33   am
    22     4     1   ar
    23     4     5   ar
    24    18    17   am
    25    28    29   ar
    26    28    22   ar
    27    33    35    2
    28     1     2   ar
    29     3     5   ar
    30     6     7   ar
    31     8     9   ar
    32    10    11   ar
    33    17    19    2
    34    21    22   ar
    35    23    27   ar
    36    24    25   ar
    37    26    29   ar
    38    18    20    1
@<TRIPOS>MOLECULE
MolPort-051-561-905 CHEMBL5994056 CSSS06454646771 MCULE-8069612432 PubChem-135378781
 35 38 0 0 0
SMALL
GASTEIGER

@<TRIPOS>ATOM
      1 C          13.6786   37.8019    9.0140 C.ar    1  UNL1        0.1118
      2 C          12.9848   38.9792    8.8115 C.ar    1  UNL1        0.0892
      3 C          11.6578   38.7211    9.1227 C.ar    1  UNL1        0.1187
      4 N          12.7688   36.8962    9.4199 N.ar    1  UNL1       -0.2388
      5 N          11.5601   37.4305    9.4961 N.ar    1  UNL1       -0.1674
      6 C          10.5134   39.6689    9.0762 C.ar    1  UNL1        0.0556
      7 C           9.5122   39.5841    8.0789 C.ar    1  UNL1        0.1458
      8 C           8.4532   40.5087    8.0823 C.ar    1  UNL1        0.0380
      9 C           8.3777   41.5040    9.0567 C.ar    1  UNL1        0.0145
     10 C           9.3610   41.5877   10.0403 C.ar    1  UNL1        0.0579
     11 C          10.4178   40.6778   10.0475 C.ar    1  UNL1        0.0160
     12 CL          9.2723   42.8330   11.2666 Cl      1  UNL1       -0.0822
     13 O           9.5779   38.5876    7.0958 O.3     1  UNL1       -0.4236
     14 C           9.0950   38.7634    5.7692 C.3     1  UNL1        0.5087
     15 F           8.1663   39.7857    5.7518 F       1  UNL1       -0.1550
     16 F          10.1444   39.0867    4.9285 F       1  UNL1       -0.1550
     17 C          13.1747   40.9258    7.1772 C.2     1  UNL1        0.2541
     18 N          13.5260   40.2341    8.3811 N.am    1  UNL1       -0.2778
     19 O          12.3225   40.4444    6.3833 O.2     1  UNL1       -0.2696
     20 H          14.1975   40.6576    8.9633 H       1  UNL1        0.1553
     21 C          13.8185   42.2098    6.8712 C.ar    1  UNL1        0.1102
     22 C          15.0681   42.6497    7.2355 C.ar    1  UNL1        0.1697
     23 C          17.1981   42.6630    8.2003 C.ar    1  UNL1        0.1022
     24 C          17.4177   43.9601    7.6948 C.ar    1  UNL1        0.0414
     25 C          16.4034   44.5733    6.9460 C.ar    1  UNL1        0.1037
     26 C          13.2813   43.2660    6.1330 C.ar    1  UNL1        0.1281
     27 N          16.0190   42.0159    7.9651 N.ar    1  UNL1       -0.2248
     28 N          15.2586   43.8775    6.7489 N.ar    1  UNL1       -0.2105
     29 N          14.1916   44.2733    6.0777 N.ar    1  UNL1       -0.1619
     30 C          13.0661   35.5220    9.7877 C.3     1  UNL1        0.2121
     31 C          13.7618   32.8965    8.6080 C.3     1  UNL1        0.1150
     32 C          16.1663   33.5547    8.5208 C.3     1  UNL1        0.1150
     33 C          14.4691   35.1800    9.3994 C.2     1  UNL1        0.2506
     34 N          14.7924   33.8926    8.8531 N.am    1  UNL1       -0.2744
     35 O          15.3767   36.0333    9.5907 O.2     1  UNL1       -0.2727
@<TRIPOS>BOND
     1    31    34    1
     2    32    34    1
     3    30    33    1
     4    30     4    1
     5     2     3   ar
     6     2    18    1
     7     3     6    1
     8     7     8   ar
     9     7    13    1
    10     9    10   ar
    11    10    12    1
    12    11     6   ar
    13    14    13    1
    14    14    15    1
    15    14    16    1
    16    17    21    1
    17    22    27   ar
    18    23    24   ar
    19    25    28   ar
    20    26    21   ar
    21    34    33   am
    22     4     1   ar
    23     4     5   ar
    24    18    17   am
    25    28    29   ar
    26    28    22   ar
    27    33    35    2
    28     1     2   ar
    29     3     5   ar
    30     6     7   ar
    31     8     9   ar
    32    10    11   ar
    33    17    19    2
    34    21    22   ar
    35    23    27   ar
    36    24    25   ar
    37    26    29   ar
    38    18    20    1
@<TRIPOS>MOLECULE
MolPort-051-561-905 CHEMBL5994056 CSSS06454646771 MCULE-8069612432 PubChem-135378781
 35 38 0 0 0
SMALL
GASTEIGER

@<TRIPOS>ATOM
      1 C          14.3452   37.6253    8.8680 C.ar    1  UNL1        0.1118
      2 C          13.7565   38.8750    8.8786 C.ar    1  UNL1        0.0892
      3 C          12.4712   38.7084    9.3733 C.ar    1  UNL1        0.1187
      4 N          13.4162   36.7697    9.3348 N.ar    1  UNL1       -0.2388
      5 N          12.2954   37.4012    9.6467 N.ar    1  UNL1       -0.1674
      6 C          11.4387   39.7560    9.5895 C.ar    1  UNL1        0.0556
      7 C          10.8679   40.4768    8.5130 C.ar    1  UNL1        0.1458
      8 C           9.8965   41.4583    8.7763 C.ar    1  UNL1        0.0380
      9 C           9.4886   41.7265   10.0830 C.ar    1  UNL1        0.0145
     10 C          10.0477   41.0166   11.1436 C.ar    1  UNL1        0.0579
     11 C          11.0135   40.0414   10.8964 C.ar    1  UNL1        0.0160
     12 CL          9.5401   41.3468   12.7855 Cl      1  UNL1       -0.0822
     13 O          11.2698   40.2149    7.1962 O.3     1  UNL1       -0.4236
     14 C          11.1777   41.1689    6.1449 C.3     1  UNL1        0.5087
     15 F          11.8309   40.6843    5.0286 F       1  UNL1       -0.1550
     16 F           9.8494   41.3949    5.8335 F       1  UNL1       -0.1550
     17 C          15.6302   40.6026    8.9090 C.2     1  UNL1        0.2541
     18 N          14.3561   40.1123    8.4758 N.am    1  UNL1       -0.2778
     19 O          16.3363   39.9375    9.7137 O.2     1  UNL1       -0.2696
     20 H          13.8484   40.6742    7.8468 H       1  UNL1        0.1553
     21 C          16.1127   41.8951    8.4058 C.ar    1  UNL1        0.1102
     22 C          15.5694   42.6892    7.4248 C.ar    1  UNL1        0.1697
     23 C          14.1123   43.4272    5.7515 C.ar    1  UNL1        0.1022
     24 C          14.8964   44.5860    5.5815 C.ar    1  UNL1        0.0414
     25 C          16.0370   44.7522    6.3796 C.ar    1  UNL1        0.1037
     26 C          17.2442   42.5943    8.8299 C.ar    1  UNL1        0.1281
     27 N          14.4576   42.4841    6.6765 N.ar    1  UNL1       -0.2248
     28 N          16.3236   43.7801    7.2777 N.ar    1  UNL1       -0.2105
     29 N          17.3437   43.7465    8.1167 N.ar    1  UNL1       -0.1619
     30 C          13.6190   35.3444    9.5329 C.3     1  UNL1        0.2121
     31 C          14.2120   32.6614    8.4290 C.3     1  UNL1        0.1150
     32 C          16.6229   33.2647    8.2147 C.3     1  UNL1        0.1150
     33 C          14.9971   34.9582    9.0996 C.2     1  UNL1        0.2506
     34 N          15.2714   33.6441    8.5911 N.am    1  UNL1       -0.2744
     35 O          15.9286   35.7987    9.2188 O.2     1  UNL1       -0.2727
@<TRIPOS>BOND
     1    31    34    1
     2    32    34    1
     3    30    33    1
     4    30     4    1
     5     2     3   ar
     6     2    18    1
     7     3     6    1
     8     7     8   ar
     9     7    13    1
    10     9    10   ar
    11    10    12    1
    12    11     6   ar
    13    14    13    1
    14    14    15    1
    15    14    16    1
    16    17    21    1
    17    22    27   ar
    18    23    24   ar
    19    25    28   ar
    20    26    21   ar
    21    34    33   am
    22     4     1   ar
    23     4     5   ar
    24    18    17   am
    25    28    29   ar
    26    28    22   ar
    27    33    35    2
    28     1     2   ar
    29     3     5   ar
    30     6     7   ar
    31     8     9   ar
    32    10    11   ar
    33    17    19    2
    34    21    22   ar
    35    23    27   ar
    36    24    25   ar
    37    26    29   ar
    38    18    20    1
@<TRIPOS>MOLECULE
MolPort-051-561-905 CHEMBL5994056 CSSS06454646771 MCULE-8069612432 PubChem-135378781
 35 38 0 0 0
SMALL
GASTEIGER

@<TRIPOS>ATOM
      1 C          12.4708   42.0761    7.9911 C.ar    1  UNL1        0.1118
      2 C          12.1663   41.0941    8.9138 C.ar    1  UNL1        0.0892
      3 C          13.2837   40.2782    9.0144 C.ar    1  UNL1        0.1187
      4 N          13.7241   41.8196    7.5711 N.ar    1  UNL1       -0.2388
      5 N          14.2250   40.7546    8.1769 N.ar    1  UNL1       -0.1674
      6 C          13.4615   39.0851    9.8834 C.ar    1  UNL1        0.0556
      7 C          14.6300   38.8923   10.6590 C.ar    1  UNL1        0.1458
      8 C          14.7452   37.7439   11.4616 C.ar    1  UNL1        0.0380
      9 C          13.7220   36.7968   11.5036 C.ar    1  UNL1        0.0145
     10 C          12.5702   36.9859   10.7427 C.ar    1  UNL1        0.0579
     11 C          12.4439   38.1200    9.9409 C.ar    1  UNL1        0.0160
     12 CL         11.2819   35.8026   10.7911 Cl      1  UNL1       -0.0822
     13 O          15.6638   39.8379   10.6249 O.3     1  UNL1       -0.4236
     14 C          17.0420   39.4897   10.5677 C.3     1  UNL1        0.5087
     15 F          17.7238   40.4392    9.8319 F       1  UNL1       -0.1550
     16 F          17.5657   39.4417   11.8467 F       1  UNL1       -0.1550
     17 C          10.2101   42.0116   10.2657 C.2     1  UNL1        0.2541
     18 N          10.9422   40.9491    9.6442 N.am    1  UNL1       -0.2778
     19 O          10.6228   43.2008   10.2026 O.2     1  UNL1       -0.2696
     20 H          10.5723   40.0404    9.7259 H       1  UNL1        0.1553
     21 C           8.9656   41.7047   10.9825 C.ar    1  UNL1        0.1102
     22 C           7.6741   41.7547   10.5162 C.ar    1  UNL1        0.1697
     23 C           5.8762   42.0714    9.0550 C.ar    1  UNL1        0.1022
     24 C           4.9810   41.6964   10.0770 C.ar    1  UNL1        0.0414
     25 C           5.4978   41.3507   11.3335 C.ar    1  UNL1        0.1037
     26 C           8.8386   41.2914   12.3099 C.ar    1  UNL1        0.1281
     27 N           7.2218   42.0974    9.2848 N.ar    1  UNL1       -0.2248
     28 N           6.8414   41.3970   11.4956 N.ar    1  UNL1       -0.2105
     29 N           7.5217   41.1118   12.5918 N.ar    1  UNL1       -0.1619
     30 C          14.4679   42.6297    6.6211 C.3     1  UNL1        0.2121
     31 C          15.9451   45.1003    5.9264 C.3     1  UNL1        0.1150
     32 C          17.9079   44.3190    7.2527 C.3     1  UNL1        0.1150
     33 C          15.8431   42.8982    7.1435 C.2     1  UNL1        0.2506
     34 N          16.5547   44.0892    6.7752 N.am    1  UNL1       -0.2744
     35 O          16.3860   42.0416    7.8917 O.2     1  UNL1       -0.2727
@<TRIPOS>BOND
     1    31    34    1
     2    32    34    1
     3    30    33    1
     4    30     4    1
     5     2     3   ar
     6     2    18    1
     7     3     6    1
     8     7     8   ar
     9     7    13    1
    10     9    10   ar
    11    10    12    1
    12    11     6   ar
    13    14    13    1
    14    14    15    1
    15    14    16    1
    16    17    21    1
    17    22    27   ar
    18    23    24   ar
    19    25    28   ar
    20    26    21   ar
    21    34    33   am
    22     4     1   ar
    23     4     5   ar
    24    18    17   am
    25    28    29   ar
    26    28    22   ar
    27    33    35    2
    28     1     2   ar
    29     3     5   ar
    30     6     7   ar
    31     8     9   ar
    32    10    11   ar
    33    17    19    2
    34    21    22   ar
    35    23    27   ar
    36    24    25   ar
    37    26    29   ar
    38    18    20    1
