@<TRIPOS>MOLECULE
MolPort-002-603-648 2374897 CHEMBL1575533 CSSS00160651546 LN00678916 MCULE-6865837890 PubChem-662949 ZINC000002374897
 33 37 0 0 0
SMALL
GASTEIGER

@<TRIPOS>ATOM
      1 C          11.7088   40.6819    6.7753 C.ar    1  UNL1        0.1616
      2 C          12.3349   39.8841    7.7087 C.ar    1  UNL1        0.1370
      3 C          12.6634   38.2394    9.3319 C.ar    1  UNL1        0.0990
      4 C          12.2466   37.0946   10.0144 C.ar    1  UNL1        0.0206
      5 C          13.0461   36.5566   11.0280 C.ar    1  UNL1        0.0016
      6 C          14.2622   37.1610   11.3659 C.ar    1  UNL1        0.0016
      7 C          14.6915   38.3098   10.6937 C.ar    1  UNL1        0.0207
      8 C          13.9054   38.8571    9.6771 C.ar    1  UNL1        0.1006
      9 C          13.5300   40.4672    8.0254 C.ar    1  UNL1        0.1807
     10 C          12.5810   41.7517    6.5806 C.ar    1  UNL1        0.1439
     11 N          11.8808   38.7810    8.3519 N.ar    1  UNL1       -0.2393
     12 N          14.3137   39.9837    9.0211 N.ar    1  UNL1       -0.2238
     13 N          13.7022   41.6063    7.3257 N.ar    1  UNL1       -0.2241
     14 N          12.3104   42.8949    5.7749 N.pl3   1  UNL1       -0.3416
     15 H          12.9836   43.6083    5.6907 H       1  UNL1        0.1438
     16 H          11.4501   42.9716    5.3024 H       1  UNL1        0.1438
     17 C          14.8287   43.7393    6.6498 C.2     1  UNL1        0.2395
     18 O          13.8507   44.1368    5.9615 O.2     1  UNL1       -0.2734
     19 N          14.7125   42.5735    7.4730 N.am    1  UNL1       -0.2193
     20 H          15.3798   42.4410    8.1847 H       1  UNL1        0.1758
     21 C          16.0844   44.5473    6.6855 C.3     1  UNL1        0.0781
     22 C          17.1537   43.8745    5.8437 C.3     1  UNL1        0.0096
     23 C          17.1921   43.7495    7.3496 C.3     1  UNL1        0.0096
     24 S          10.0855   40.4919    6.1351 S.O2    1  UNL1        0.0316
     25 O           9.8833   39.0778    5.6683 O.2     1  UNL1       -0.1641
     26 O           9.8974   41.4114    4.9608 O.2     1  UNL1       -0.1641
     27 C           8.9219   40.8735    7.3898 C.ar    1  UNL1        0.1104
     28 C           9.3534   41.3714    8.6249 C.ar    1  UNL1        0.0184
     29 C           8.4233   41.6569    9.6289 C.ar    1  UNL1       -0.0029
     30 C           7.0605   41.4404    9.4014 C.ar    1  UNL1       -0.0218
     31 C           6.6279   40.9396    8.1698 C.ar    1  UNL1       -0.0029
     32 C           7.5579   40.6552    7.1654 C.ar    1  UNL1        0.0184
     33 C           6.0718   41.7435   10.4688 C.3     1  UNL1        0.0310
@<TRIPOS>BOND
     1     1     2   ar
     2    28    29   ar
     3    30    31   ar
     4    32    27   ar
     5    33    30    1
     6     3    11   ar
     7     4     5   ar
     8     6     7   ar
     9     8    12   ar
    10     8     3   ar
    11     9    13   ar
    12     9     2   ar
    13    21    17    1
    14    21    22    1
    15    22    23    1
    16    23    21    1
    17    10    14    1
    18    24     1    1
    19    24    27    1
    20    13    19    1
    21    13    10   ar
    22    19    17   am
    23    27    28   ar
    24    29    30   ar
    25    31    32   ar
    26     2    11   ar
    27     3     4   ar
    28     5     6   ar
    29     7     8   ar
    30     9    12   ar
    31    17    18    2
    32    10     1   ar
    33    24    25    2
    34    24    26    2
    35    19    20    1
    36    14    15    1
    37    14    16    1
@<TRIPOS>MOLECULE
MolPort-002-603-648 2374897 CHEMBL1575533 CSSS00160651546 LN00678916 MCULE-6865837890 PubChem-662949 ZINC000002374897
 33 37 0 0 0
SMALL
GASTEIGER

@<TRIPOS>ATOM
      1 C          12.4672   41.0972    7.9801 C.ar    1  UNL1        0.1616
      2 C          13.4178   40.3728    8.6666 C.ar    1  UNL1        0.1370
      3 C          14.3720   38.8233   10.1281 C.ar    1  UNL1        0.0990
      4 C          14.2783   37.6950   10.9458 C.ar    1  UNL1        0.0206
      5 C          15.4040   37.2414   11.6407 C.ar    1  UNL1        0.0016
      6 C          16.6258   37.9138   11.5244 C.ar    1  UNL1        0.0016
      7 C          16.7345   39.0469   10.7120 C.ar    1  UNL1        0.0207
      8 C          15.6198   39.5104   10.0095 C.ar    1  UNL1        0.1006
      9 C          14.6139   41.0221    8.5383 C.ar    1  UNL1        0.1807
     10 C          13.1585   42.1936    7.4672 C.ar    1  UNL1        0.1439
     11 N          13.2733   39.2829    9.4590 N.ar    1  UNL1       -0.2393
     12 N          15.7157   40.6213    9.2201 N.ar    1  UNL1       -0.2238
     13 N          14.4725   42.1330    7.7882 N.ar    1  UNL1       -0.2241
     14 N          12.5652   43.2842    6.7688 N.pl3   1  UNL1       -0.3416
     15 H          13.1277   44.0215    6.4383 H       1  UNL1        0.1438
     16 H          11.5926   43.3007    6.6166 H       1  UNL1        0.1438
     17 C          15.7201   43.6712    6.2543 C.2     1  UNL1        0.2395
     18 O          14.9323   43.4844    5.2884 O.2     1  UNL1       -0.2734
     19 N          15.4156   43.1493    7.5524 N.am    1  UNL1       -0.2193
     20 H          15.8950   43.5244    8.3262 H       1  UNL1        0.1758
     21 C          16.9285   44.5289    6.0671 C.3     1  UNL1        0.0781
     22 C          18.1120   43.6692    5.6607 C.3     1  UNL1        0.0096
     23 C          17.9890   44.1548    7.0869 C.3     1  UNL1        0.0096
     24 S          10.7367   40.8061    7.9392 S.O2    1  UNL1        0.0316
     25 O           9.9970   42.1070    8.0771 O.2     1  UNL1       -0.1641
     26 O          10.3495   39.9153    9.0865 O.2     1  UNL1       -0.1641
     27 C          10.3155   40.0438    6.4176 C.ar    1  UNL1        0.1104
     28 C           9.4017   38.9837    6.3882 C.ar    1  UNL1        0.0184
     29 C           9.0829   38.3669    5.1747 C.ar    1  UNL1       -0.0029
     30 C           9.6809   38.8058    3.9890 C.ar    1  UNL1       -0.0218
     31 C          10.5965   39.8619    4.0169 C.ar    1  UNL1       -0.0029
     32 C          10.9145   40.4796    5.2302 C.ar    1  UNL1        0.0184
     33 C           9.3423   38.1498    2.6992 C.3     1  UNL1        0.0310
@<TRIPOS>BOND
     1     1     2   ar
     2    28    29   ar
     3    30    31   ar
     4    32    27   ar
     5    33    30    1
     6     3    11   ar
     7     4     5   ar
     8     6     7   ar
     9     8    12   ar
    10     8     3   ar
    11     9    13   ar
    12     9     2   ar
    13    21    17    1
    14    21    22    1
    15    22    23    1
    16    23    21    1
    17    10    14    1
    18    24     1    1
    19    24    27    1
    20    13    19    1
    21    13    10   ar
    22    19    17   am
    23    27    28   ar
    24    29    30   ar
    25    31    32   ar
    26     2    11   ar
    27     3     4   ar
    28     5     6   ar
    29     7     8   ar
    30     9    12   ar
    31    17    18    2
    32    10     1   ar
    33    24    25    2
    34    24    26    2
    35    19    20    1
    36    14    15    1
    37    14    16    1
@<TRIPOS>MOLECULE
MolPort-002-603-648 2374897 CHEMBL1575533 CSSS00160651546 LN00678916 MCULE-6865837890 PubChem-662949 ZINC000002374897
 33 37 0 0 0
SMALL
GASTEIGER

@<TRIPOS>ATOM
      1 C          14.0593   39.9249    9.5520 C.ar    1  UNL1        0.1616
      2 C          14.5880   40.8950    8.7278 C.ar    1  UNL1        0.1370
      3 C          16.1224   42.3651    7.7625 C.ar    1  UNL1        0.0990
      4 C          17.4329   42.7969    7.5468 C.ar    1  UNL1        0.0206
      5 C          17.6757   43.9149    6.7424 C.ar    1  UNL1        0.0016
      6 C          16.6117   44.6074    6.1535 C.ar    1  UNL1        0.0016
      7 C          15.2938   44.1890    6.3629 C.ar    1  UNL1        0.0207
      8 C          15.0355   43.0725    7.1614 C.ar    1  UNL1        0.1006
      9 C          13.5477   41.5596    8.1406 C.ar    1  UNL1        0.1807
     10 C          12.6783   40.0683    9.4283 C.ar    1  UNL1        0.1439
     11 N          15.8753   41.2841    8.5603 N.ar    1  UNL1       -0.2393
     12 N          13.7505   42.6622    7.3774 N.ar    1  UNL1       -0.2238
     13 N          12.3685   41.0497    8.5483 N.ar    1  UNL1       -0.2241
     14 N          11.7077   39.3464   10.1807 N.pl3   1  UNL1       -0.3416
     15 H          10.7483   39.5088   10.0308 H       1  UNL1        0.1438
     16 H          11.9963   38.6852   10.8506 H       1  UNL1        0.1438
     17 C          10.4310   42.5314    9.1193 C.2     1  UNL1        0.2395
     18 O          11.1033   43.2496    9.9071 O.2     1  UNL1       -0.2734
     19 N          11.0754   41.5459    8.3046 N.am    1  UNL1       -0.2193
     20 H          10.5837   41.1946    7.5273 H       1  UNL1        0.1758
     21 C           8.9668   42.7796    8.9604 C.3     1  UNL1        0.0781
     22 C           8.2011   42.0646   10.0592 C.3     1  UNL1        0.0096
     23 C           8.2511   41.4729    8.6692 C.3     1  UNL1        0.0096
     24 S          14.9339   38.8838   10.6620 S.O2    1  UNL1        0.0316
     25 O          14.2053   38.8105   11.9744 O.2     1  UNL1       -0.1641
     26 O          16.3037   39.4513   10.9099 O.2     1  UNL1       -0.1641
     27 C          15.0647   37.2796    9.9669 C.ar    1  UNL1        0.1104
     28 C          16.2641   36.8606    9.3790 C.ar    1  UNL1        0.0184
     29 C          16.3579   35.5872    8.8096 C.ar    1  UNL1       -0.0029
     30 C          15.2513   34.7322    8.8227 C.ar    1  UNL1       -0.0218
     31 C          14.0514   35.1503    9.4060 C.ar    1  UNL1       -0.0029
     32 C          13.9579   36.4233    9.9765 C.ar    1  UNL1        0.0184
     33 C          15.3510   33.3788    8.2170 C.3     1  UNL1        0.0310
@<TRIPOS>BOND
     1     1     2   ar
     2    28    29   ar
     3    30    31   ar
     4    32    27   ar
     5    33    30    1
     6     3    11   ar
     7     4     5   ar
     8     6     7   ar
     9     8    12   ar
    10     8     3   ar
    11     9    13   ar
    12     9     2   ar
    13    21    17    1
    14    21    22    1
    15    22    23    1
    16    23    21    1
    17    10    14    1
    18    24     1    1
    19    24    27    1
    20    13    19    1
    21    13    10   ar
    22    19    17   am
    23    27    28   ar
    24    29    30   ar
    25    31    32   ar
    26     2    11   ar
    27     3     4   ar
    28     5     6   ar
    29     7     8   ar
    30     9    12   ar
    31    17    18    2
    32    10     1   ar
    33    24    25    2
    34    24    26    2
    35    19    20    1
    36    14    15    1
    37    14    16    1
@<TRIPOS>MOLECULE
MolPort-002-603-648 2374897 CHEMBL1575533 CSSS00160651546 LN00678916 MCULE-6865837890 PubChem-662949 ZINC000002374897
 33 37 0 0 0
SMALL
GASTEIGER

@<TRIPOS>ATOM
      1 C          11.7974   40.4301    7.2671 C.ar    1  UNL1        0.1616
      2 C          12.6643   39.8698    8.1805 C.ar    1  UNL1        0.1370
      3 C          13.4864   38.4917    9.8754 C.ar    1  UNL1        0.0990
      4 C          13.3876   37.3587   10.6859 C.ar    1  UNL1        0.0206
      5 C          14.3762   37.0944   11.6392 C.ar    1  UNL1        0.0016
      6 C          15.4645   37.9613   11.7890 C.ar    1  UNL1        0.0016
      7 C          15.5756   39.1016   10.9870 C.ar    1  UNL1        0.0207
      8 C          14.5978   39.3775   10.0285 C.ar    1  UNL1        0.1006
      9 C          13.7346   40.7096    8.3133 C.ar    1  UNL1        0.1807
     10 C          12.4019   41.6293    6.8934 C.ar    1  UNL1        0.1439
     11 N          12.5166   38.7662    8.9532 N.ar    1  UNL1       -0.2393
     12 N          14.6947   40.4935    9.2466 N.ar    1  UNL1       -0.2238
     13 N          13.5950   41.7861    7.5143 N.ar    1  UNL1       -0.2241
     14 N          11.8205   42.6102    6.0397 N.pl3   1  UNL1       -0.3416
     15 H          12.3171   43.4328    5.8252 H       1  UNL1        0.1438
     16 H          10.9219   42.4657    5.6642 H       1  UNL1        0.1438
     17 C          14.9386   43.4941    6.2681 C.2     1  UNL1        0.2395
     18 O          14.4779   43.1599    5.1436 O.2     1  UNL1       -0.2734
     19 N          14.3884   42.9464    7.4713 N.am    1  UNL1       -0.2193
     20 H          14.5769   43.4099    8.3192 H       1  UNL1        0.1758
     21 C          15.9971   44.5447    6.3505 C.3     1  UNL1        0.0781
     22 C          17.3133   43.9911    5.8350 C.3     1  UNL1        0.0096
     23 C          17.0788   44.1115    7.3235 C.3     1  UNL1        0.0096
     24 S          10.1966   39.8556    6.8330 S.O2    1  UNL1        0.0316
     25 O           9.8628   38.6252    7.6288 O.2     1  UNL1       -0.1641
     26 O          10.1693   39.4991    5.3729 O.2     1  UNL1       -0.1641
     27 C           9.0219   41.1135    7.1667 C.ar    1  UNL1        0.1104
     28 C           8.1896   41.5906    6.1473 C.ar    1  UNL1        0.0184
     29 C           7.2670   42.6067    6.4139 C.ar    1  UNL1       -0.0029
     30 C           7.1783   43.1510    7.6991 C.ar    1  UNL1       -0.0218
     31 C           8.0113   42.6784    8.7177 C.ar    1  UNL1       -0.0029
     32 C           8.9331   41.6615    8.4514 C.ar    1  UNL1        0.0184
     33 C           6.1980   44.2314    7.9823 C.3     1  UNL1        0.0310
@<TRIPOS>BOND
     1     1     2   ar
     2    28    29   ar
     3    30    31   ar
     4    32    27   ar
     5    33    30    1
     6     3    11   ar
     7     4     5   ar
     8     6     7   ar
     9     8    12   ar
    10     8     3   ar
    11     9    13   ar
    12     9     2   ar
    13    21    17    1
    14    21    22    1
    15    22    23    1
    16    23    21    1
    17    10    14    1
    18    24     1    1
    19    24    27    1
    20    13    19    1
    21    13    10   ar
    22    19    17   am
    23    27    28   ar
    24    29    30   ar
    25    31    32   ar
    26     2    11   ar
    27     3     4   ar
    28     5     6   ar
    29     7     8   ar
    30     9    12   ar
    31    17    18    2
    32    10     1   ar
    33    24    25    2
    34    24    26    2
    35    19    20    1
    36    14    15    1
    37    14    16    1
@<TRIPOS>MOLECULE
MolPort-002-603-648 2374897 CHEMBL1575533 CSSS00160651546 LN00678916 MCULE-6865837890 PubChem-662949 ZINC000002374897
 33 37 0 0 0
SMALL
GASTEIGER

@<TRIPOS>ATOM
      1 C          12.3637   40.8171    7.6208 C.ar    1  UNL1        0.1616
      2 C          13.3388   40.1932    8.3688 C.ar    1  UNL1        0.1370
      3 C          14.3517   38.7607    9.9081 C.ar    1  UNL1        0.0990
      4 C          14.3176   37.6422   10.7437 C.ar    1  UNL1        0.0206
      5 C          15.4422   37.3039   11.5030 C.ar    1  UNL1        0.0016
      6 C          16.6033   38.0821   11.4334 C.ar    1  UNL1        0.0016
      7 C          16.6516   39.2069   10.6037 C.ar    1  UNL1        0.0207
      8 C          15.5374   39.5559    9.8372 C.ar    1  UNL1        0.1006
      9 C          14.4770   40.9459    8.2863 C.ar    1  UNL1        0.1807
     10 C          12.9794   41.9630    7.1199 C.ar    1  UNL1        0.1439
     11 N          13.2521   39.1078    9.1757 N.ar    1  UNL1       -0.2393
     12 N          15.5738   40.6577    9.0303 N.ar    1  UNL1       -0.2238
     13 N          14.2754   42.0270    7.5070 N.ar    1  UNL1       -0.2241
     14 N          12.3274   42.9838    6.3701 N.pl3   1  UNL1       -0.3416
     15 H          12.8378   43.7635    6.0525 H       1  UNL1        0.1438
     16 H          11.3664   42.9096    6.1696 H       1  UNL1        0.1438
     17 C          15.4744   43.6326    6.0038 C.2     1  UNL1        0.2395
     18 O          14.7724   43.3460    4.9971 O.2     1  UNL1       -0.2734
     19 N          15.1344   43.1204    7.2970 N.am    1  UNL1       -0.2193
     20 H          15.5255   43.5601    8.0863 H       1  UNL1        0.1758
     21 C          16.6085   44.5944    5.8643 C.3     1  UNL1        0.0781
     22 C          17.8906   43.8387    5.5644 C.3     1  UNL1        0.0096
     23 C          17.6285   44.3514    6.9620 C.3     1  UNL1        0.0096
     24 S          10.6706   40.3699    7.5001 S.O2    1  UNL1        0.0316
     25 O          10.5469   38.8826    7.3239 O.2     1  UNL1       -0.1641
     26 O          10.0569   41.0429    6.3042 O.2     1  UNL1       -0.1641
     27 C           9.8375   40.8645    8.9614 C.ar    1  UNL1        0.1104
     28 C          10.4586   40.7282   10.2085 C.ar    1  UNL1        0.0184
     29 C           9.7833   41.1069   11.3726 C.ar    1  UNL1       -0.0029
     30 C           8.4839   41.6178   11.2923 C.ar    1  UNL1       -0.0218
     31 C           7.8605   41.7511   10.0480 C.ar    1  UNL1       -0.0029
     32 C           8.5363   41.3736    8.8837 C.ar    1  UNL1        0.0184
     33 C           7.7659   42.0199   12.5299 C.3     1  UNL1        0.0310
@<TRIPOS>BOND
     1     1     2   ar
     2    28    29   ar
     3    30    31   ar
     4    32    27   ar
     5    33    30    1
     6     3    11   ar
     7     4     5   ar
     8     6     7   ar
     9     8    12   ar
    10     8     3   ar
    11     9    13   ar
    12     9     2   ar
    13    21    17    1
    14    21    22    1
    15    22    23    1
    16    23    21    1
    17    10    14    1
    18    24     1    1
    19    24    27    1
    20    13    19    1
    21    13    10   ar
    22    19    17   am
    23    27    28   ar
    24    29    30   ar
    25    31    32   ar
    26     2    11   ar
    27     3     4   ar
    28     5     6   ar
    29     7     8   ar
    30     9    12   ar
    31    17    18    2
    32    10     1   ar
    33    24    25    2
    34    24    26    2
    35    19    20    1
    36    14    15    1
    37    14    16    1
@<TRIPOS>MOLECULE
MolPort-002-603-648 2374897 CHEMBL1575533 CSSS00160651546 LN00678916 MCULE-6865837890 PubChem-662949 ZINC000002374897
 33 37 0 0 0
SMALL
GASTEIGER

@<TRIPOS>ATOM
      1 C          12.3795   40.7085    8.5803 C.ar    1  UNL1        0.1616
      2 C          13.3952   41.5407    8.1615 C.ar    1  UNL1        0.1370
      3 C          14.5211   43.2352    7.0175 C.ar    1  UNL1        0.0990
      4 C          14.5199   44.3936    6.2375 C.ar    1  UNL1        0.0206
      5 C          15.7313   44.9706    5.8432 C.ar    1  UNL1        0.0016
      6 C          16.9476   44.3920    6.2234 C.ar    1  UNL1        0.0016
      7 C          16.9649   43.2302    7.0016 C.ar    1  UNL1        0.0207
      8 C          15.7633   42.6438    7.4055 C.ar    1  UNL1        0.1006
      9 C          14.5817   40.9825    8.5480 C.ar    1  UNL1        0.1807
     10 C          13.0275   39.6450    9.2066 C.ar    1  UNL1        0.1439
     11 N          13.3424   42.6557    7.3929 N.ar    1  UNL1       -0.2393
     12 N          15.7716   41.5044    8.1592 N.ar    1  UNL1       -0.2238
     13 N          14.3694   39.8262    9.2073 N.ar    1  UNL1       -0.2241
     14 N          12.3878   38.4759    9.7096 N.pl3   1  UNL1       -0.3416
     15 H          12.9214   37.7692   10.1398 H       1  UNL1        0.1438
     16 H          11.4120   38.3745    9.6270 H       1  UNL1        0.1438
     17 C          15.6127   38.5934   10.9989 C.2     1  UNL1        0.2395
     18 O          14.8123   38.9379   11.9095 O.2     1  UNL1       -0.2734
     19 N          15.3185   38.8769    9.6265 N.am    1  UNL1       -0.2193
     20 H          15.8101   38.3774    8.9351 H       1  UNL1        0.1758
     21 C          16.8264   37.7946   11.3451 C.3     1  UNL1        0.0781
     22 C          18.0768   38.5662   10.9633 C.3     1  UNL1        0.0096
     23 C          17.5883   37.4404   10.0807 C.3     1  UNL1        0.0096
     24 S          10.6681   40.8590    8.2204 S.O2    1  UNL1        0.0316
     25 O          10.2757   42.3097    8.2043 O.2     1  UNL1       -0.1641
     26 O           9.8674   40.1619    9.2847 O.2     1  UNL1       -0.1641
     27 C          10.3422   40.1399    6.6551 C.ar    1  UNL1        0.1104
     28 C           9.4586   39.0598    6.5446 C.ar    1  UNL1        0.0184
     29 C           9.2159   38.4778    5.2968 C.ar    1  UNL1       -0.0029
     30 C           9.8600   38.9717    4.1579 C.ar    1  UNL1       -0.0218
     31 C          10.7457   40.0480    4.2667 C.ar    1  UNL1       -0.0029
     32 C          10.9875   40.6308    5.5144 C.ar    1  UNL1        0.0184
     33 C           9.6024   38.3528    2.8315 C.3     1  UNL1        0.0310
@<TRIPOS>BOND
     1     1     2   ar
     2    28    29   ar
     3    30    31   ar
     4    32    27   ar
     5    33    30    1
     6     3    11   ar
     7     4     5   ar
     8     6     7   ar
     9     8    12   ar
    10     8     3   ar
    11     9    13   ar
    12     9     2   ar
    13    21    17    1
    14    21    22    1
    15    22    23    1
    16    23    21    1
    17    10    14    1
    18    24     1    1
    19    24    27    1
    20    13    19    1
    21    13    10   ar
    22    19    17   am
    23    27    28   ar
    24    29    30   ar
    25    31    32   ar
    26     2    11   ar
    27     3     4   ar
    28     5     6   ar
    29     7     8   ar
    30     9    12   ar
    31    17    18    2
    32    10     1   ar
    33    24    25    2
    34    24    26    2
    35    19    20    1
    36    14    15    1
    37    14    16    1
@<TRIPOS>MOLECULE
MolPort-002-603-648 2374897 CHEMBL1575533 CSSS00160651546 LN00678916 MCULE-6865837890 PubChem-662949 ZINC000002374897
 33 37 0 0 0
SMALL
GASTEIGER

@<TRIPOS>ATOM
      1 C          11.3315   41.2170    7.8858 C.ar    1  UNL1        0.1616
      2 C          11.5645   40.0107    8.5105 C.ar    1  UNL1        0.1370
      3 C          12.5507   37.9641    9.0456 C.ar    1  UNL1        0.0990
      4 C          13.6190   37.0671    8.9792 C.ar    1  UNL1        0.0206
      5 C          13.5317   35.8290    9.6238 C.ar    1  UNL1        0.0016
      6 C          12.3771   35.4808   10.3338 C.ar    1  UNL1        0.0016
      7 C          11.2978   36.3671   10.4065 C.ar    1  UNL1        0.0207
      8 C          11.3711   37.6084    9.7704 C.ar    1  UNL1        0.1006
      9 C          10.4419   39.6800    9.2169 C.ar    1  UNL1        0.1807
     10 C          10.0289   41.5577    8.2465 C.ar    1  UNL1        0.1439
     11 N          12.6211   39.1686    8.4049 N.ar    1  UNL1       -0.2393
     12 N          10.3180   38.4766    9.8299 N.ar    1  UNL1       -0.2238
     13 N           9.4969   40.6310    9.0782 N.ar    1  UNL1       -0.2241
     14 N           9.3075   42.6816    7.7509 N.pl3   1  UNL1       -0.3416
     15 H           8.3878   42.8509    8.0586 H       1  UNL1        0.1438
     16 H           9.7286   43.2891    7.1006 H       1  UNL1        0.1438
     17 C           7.5241   41.6597   10.2294 C.2     1  UNL1        0.2395
     18 O           8.0231   42.8170   10.2342 O.2     1  UNL1       -0.2734
     19 N           8.1587   40.5971    9.5094 N.am    1  UNL1       -0.2193
     20 H           7.6264   39.7948    9.3038 H       1  UNL1        0.1758
     21 C           6.2086   41.4194   10.8947 C.3     1  UNL1        0.0781
     22 C           5.1943   40.9399    9.8719 C.3     1  UNL1        0.0096
     23 C           5.1684   42.3766   10.3411 C.3     1  UNL1        0.0096
     24 S          12.3722   42.0322    6.7309 S.O2    1  UNL1        0.0316
     25 O          11.9031   43.4458    6.5304 O.2     1  UNL1       -0.1641
     26 O          12.3114   41.3193    5.4089 O.2     1  UNL1       -0.1641
     27 C          14.0171   42.0344    7.3376 C.ar    1  UNL1        0.1104
     28 C          15.0184   42.7402    6.6602 C.ar    1  UNL1        0.0184
     29 C          16.3323   42.7240    7.1375 C.ar    1  UNL1       -0.0029
     30 C          16.6485   41.9980    8.2903 C.ar    1  UNL1       -0.0218
     31 C          15.6505   41.2894    8.9661 C.ar    1  UNL1       -0.0029
     32 C          14.3363   41.3066    8.4895 C.ar    1  UNL1        0.0184
     33 C          18.0453   41.9804    8.7974 C.3     1  UNL1        0.0310
@<TRIPOS>BOND
     1     1     2   ar
     2    28    29   ar
     3    30    31   ar
     4    32    27   ar
     5    33    30    1
     6     3    11   ar
     7     4     5   ar
     8     6     7   ar
     9     8    12   ar
    10     8     3   ar
    11     9    13   ar
    12     9     2   ar
    13    21    17    1
    14    21    22    1
    15    22    23    1
    16    23    21    1
    17    10    14    1
    18    24     1    1
    19    24    27    1
    20    13    19    1
    21    13    10   ar
    22    19    17   am
    23    27    28   ar
    24    29    30   ar
    25    31    32   ar
    26     2    11   ar
    27     3     4   ar
    28     5     6   ar
    29     7     8   ar
    30     9    12   ar
    31    17    18    2
    32    10     1   ar
    33    24    25    2
    34    24    26    2
    35    19    20    1
    36    14    15    1
    37    14    16    1
@<TRIPOS>MOLECULE
MolPort-002-603-648 2374897 CHEMBL1575533 CSSS00160651546 LN00678916 MCULE-6865837890 PubChem-662949 ZINC000002374897
 33 37 0 0 0
SMALL
GASTEIGER

@<TRIPOS>ATOM
      1 C          14.4139   39.3011    9.7156 C.ar    1  UNL1        0.1616
      2 C          15.1523   40.3580    9.2283 C.ar    1  UNL1        0.1370
      3 C          15.7538   42.2223    7.9595 C.ar    1  UNL1        0.0990
      4 C          15.4261   43.2776    7.1055 C.ar    1  UNL1        0.0206
      5 C          16.4246   44.1478    6.6565 C.ar    1  UNL1        0.0016
      6 C          17.7536   43.9659    7.0556 C.ar    1  UNL1        0.0016
      7 C          18.0978   42.9118    7.9077 C.ar    1  UNL1        0.0207
      8 C          17.1112   42.0362    8.3668 C.ar    1  UNL1        0.1006
      9 C          16.4469   40.1876    9.6328 C.ar    1  UNL1        0.1807
     10 C          15.3352   38.5103   10.4003 C.ar    1  UNL1        0.1439
     11 N          14.7874   41.3578    8.3893 N.ar    1  UNL1       -0.2393
     12 N          17.4405   40.9992    9.1931 N.ar    1  UNL1       -0.2238
     13 N          16.5699   39.0654   10.3694 N.ar    1  UNL1       -0.2241
     14 N          15.0529   37.2438   10.9881 N.pl3   1  UNL1       -0.3416
     15 H          15.7638   36.7486   11.4557 H       1  UNL1        0.1438
     16 H          14.1468   36.8637   10.9268 H       1  UNL1        0.1438
     17 C          18.5662   37.5877   10.0432 C.2     1  UNL1        0.2395
     18 O          18.4597   37.5778    8.7875 O.2     1  UNL1       -0.2734
     19 N          17.7483   38.4557   10.8356 N.am    1  UNL1       -0.2193
     20 H          18.0275   38.6364   11.7622 H       1  UNL1        0.1758
     21 C          19.6231   36.7629   10.7018 C.3     1  UNL1        0.0781
     22 C          19.3051   35.2881   10.5326 C.3     1  UNL1        0.0096
     23 C          19.0201   35.9732   11.8496 C.3     1  UNL1        0.0096
     24 S          12.7321   38.9340    9.3720 S.O2    1  UNL1        0.0316
     25 O          12.2785   37.7789   10.2196 O.2     1  UNL1       -0.1641
     26 O          12.5870   38.5485    7.9263 O.2     1  UNL1       -0.1641
     27 C          11.7509   40.3448    9.7194 C.ar    1  UNL1        0.1104
     28 C          11.5172   41.3039    8.7268 C.ar    1  UNL1        0.0184
     29 C          10.7494   42.4364    9.0138 C.ar    1  UNL1       -0.0029
     30 C          10.2178   42.6145   10.2951 C.ar    1  UNL1       -0.0218
     31 C          10.4532   41.6595   11.2887 C.ar    1  UNL1       -0.0029
     32 C          11.2201   40.5263   11.0015 C.ar    1  UNL1        0.0184
     33 C           9.4020   43.8186   10.6002 C.3     1  UNL1        0.0310
@<TRIPOS>BOND
     1     1     2   ar
     2    28    29   ar
     3    30    31   ar
     4    32    27   ar
     5    33    30    1
     6     3    11   ar
     7     4     5   ar
     8     6     7   ar
     9     8    12   ar
    10     8     3   ar
    11     9    13   ar
    12     9     2   ar
    13    21    17    1
    14    21    22    1
    15    22    23    1
    16    23    21    1
    17    10    14    1
    18    24     1    1
    19    24    27    1
    20    13    19    1
    21    13    10   ar
    22    19    17   am
    23    27    28   ar
    24    29    30   ar
    25    31    32   ar
    26     2    11   ar
    27     3     4   ar
    28     5     6   ar
    29     7     8   ar
    30     9    12   ar
    31    17    18    2
    32    10     1   ar
    33    24    25    2
    34    24    26    2
    35    19    20    1
    36    14    15    1
    37    14    16    1
@<TRIPOS>MOLECULE
MolPort-002-603-648 2374897 CHEMBL1575533 CSSS00160651546 LN00678916 MCULE-6865837890 PubChem-662949 ZINC000002374897
 33 37 0 0 0
SMALL
GASTEIGER

@<TRIPOS>ATOM
      1 C          13.1148   39.8527    9.0754 C.ar    1  UNL1        0.1616
      2 C          13.5691   40.8440    8.2325 C.ar    1  UNL1        0.1370
      3 C          14.9615   42.4607    7.2862 C.ar    1  UNL1        0.0990
      4 C          16.2153   43.0564    7.1328 C.ar    1  UNL1        0.0206
      5 C          16.3659   44.1560    6.2819 C.ar    1  UNL1        0.0016
      6 C          15.2656   44.6667    5.5841 C.ar    1  UNL1        0.0016
      7 C          14.0031   44.0830    5.7299 C.ar    1  UNL1        0.0207
      8 C          13.8374   42.9824    6.5738 C.ar    1  UNL1        0.1006
      9 C          12.4959   41.3305    7.5396 C.ar    1  UNL1        0.1807
     10 C          11.7398   39.7997    8.8523 C.ar    1  UNL1        0.1439
     11 N          14.8022   41.3967    8.1281 N.ar    1  UNL1       -0.2393
     12 N          12.6059   42.4114    6.7279 N.ar    1  UNL1       -0.2238
     13 N          11.3680   40.6849    7.8975 N.ar    1  UNL1       -0.2241
     14 N          10.8211   38.9899    9.5798 N.pl3   1  UNL1       -0.3416
     15 H           9.8623   39.0120    9.3574 H       1  UNL1        0.1438
     16 H          11.1449   38.4082   10.3051 H       1  UNL1        0.1438
     17 C           9.1992   40.1112    6.7829 C.2     1  UNL1        0.2395
     18 O           9.4818   38.8879    6.6730 O.2     1  UNL1       -0.2734
     19 N          10.0419   40.9871    7.5398 N.am    1  UNL1       -0.2193
     20 H           9.6708   41.8525    7.8271 H       1  UNL1        0.1758
     21 C           7.9233   40.6298    6.2048 C.3     1  UNL1        0.0781
     22 C           6.8404   40.6343    7.2688 C.3     1  UNL1        0.0096
     23 C           6.8670   39.5397    6.2266 C.3     1  UNL1        0.0096
     24 S          14.0359   38.9969   10.3002 S.O2    1  UNL1        0.0316
     25 O          13.2513   38.9382   11.5806 O.2     1  UNL1       -0.1641
     26 O          15.3223   39.7284   10.5643 O.2     1  UNL1       -0.1641
     27 C          14.3735   37.3711    9.7374 C.ar    1  UNL1        0.1104
     28 C          13.4585   36.3383    9.9731 C.ar    1  UNL1        0.0184
     29 C          13.7405   35.0397    9.5386 C.ar    1  UNL1       -0.0029
     30 C          14.9401   34.7705    8.8719 C.ar    1  UNL1       -0.0218
     31 C          15.8569   35.8000    8.6389 C.ar    1  UNL1       -0.0029
     32 C          15.5744   37.0989    9.0724 C.ar    1  UNL1        0.0184
     33 C          15.2399   33.3901    8.4105 C.3     1  UNL1        0.0310
@<TRIPOS>BOND
     1     1     2   ar
     2    28    29   ar
     3    30    31   ar
     4    32    27   ar
     5    33    30    1
     6     3    11   ar
     7     4     5   ar
     8     6     7   ar
     9     8    12   ar
    10     8     3   ar
    11     9    13   ar
    12     9     2   ar
    13    21    17    1
    14    21    22    1
    15    22    23    1
    16    23    21    1
    17    10    14    1
    18    24     1    1
    19    24    27    1
    20    13    19    1
    21    13    10   ar
    22    19    17   am
    23    27    28   ar
    24    29    30   ar
    25    31    32   ar
    26     2    11   ar
    27     3     4   ar
    28     5     6   ar
    29     7     8   ar
    30     9    12   ar
    31    17    18    2
    32    10     1   ar
    33    24    25    2
    34    24    26    2
    35    19    20    1
    36    14    15    1
    37    14    16    1
@<TRIPOS>MOLECULE
MolPort-002-603-648 2374897 CHEMBL1575533 CSSS00160651546 LN00678916 MCULE-6865837890 PubChem-662949 ZINC000002374897
 33 37 0 0 0
SMALL
GASTEIGER

@<TRIPOS>ATOM
      1 C           8.1991   42.5064    8.6562 C.ar    1  UNL1        0.1616
      2 C           9.5430   42.4643    8.3530 C.ar    1  UNL1        0.1370
      3 C          11.5179   42.1726    7.1437 C.ar    1  UNL1        0.0990
      4 C          12.1998   42.0173    5.9349 C.ar    1  UNL1        0.0206
      5 C          13.5904   41.8684    5.9324 C.ar    1  UNL1        0.0016
      6 C          14.3045   41.8709    7.1360 C.ar    1  UNL1        0.0016
      7 C          13.6353   42.0222    8.3546 C.ar    1  UNL1        0.0207
      8 C          12.2470   42.1748    8.3732 C.ar    1  UNL1        0.1006
      9 C          10.2395   42.4835    9.5291 C.ar    1  UNL1        0.1807
     10 C           8.1503   42.5339   10.0491 C.ar    1  UNL1        0.1439
     11 N          10.1580   42.3019    7.1563 N.ar    1  UNL1       -0.2393
     12 N          11.5849   42.3151    9.5599 N.ar    1  UNL1       -0.2238
     13 N           9.3963   42.5447   10.5789 N.ar    1  UNL1       -0.2241
     14 N           6.9602   42.4742   10.8297 N.pl3   1  UNL1       -0.3416
     15 H           7.0144   42.4994   11.8124 H       1  UNL1        0.1438
     16 H           6.0836   42.4078   10.3866 H       1  UNL1        0.1438
     17 C           8.9790   41.5851   12.8549 C.2     1  UNL1        0.2395
     18 O           8.2423   40.6586   12.4222 O.2     1  UNL1       -0.2734
     19 N           9.7001   42.4251   11.9468 N.am    1  UNL1       -0.2193
     20 H          10.4535   42.9505   12.3012 H       1  UNL1        0.1758
     21 C           9.1806   41.7427   14.3265 C.3     1  UNL1        0.0781
     22 C          10.3159   40.8474   14.7894 C.3     1  UNL1        0.0096
     23 C           8.8829   40.4314   15.0309 C.3     1  UNL1        0.0096
     24 S           6.8541   42.3512    7.5391 S.O2    1  UNL1        0.0316
     25 O           7.0656   41.1597    6.6481 O.2     1  UNL1       -0.1641
     26 O           6.7719   43.5803    6.6775 O.2     1  UNL1       -0.1641
     27 C           5.3683   42.1542    8.4487 C.ar    1  UNL1        0.1104
     28 C           5.0007   40.8945    8.9360 C.ar    1  UNL1        0.0184
     29 C           3.8058   40.7389    9.6450 C.ar    1  UNL1       -0.0029
     30 C           2.9739   41.8416    9.8638 C.ar    1  UNL1       -0.0218
     31 C           3.3376   43.0999    9.3746 C.ar    1  UNL1       -0.0029
     32 C           4.5331   43.2558    8.6667 C.ar    1  UNL1        0.0184
     33 C           1.7036   41.6761   10.6170 C.3     1  UNL1        0.0310
@<TRIPOS>BOND
     1     1     2   ar
     2    28    29   ar
     3    30    31   ar
     4    32    27   ar
     5    33    30    1
     6     3    11   ar
     7     4     5   ar
     8     6     7   ar
     9     8    12   ar
    10     8     3   ar
    11     9    13   ar
    12     9     2   ar
    13    21    17    1
    14    21    22    1
    15    22    23    1
    16    23    21    1
    17    10    14    1
    18    24     1    1
    19    24    27    1
    20    13    19    1
    21    13    10   ar
    22    19    17   am
    23    27    28   ar
    24    29    30   ar
    25    31    32   ar
    26     2    11   ar
    27     3     4   ar
    28     5     6   ar
    29     7     8   ar
    30     9    12   ar
    31    17    18    2
    32    10     1   ar
    33    24    25    2
    34    24    26    2
    35    19    20    1
    36    14    15    1
    37    14    16    1
