@<TRIPOS>MOLECULE
MolPort-006-579-684 ChemDiv-V018-1016 MCULE-8337918688 PubChem-46040648 ZINC000037545105 ZINC37545105
 33 36 0 0 0
SMALL
GASTEIGER

@<TRIPOS>ATOM
      1 C          10.7236   41.2853   11.0162 C.ar    1  UNL1        0.0565
      2 C          10.3734   40.8057   12.2894 C.ar    1  UNL1        0.0150
      3 C           9.1535   41.1556   12.8713 C.ar    1  UNL1        0.0026
      4 C           8.2658   41.9856   12.1848 C.ar    1  UNL1        0.0148
      5 C           8.5909   42.4694   10.9102 C.ar    1  UNL1        0.0516
      6 C           9.8155   42.1148   10.3364 C.ar    1  UNL1        0.0296
      7 C          14.0500   39.5925    8.9315 C.3     1  UNL1        0.0971
      8 C          14.1380   39.6299   10.4467 C.3     1  UNL1        0.0435
      9 C          12.7393   39.8051   11.0391 C.3     1  UNL1        0.1015
     10 C          12.4467   41.4882    9.1770 C.2     1  UNL1        0.3112
     11 N          13.5121   40.8569    8.4515 N.am    1  UNL1       -0.2596
     12 N          11.9773   40.8983   10.4118 N.am    1  UNL1       -0.2430
     13 O          11.9596   42.5739    8.7576 O.2     1  UNL1       -0.2520
     14 C          14.0448   41.4386    7.2254 C.3     1  UNL1        0.1214
     15 C          14.4415   44.1602    6.0941 C.3     1  UNL1        0.0308
     16 C          15.4523   43.5366    6.9962 C.ar    1  UNL1       -0.0242
     17 C          16.6040   44.2628    7.3179 C.ar    1  UNL1       -0.0045
     18 C          17.5749   43.7107    8.1576 C.ar    1  UNL1       -0.0003
     19 C          17.3986   42.4272    8.6793 C.ar    1  UNL1       -0.0003
     20 C          16.2512   41.6955    8.3620 C.ar    1  UNL1       -0.0029
     21 C          15.2742   42.2408    7.5201 C.ar    1  UNL1       -0.0062
     22 C           6.9909   42.9983    8.9799 C.2     1  UNL1        0.2707
     23 N           7.7085   43.3286   10.1759 N.am    1  UNL1       -0.2808
     24 O           7.1324   41.8796    8.4210 O.2     1  UNL1       -0.2707
     25 H           7.5826   44.2388   10.5295 H       1  UNL1        0.1550
     26 C           6.0503   43.9942    8.3935 C.3     1  UNL1        0.2897
     27 O           4.7081   43.5307    8.5043 O.3     1  UNL1       -0.4656
     28 C           4.3134   42.5242    9.3927 C.ar    1  UNL1        0.1393
     29 C           3.3999   41.5247    9.0173 C.ar    1  UNL1        0.0369
     30 C           3.0252   40.5340    9.9290 C.ar    1  UNL1        0.0031
     31 C           3.5592   40.5359   11.2206 C.ar    1  UNL1        0.0002
     32 C           4.4668   41.5289   11.6006 C.ar    1  UNL1        0.0031
     33 C           4.8412   42.5202   10.6887 C.ar    1  UNL1        0.0369
@<TRIPOS>BOND
     1    15    16    1
     2    17    18   ar
     3    19    20   ar
     4    21    16   ar
     5    14    21    1
     6    14    11    1
     7     7    11    1
     8     7     8    1
     9     8     9    1
    10     9    12    1
    11    10    11   am
    12     2     3   ar
    13     4     5   ar
    14     5    23    1
    15    26    22    1
    16    26    27    1
    17    28    27    1
    18    29    30   ar
    19    31    32   ar
    20    33    28   ar
    21     6     1   ar
    22    12    10   am
    23    12     1    1
    24    23    22   am
    25    16    17   ar
    26    18    19   ar
    27    20    21   ar
    28    10    13    2
    29     1     2   ar
    30     3     4   ar
    31     5     6   ar
    32    22    24    2
    33    28    29   ar
    34    30    31   ar
    35    32    33   ar
    36    23    25    1
@<TRIPOS>MOLECULE
MolPort-006-579-684 ChemDiv-V018-1016 MCULE-8337918688 PubChem-46040648 ZINC000037545105 ZINC37545105
 33 36 0 0 0
SMALL
GASTEIGER

@<TRIPOS>ATOM
      1 C           9.1313   40.7783    7.4197 C.ar    1  UNL1        0.0565
      2 C           8.9024   39.5816    6.7203 C.ar    1  UNL1        0.0150
      3 C           7.6191   39.2450    6.2857 C.ar    1  UNL1        0.0026
      4 C           6.5487   40.1040    6.5405 C.ar    1  UNL1        0.0148
      5 C           6.7551   41.3069    7.2296 C.ar    1  UNL1        0.0516
      6 C           8.0436   41.6343    7.6622 C.ar    1  UNL1        0.0296
      7 C          13.2340   41.1101    8.5746 C.3     1  UNL1        0.0971
      8 C          12.1957   41.4484    9.6294 C.3     1  UNL1        0.0435
      9 C          10.8478   40.8423    9.2374 C.3     1  UNL1        0.1015
     10 C          11.4470   41.6640    6.9241 C.2     1  UNL1        0.3112
     11 N          12.8313   41.6909    7.3023 N.am    1  UNL1       -0.2596
     12 N          10.4667   41.1297    7.8441 N.am    1  UNL1       -0.2430
     13 O          11.0907   42.1464    5.8140 O.2     1  UNL1       -0.2520
     14 C          13.8473   42.2584    6.4243 C.3     1  UNL1        0.1214
     15 C          15.3202   44.8204    6.0905 C.3     1  UNL1        0.0308
     16 C          15.7838   43.7742    7.0470 C.ar    1  UNL1       -0.0242
     17 C          16.9331   44.0201    7.8058 C.ar    1  UNL1       -0.0045
     18 C          17.4000   43.0626    8.7102 C.ar    1  UNL1       -0.0003
     19 C          16.7188   41.8524    8.8591 C.ar    1  UNL1       -0.0003
     20 C          15.5705   41.5994    8.1044 C.ar    1  UNL1       -0.0029
     21 C          15.0969   42.5529    7.1947 C.ar    1  UNL1       -0.0062
     22 C           5.8007   43.5720    7.9536 C.2     1  UNL1        0.2707
     23 N           5.6808   42.2124    7.5157 N.am    1  UNL1       -0.2808
     24 O           6.9254   44.0868    8.1858 O.2     1  UNL1       -0.2707
     25 H           4.7671   41.8647    7.3994 H       1  UNL1        0.1550
     26 C           4.5707   44.3954    8.1257 C.3     1  UNL1        0.2897
     27 O           3.5297   43.6134    8.7032 O.3     1  UNL1       -0.4656
     28 C           3.7637   42.5586    9.5923 C.ar    1  UNL1        0.1393
     29 C           4.7552   42.6361   10.5850 C.ar    1  UNL1        0.0369
     30 C           4.9648   41.5641   11.4569 C.ar    1  UNL1        0.0031
     31 C           4.1870   40.4086   11.3422 C.ar    1  UNL1        0.0002
     32 C           3.2005   40.3248   10.3552 C.ar    1  UNL1        0.0031
     33 C           2.9913   41.3970    9.4828 C.ar    1  UNL1        0.0369
@<TRIPOS>BOND
     1    15    16    1
     2    17    18   ar
     3    19    20   ar
     4    21    16   ar
     5    14    21    1
     6    14    11    1
     7     7    11    1
     8     7     8    1
     9     8     9    1
    10     9    12    1
    11    10    11   am
    12     2     3   ar
    13     4     5   ar
    14     5    23    1
    15    26    22    1
    16    26    27    1
    17    28    27    1
    18    29    30   ar
    19    31    32   ar
    20    33    28   ar
    21     6     1   ar
    22    12    10   am
    23    12     1    1
    24    23    22   am
    25    16    17   ar
    26    18    19   ar
    27    20    21   ar
    28    10    13    2
    29     1     2   ar
    30     3     4   ar
    31     5     6   ar
    32    22    24    2
    33    28    29   ar
    34    30    31   ar
    35    32    33   ar
    36    23    25    1
@<TRIPOS>MOLECULE
MolPort-006-579-684 ChemDiv-V018-1016 MCULE-8337918688 PubChem-46040648 ZINC000037545105 ZINC37545105
 33 36 0 0 0
SMALL
GASTEIGER

@<TRIPOS>ATOM
      1 C           9.4498   41.3836    9.4553 C.ar    1  UNL1        0.0565
      2 C           9.6802   40.9407   10.7685 C.ar    1  UNL1        0.0150
      3 C           8.7644   41.2190   11.7848 C.ar    1  UNL1        0.0026
      4 C           7.6033   41.9394   11.4995 C.ar    1  UNL1        0.0148
      5 C           7.3490   42.3844   10.1950 C.ar    1  UNL1        0.0516
      6 C           8.2729   42.1022    9.1844 C.ar    1  UNL1        0.0296
      7 C          12.1253   41.1442    6.1295 C.3     1  UNL1        0.0971
      8 C          10.9238   40.2162    6.1106 C.3     1  UNL1        0.0435
      9 C           9.8566   40.7366    7.0740 C.3     1  UNL1        0.1015
     10 C          11.8208   41.1626    8.6057 C.2     1  UNL1        0.3112
     11 N          12.6962   41.1616    7.4682 N.am    1  UNL1       -0.2596
     12 N          10.3911   41.0699    8.4053 N.am    1  UNL1       -0.2430
     13 O          12.3056   41.1984    9.7700 O.2     1  UNL1       -0.2520
     14 C          14.1448   41.2109    7.6249 C.3     1  UNL1        0.1214
     15 C          16.8544   42.1880    8.3647 C.3     1  UNL1        0.0308
     16 C          15.9723   42.9608    7.4433 C.ar    1  UNL1       -0.0242
     17 C          16.4459   44.1661    6.9139 C.ar    1  UNL1       -0.0045
     18 C          15.6473   44.9196    6.0496 C.ar    1  UNL1       -0.0003
     19 C          14.3687   44.4708    5.7113 C.ar    1  UNL1       -0.0003
     20 C          13.8885   43.2683    6.2365 C.ar    1  UNL1       -0.0029
     21 C          14.6818   42.5080    7.1045 C.ar    1  UNL1       -0.0062
     22 C           5.6000   43.2956    8.5590 C.2     1  UNL1        0.2707
     23 N           6.1712   43.1319    9.8634 N.am    1  UNL1       -0.2808
     24 O           6.1536   42.8108    7.5379 O.2     1  UNL1       -0.2707
     25 H           5.7073   43.5786   10.6081 H       1  UNL1        0.1550
     26 C           4.3200   44.0438    8.4105 C.3     1  UNL1        0.2897
     27 O           3.2200   43.2200    8.7849 O.3     1  UNL1       -0.4656
     28 C           3.2782   42.2868    9.8259 C.ar    1  UNL1        0.1393
     29 C           3.0291   42.6522   11.1596 C.ar    1  UNL1        0.0369
     30 C           3.0965   41.6959   12.1767 C.ar    1  UNL1        0.0031
     31 C           3.4137   40.3701   11.8683 C.ar    1  UNL1        0.0002
     32 C           3.6646   40.0010   10.5436 C.ar    1  UNL1        0.0031
     33 C           3.5977   40.9578    9.5264 C.ar    1  UNL1        0.0369
@<TRIPOS>BOND
     1    15    16    1
     2    17    18   ar
     3    19    20   ar
     4    21    16   ar
     5    14    21    1
     6    14    11    1
     7     7    11    1
     8     7     8    1
     9     8     9    1
    10     9    12    1
    11    10    11   am
    12     2     3   ar
    13     4     5   ar
    14     5    23    1
    15    26    22    1
    16    26    27    1
    17    28    27    1
    18    29    30   ar
    19    31    32   ar
    20    33    28   ar
    21     6     1   ar
    22    12    10   am
    23    12     1    1
    24    23    22   am
    25    16    17   ar
    26    18    19   ar
    27    20    21   ar
    28    10    13    2
    29     1     2   ar
    30     3     4   ar
    31     5     6   ar
    32    22    24    2
    33    28    29   ar
    34    30    31   ar
    35    32    33   ar
    36    23    25    1
@<TRIPOS>MOLECULE
MolPort-006-579-684 ChemDiv-V018-1016 MCULE-8337918688 PubChem-46040648 ZINC000037545105 ZINC37545105
 33 36 0 0 0
SMALL
GASTEIGER

@<TRIPOS>ATOM
      1 C          13.7229   41.9521    7.5444 C.ar    1  UNL1        0.0565
      2 C          14.3931   43.0492    6.9778 C.ar    1  UNL1        0.0150
      3 C          15.7550   43.2493    7.2104 C.ar    1  UNL1        0.0026
      4 C          16.4656   42.3513    8.0087 C.ar    1  UNL1        0.0148
      5 C          15.8193   41.2455    8.5777 C.ar    1  UNL1        0.0516
      6 C          14.4549   41.0545    8.3403 C.ar    1  UNL1        0.0296
      7 C           9.7216   40.6153    6.8523 C.3     1  UNL1        0.0971
      8 C          10.4172   41.3204    5.7016 C.3     1  UNL1        0.0435
      9 C          11.9295   41.3034    5.9266 C.3     1  UNL1        0.1015
     10 C          11.3167   41.8567    8.3149 C.2     1  UNL1        0.3112
     11 N          10.0015   41.3278    8.0902 N.am    1  UNL1       -0.2596
     12 N          12.3190   41.7398    7.2782 N.am    1  UNL1       -0.2430
     13 O          11.5750   42.4579    9.3937 O.2     1  UNL1       -0.2520
     14 C           8.9488   41.4604    9.0900 C.3     1  UNL1        0.1214
     15 C           9.1581   44.1681   10.3021 C.3     1  UNL1        0.0308
     16 C           8.1210   43.8509    9.2783 C.ar    1  UNL1       -0.0242
     17 C           7.2392   44.8616    8.8803 C.ar    1  UNL1       -0.0045
     18 C           6.2524   44.6017    7.9258 C.ar    1  UNL1       -0.0003
     19 C           6.1421   43.3274    7.3649 C.ar    1  UNL1       -0.0003
     20 C           7.0187   42.3127    7.7578 C.ar    1  UNL1       -0.0029
     21 C           8.0094   42.5643    8.7149 C.ar    1  UNL1       -0.0062
     22 C          15.9453   39.5009   10.4503 C.2     1  UNL1        0.2707
     23 N          16.5131   40.3043    9.4078 N.am    1  UNL1       -0.2808
     24 O          14.7329   39.6076   10.7705 O.2     1  UNL1       -0.2707
     25 H          17.4783   40.1991    9.2449 H       1  UNL1        0.1550
     26 C          16.8043   38.5118   11.1604 C.3     1  UNL1        0.2897
     27 O          16.3867   37.1850   10.8542 O.3     1  UNL1       -0.4656
     28 C          16.5385   36.6040    9.5903 C.ar    1  UNL1        0.1393
     29 C          15.4322   36.3092    8.7756 C.ar    1  UNL1        0.0369
     30 C          15.6179   35.7274    7.5185 C.ar    1  UNL1        0.0031
     31 C          16.9084   35.4358    7.0680 C.ar    1  UNL1        0.0002
     32 C          18.0128   35.7249    7.8748 C.ar    1  UNL1        0.0031
     33 C          17.8269   36.3063    9.1326 C.ar    1  UNL1        0.0369
@<TRIPOS>BOND
     1    15    16    1
     2    17    18   ar
     3    19    20   ar
     4    21    16   ar
     5    14    21    1
     6    14    11    1
     7     7    11    1
     8     7     8    1
     9     8     9    1
    10     9    12    1
    11    10    11   am
    12     2     3   ar
    13     4     5   ar
    14     5    23    1
    15    26    22    1
    16    26    27    1
    17    28    27    1
    18    29    30   ar
    19    31    32   ar
    20    33    28   ar
    21     6     1   ar
    22    12    10   am
    23    12     1    1
    24    23    22   am
    25    16    17   ar
    26    18    19   ar
    27    20    21   ar
    28    10    13    2
    29     1     2   ar
    30     3     4   ar
    31     5     6   ar
    32    22    24    2
    33    28    29   ar
    34    30    31   ar
    35    32    33   ar
    36    23    25    1
@<TRIPOS>MOLECULE
MolPort-006-579-684 ChemDiv-V018-1016 MCULE-8337918688 PubChem-46040648 ZINC000037545105 ZINC37545105
 33 36 0 0 0
SMALL
GASTEIGER

@<TRIPOS>ATOM
      1 C          10.4780   41.1777   10.8660 C.ar    1  UNL1        0.0565
      2 C          10.2287   41.0964   12.2462 C.ar    1  UNL1        0.0150
      3 C           8.9589   41.3698   12.7579 C.ar    1  UNL1        0.0026
      4 C           7.9203   41.7231   11.8947 C.ar    1  UNL1        0.0148
      5 C           8.1441   41.8028   10.5134 C.ar    1  UNL1        0.0516
      6 C           9.4196   41.5286   10.0108 C.ar    1  UNL1        0.0296
      7 C          14.0370   39.6708    9.0388 C.3     1  UNL1        0.0971
      8 C          14.0446   39.7983   10.5517 C.3     1  UNL1        0.0435
      9 C          12.6079   39.8827   11.0680 C.3     1  UNL1        0.1015
     10 C          12.2687   41.4298    9.0990 C.2     1  UNL1        0.3112
     11 N          13.4191   40.8553    8.4613 N.am    1  UNL1       -0.2596
     12 N          11.7889   40.8693   10.3434 N.am    1  UNL1       -0.2430
     13 O          11.7134   42.4444    8.5947 O.2     1  UNL1       -0.2520
     14 C          13.9620   41.4137    7.2289 C.3     1  UNL1        0.1214
     15 C          14.3243   44.1042    6.0147 C.3     1  UNL1        0.0308
     16 C          15.3279   43.5343    6.9594 C.ar    1  UNL1       -0.0242
     17 C          16.4557   44.2969    7.2813 C.ar    1  UNL1       -0.0045
     18 C          17.4193   43.7955    8.1603 C.ar    1  UNL1       -0.0003
     19 C          17.2595   42.5265    8.7213 C.ar    1  UNL1       -0.0003
     20 C          16.1360   41.7587    8.4041 C.ar    1  UNL1       -0.0029
     21 C          15.1665   42.2530    7.5229 C.ar    1  UNL1       -0.0062
     22 C           7.0123   43.3874    8.8479 C.2     1  UNL1        0.2707
     23 N           7.1050   42.1678    9.5953 N.am    1  UNL1       -0.2808
     24 O           7.8591   44.3074    8.9913 O.2     1  UNL1       -0.2707
     25 H           6.3809   41.5136    9.4648 H       1  UNL1        0.1550
     26 C           5.8988   43.5644    7.8736 C.3     1  UNL1        0.2897
     27 O           6.2743   43.0570    6.5968 O.3     1  UNL1       -0.4656
     28 C           7.0711   41.9195    6.4259 C.ar    1  UNL1        0.1393
     29 C           6.5210   40.6265    6.4233 C.ar    1  UNL1        0.0369
     30 C           7.3447   39.5106    6.2514 C.ar    1  UNL1        0.0031
     31 C           8.7218   39.6789    6.0822 C.ar    1  UNL1        0.0002
     32 C           9.2751   40.9626    6.0860 C.ar    1  UNL1        0.0031
     33 C           8.4512   42.0788    6.2585 C.ar    1  UNL1        0.0369
@<TRIPOS>BOND
     1    15    16    1
     2    17    18   ar
     3    19    20   ar
     4    21    16   ar
     5    14    21    1
     6    14    11    1
     7     7    11    1
     8     7     8    1
     9     8     9    1
    10     9    12    1
    11    10    11   am
    12     2     3   ar
    13     4     5   ar
    14     5    23    1
    15    26    22    1
    16    26    27    1
    17    28    27    1
    18    29    30   ar
    19    31    32   ar
    20    33    28   ar
    21     6     1   ar
    22    12    10   am
    23    12     1    1
    24    23    22   am
    25    16    17   ar
    26    18    19   ar
    27    20    21   ar
    28    10    13    2
    29     1     2   ar
    30     3     4   ar
    31     5     6   ar
    32    22    24    2
    33    28    29   ar
    34    30    31   ar
    35    32    33   ar
    36    23    25    1
@<TRIPOS>MOLECULE
MolPort-006-579-684 ChemDiv-V018-1016 MCULE-8337918688 PubChem-46040648 ZINC000037545105 ZINC37545105
 33 36 0 0 0
SMALL
GASTEIGER

@<TRIPOS>ATOM
      1 C          13.6989   42.1860    7.2555 C.ar    1  UNL1        0.0565
      2 C          14.2551   43.3048    6.6132 C.ar    1  UNL1        0.0150
      3 C          15.6045   43.6228    6.7778 C.ar    1  UNL1        0.0026
      4 C          16.4165   42.8223    7.5830 C.ar    1  UNL1        0.0148
      5 C          15.8849   41.6968    8.2271 C.ar    1  UNL1        0.0516
      6 C          14.5321   41.3875    8.0574 C.ar    1  UNL1        0.0296
      7 C           9.7895   40.5101    6.8266 C.3     1  UNL1        0.0971
      8 C          10.3958   41.1587    5.5951 C.3     1  UNL1        0.0435
      9 C          11.9112   41.2700    5.7656 C.3     1  UNL1        0.1015
     10 C          11.3307   41.9870    8.1182 C.2     1  UNL1        0.3112
     11 N          10.0524   41.3474    7.9878 N.am    1  UNL1       -0.2596
     12 N          12.3074   41.8509    7.0597 N.am    1  UNL1       -0.2430
     13 O          11.5756   42.6981    9.1313 O.2     1  UNL1       -0.2520
     14 C           9.0231   41.4922    9.0100 C.3     1  UNL1        0.1214
     15 C           9.1353   44.1407   10.3580 C.3     1  UNL1        0.0308
     16 C           8.1472   43.8579    9.2773 C.ar    1  UNL1       -0.0242
     17 C           7.2654   44.8731    8.8912 C.ar    1  UNL1       -0.0045
     18 C           6.3237   44.6449    7.8844 C.ar    1  UNL1       -0.0003
     19 C           6.2587   43.3977    7.2590 C.ar    1  UNL1       -0.0003
     20 C           7.1357   42.3787    7.6397 C.ar    1  UNL1       -0.0029
     21 C           8.0813   42.5986    8.6487 C.ar    1  UNL1       -0.0062
     22 C          16.2266   40.0611   10.1698 C.2     1  UNL1        0.2707
     23 N          16.6849   40.8535    9.0667 N.am    1  UNL1       -0.2808
     24 O          15.0241   40.0902   10.5400 O.2     1  UNL1       -0.2707
     25 H          17.6477   40.8147    8.8648 H       1  UNL1        0.1550
     26 C          17.1900   39.1769   10.8843 C.3     1  UNL1        0.2897
     27 O          16.9972   37.8203   10.4956 O.3     1  UNL1       -0.4656
     28 C          15.7347   37.2463   10.3090 C.ar    1  UNL1        0.1393
     29 C          14.8337   37.0820   11.3747 C.ar    1  UNL1        0.0369
     30 C          13.5805   36.5037   11.1553 C.ar    1  UNL1        0.0031
     31 C          13.2200   36.0853    9.8713 C.ar    1  UNL1        0.0002
     32 C          14.1129   36.2442    8.8076 C.ar    1  UNL1        0.0031
     33 C          15.3667   36.8222    9.0273 C.ar    1  UNL1        0.0369
@<TRIPOS>BOND
     1    15    16    1
     2    17    18   ar
     3    19    20   ar
     4    21    16   ar
     5    14    21    1
     6    14    11    1
     7     7    11    1
     8     7     8    1
     9     8     9    1
    10     9    12    1
    11    10    11   am
    12     2     3   ar
    13     4     5   ar
    14     5    23    1
    15    26    22    1
    16    26    27    1
    17    28    27    1
    18    29    30   ar
    19    31    32   ar
    20    33    28   ar
    21     6     1   ar
    22    12    10   am
    23    12     1    1
    24    23    22   am
    25    16    17   ar
    26    18    19   ar
    27    20    21   ar
    28    10    13    2
    29     1     2   ar
    30     3     4   ar
    31     5     6   ar
    32    22    24    2
    33    28    29   ar
    34    30    31   ar
    35    32    33   ar
    36    23    25    1
@<TRIPOS>MOLECULE
MolPort-006-579-684 ChemDiv-V018-1016 MCULE-8337918688 PubChem-46040648 ZINC000037545105 ZINC37545105
 33 36 0 0 0
SMALL
GASTEIGER

@<TRIPOS>ATOM
      1 C           9.9088   41.2072   10.2146 C.ar    1  UNL1        0.0565
      2 C          10.4883   40.9727   11.4727 C.ar    1  UNL1        0.0150
      3 C           9.7562   41.1782   12.6435 C.ar    1  UNL1        0.0026
      4 C           8.4327   41.6161   12.5707 C.ar    1  UNL1        0.0148
      5 C           7.8317   41.8490   11.3263 C.ar    1  UNL1        0.0516
      6 C           8.5735   41.6418   10.1595 C.ar    1  UNL1        0.0296
      7 C          12.0302   41.2075    6.5030 C.3     1  UNL1        0.0971
      8 C          10.8110   40.3074    6.5954 C.3     1  UNL1        0.0435
      9 C           9.9225   40.7621    7.7537 C.3     1  UNL1        0.1015
     10 C          12.1121   41.0163    8.9892 C.2     1  UNL1        0.3112
     11 N          12.8010   41.0978    7.7328 N.am    1  UNL1       -0.2596
     12 N          10.6663   40.9684    9.0080 N.am    1  UNL1       -0.2430
     13 O          12.7716   40.9417   10.0623 O.2     1  UNL1       -0.2520
     14 C          14.2572   41.1060    7.6644 C.3     1  UNL1        0.1214
     15 C          16.8753   42.2268    8.5213 C.3     1  UNL1        0.0308
     16 C          15.9964   42.9496    7.5571 C.ar    1  UNL1       -0.0242
     17 C          16.4296   44.1769    7.0438 C.ar    1  UNL1       -0.0045
     18 C          15.6325   44.8849    6.1405 C.ar    1  UNL1       -0.0003
     19 C          14.3960   44.3683    5.7469 C.ar    1  UNL1       -0.0003
     20 C          13.9564   43.1435    6.2557 C.ar    1  UNL1       -0.0029
     21 C          14.7483   42.4284    7.1625 C.ar    1  UNL1       -0.0062
     22 C           5.2915   41.5146   11.3683 C.2     1  UNL1        0.2707
     23 N           6.4770   42.3046   11.2102 N.am    1  UNL1       -0.2808
     24 O           5.3555   40.2756   11.5801 O.2     1  UNL1       -0.2707
     25 H           6.3480   43.2578   11.0005 H       1  UNL1        0.1550
     26 C           3.9579   42.1750   11.2923 C.3     1  UNL1        0.2897
     27 O           3.5558   42.3213    9.9338 O.3     1  UNL1       -0.4656
     28 C           4.3692   42.8927    8.9489 C.ar    1  UNL1        0.1393
     29 C           5.3894   42.1609    8.3180 C.ar    1  UNL1        0.0369
     30 C           6.1853   42.7615    7.3387 C.ar    1  UNL1        0.0031
     31 C           5.9681   44.0960    6.9845 C.ar    1  UNL1        0.0002
     32 C           4.9561   44.8298    7.6101 C.ar    1  UNL1        0.0031
     33 C           4.1603   44.2290    8.5901 C.ar    1  UNL1        0.0369
@<TRIPOS>BOND
     1    15    16    1
     2    17    18   ar
     3    19    20   ar
     4    21    16   ar
     5    14    21    1
     6    14    11    1
     7     7    11    1
     8     7     8    1
     9     8     9    1
    10     9    12    1
    11    10    11   am
    12     2     3   ar
    13     4     5   ar
    14     5    23    1
    15    26    22    1
    16    26    27    1
    17    28    27    1
    18    29    30   ar
    19    31    32   ar
    20    33    28   ar
    21     6     1   ar
    22    12    10   am
    23    12     1    1
    24    23    22   am
    25    16    17   ar
    26    18    19   ar
    27    20    21   ar
    28    10    13    2
    29     1     2   ar
    30     3     4   ar
    31     5     6   ar
    32    22    24    2
    33    28    29   ar
    34    30    31   ar
    35    32    33   ar
    36    23    25    1
@<TRIPOS>MOLECULE
MolPort-006-579-684 ChemDiv-V018-1016 MCULE-8337918688 PubChem-46040648 ZINC000037545105 ZINC37545105
 33 36 0 0 0
SMALL
GASTEIGER

@<TRIPOS>ATOM
      1 C          10.8071   40.5864    8.1802 C.ar    1  UNL1        0.0565
      2 C          10.5411   39.6651    7.1535 C.ar    1  UNL1        0.0150
      3 C           9.3512   39.7331    6.4264 C.ar    1  UNL1        0.0026
      4 C           8.4142   40.7271    6.7134 C.ar    1  UNL1        0.0148
      5 C           8.6620   41.6616    7.7281 C.ar    1  UNL1        0.0516
      6 C           9.8557   41.5844    8.4517 C.ar    1  UNL1        0.0296
      7 C          14.5743   39.7488   10.0196 C.3     1  UNL1        0.0971
      8 C          13.3808   39.9091   10.9443 C.3     1  UNL1        0.0435
      9 C          12.0868   39.7282   10.1501 C.3     1  UNL1        0.1015
     10 C          13.2637   41.1373    8.4137 C.2     1  UNL1        0.3112
     11 N          14.5271   40.7798    8.9933 N.am    1  UNL1       -0.2596
     12 N          12.0517   40.5232    8.9108 N.am    1  UNL1       -0.2430
     13 O          13.2148   42.0152    7.5088 O.2     1  UNL1       -0.2520
     14 C          15.7685   41.4042    8.5525 C.3     1  UNL1        0.1214
     15 C          17.2361   43.9900    8.6173 C.3     1  UNL1        0.0308
     16 C          16.1908   43.7130    7.5902 C.ar    1  UNL1       -0.0242
     17 C          15.9108   44.6962    6.6351 C.ar    1  UNL1       -0.0045
     18 C          14.9360   44.4745    5.6588 C.ar    1  UNL1       -0.0003
     19 C          14.2348   43.2668    5.6341 C.ar    1  UNL1       -0.0003
     20 C          14.5084   42.2804    6.5851 C.ar    1  UNL1       -0.0029
     21 C          15.4826   42.4952    7.5678 C.ar    1  UNL1       -0.0062
     22 C           6.7957   43.3240    7.1628 C.2     1  UNL1        0.2707
     23 N           7.7221   42.6935    8.0566 N.am    1  UNL1       -0.2808
     24 O           6.7742   43.0398    5.9369 O.2     1  UNL1       -0.2707
     25 H           7.7121   43.0004    8.9920 H       1  UNL1        0.1550
     26 C           5.8315   44.3263    7.6975 C.3     1  UNL1        0.2897
     27 O           5.5503   44.0590    9.0680 O.3     1  UNL1       -0.4656
     28 C           4.8462   42.9304    9.5021 C.ar    1  UNL1        0.1393
     29 C           3.5105   42.7047    9.1286 C.ar    1  UNL1        0.0369
     30 C           2.8349   41.5678    9.5805 C.ar    1  UNL1        0.0031
     31 C           3.4881   40.6504   10.4082 C.ar    1  UNL1        0.0002
     32 C           4.8163   40.8706   10.7848 C.ar    1  UNL1        0.0031
     33 C           5.4919   42.0082   10.3332 C.ar    1  UNL1        0.0369
@<TRIPOS>BOND
     1    15    16    1
     2    17    18   ar
     3    19    20   ar
     4    21    16   ar
     5    14    21    1
     6    14    11    1
     7     7    11    1
     8     7     8    1
     9     8     9    1
    10     9    12    1
    11    10    11   am
    12     2     3   ar
    13     4     5   ar
    14     5    23    1
    15    26    22    1
    16    26    27    1
    17    28    27    1
    18    29    30   ar
    19    31    32   ar
    20    33    28   ar
    21     6     1   ar
    22    12    10   am
    23    12     1    1
    24    23    22   am
    25    16    17   ar
    26    18    19   ar
    27    20    21   ar
    28    10    13    2
    29     1     2   ar
    30     3     4   ar
    31     5     6   ar
    32    22    24    2
    33    28    29   ar
    34    30    31   ar
    35    32    33   ar
    36    23    25    1
@<TRIPOS>MOLECULE
MolPort-006-579-684 ChemDiv-V018-1016 MCULE-8337918688 PubChem-46040648 ZINC000037545105 ZINC37545105
 33 36 0 0 0
SMALL
GASTEIGER

@<TRIPOS>ATOM
      1 C          14.8579   41.7667    7.7504 C.ar    1  UNL1        0.0565
      2 C          15.5779   42.8854    7.2988 C.ar    1  UNL1        0.0150
      3 C          14.9991   43.7936    6.4105 C.ar    1  UNL1        0.0026
      4 C          13.6904   43.5973    5.9663 C.ar    1  UNL1        0.0148
      5 C          12.9506   42.4926    6.4097 C.ar    1  UNL1        0.0516
      6 C          13.5395   41.5878    7.2981 C.ar    1  UNL1        0.0296
      7 C          16.4278   39.5258   11.0352 C.3     1  UNL1        0.0971
      8 C          17.4228   39.9986    9.9904 C.3     1  UNL1        0.0435
      9 C          16.8129   41.1426    9.1798 C.3     1  UNL1        0.1015
     10 C          14.7321   39.7091    9.2144 C.2     1  UNL1        0.3112
     11 N          15.2365   39.0210   10.3685 N.am    1  UNL1       -0.2596
     12 N          15.4565   40.8456    8.6885 N.am    1  UNL1       -0.2430
     13 O          13.6882   39.2914    8.6417 O.2     1  UNL1       -0.2520
     14 C          14.5621   37.8460   10.9069 C.3     1  UNL1        0.1214
     15 C          12.5296   35.7273   10.4332 C.3     1  UNL1        0.0308
     16 C          13.8921   35.6482    9.8317 C.ar    1  UNL1       -0.0242
     17 C          14.2052   34.5526    9.0200 C.ar    1  UNL1       -0.0045
     18 C          15.4722   34.4422    8.4413 C.ar    1  UNL1       -0.0003
     19 C          16.4339   35.4282    8.6732 C.ar    1  UNL1       -0.0003
     20 C          16.1288   36.5251    9.4832 C.ar    1  UNL1       -0.0029
     21 C          14.8620   36.6425   10.0682 C.ar    1  UNL1       -0.0062
     22 C          10.5101   41.8047    6.7794 C.2     1  UNL1        0.2707
     23 N          11.6063   42.2534    5.9721 N.am    1  UNL1       -0.2808
     24 O          10.6681   41.5181    7.9947 O.2     1  UNL1       -0.2707
     25 H          11.4167   42.4137    5.0194 H       1  UNL1        0.1550
     26 C           9.1549   41.6870    6.1712 C.3     1  UNL1        0.2897
     27 O           8.1995   41.3185    7.1612 O.3     1  UNL1       -0.4656
     28 C           7.1565   42.1560    7.5719 C.ar    1  UNL1        0.1393
     29 C           6.2234   41.7517    8.5417 C.ar    1  UNL1        0.0369
     30 C           5.1922   42.6118    8.9293 C.ar    1  UNL1        0.0031
     31 C           5.0860   43.8795    8.3504 C.ar    1  UNL1        0.0002
     32 C           6.0099   44.2865    7.3836 C.ar    1  UNL1        0.0031
     33 C           7.0411   43.4259    6.9956 C.ar    1  UNL1        0.0369
@<TRIPOS>BOND
     1    15    16    1
     2    17    18   ar
     3    19    20   ar
     4    21    16   ar
     5    14    21    1
     6    14    11    1
     7     7    11    1
     8     7     8    1
     9     8     9    1
    10     9    12    1
    11    10    11   am
    12     2     3   ar
    13     4     5   ar
    14     5    23    1
    15    26    22    1
    16    26    27    1
    17    28    27    1
    18    29    30   ar
    19    31    32   ar
    20    33    28   ar
    21     6     1   ar
    22    12    10   am
    23    12     1    1
    24    23    22   am
    25    16    17   ar
    26    18    19   ar
    27    20    21   ar
    28    10    13    2
    29     1     2   ar
    30     3     4   ar
    31     5     6   ar
    32    22    24    2
    33    28    29   ar
    34    30    31   ar
    35    32    33   ar
    36    23    25    1
@<TRIPOS>MOLECULE
MolPort-006-579-684 ChemDiv-V018-1016 MCULE-8337918688 PubChem-46040648 ZINC000037545105 ZINC37545105
 33 36 0 0 0
SMALL
GASTEIGER

@<TRIPOS>ATOM
      1 C           9.3948   40.2607    7.8645 C.ar    1  UNL1        0.0565
      2 C           9.3934   39.4209    6.7383 C.ar    1  UNL1        0.0150
      3 C           8.3218   39.4313    5.8435 C.ar    1  UNL1        0.0026
      4 C           7.2398   40.2861    6.0610 C.ar    1  UNL1        0.0148
      5 C           7.2235   41.1382    7.1736 C.ar    1  UNL1        0.0516
      6 C           8.3005   41.1194    8.0647 C.ar    1  UNL1        0.0296
      7 C          12.4356   39.6382   10.8042 C.3     1  UNL1        0.0971
      8 C          11.5923   40.8927   10.9458 C.3     1  UNL1        0.0435
      9 C          10.2974   40.7348   10.1482 C.3     1  UNL1        0.1015
     10 C          11.8103   39.7308    8.3907 C.2     1  UNL1        0.3112
     11 N          12.7880   39.4532    9.4042 N.am    1  UNL1       -0.2596
     12 N          10.5191   40.2606    8.7715 N.am    1  UNL1       -0.2430
     13 O          12.0994   39.5538    7.1753 O.2     1  UNL1       -0.2520
     14 C          14.1162   38.9585    9.0627 C.3     1  UNL1        0.1214
     15 C          16.6936   38.9591   10.5463 C.3     1  UNL1        0.0308
     16 C          16.3124   40.0858    9.6465 C.ar    1  UNL1       -0.0242
     17 C          17.2007   41.1563    9.4977 C.ar    1  UNL1       -0.0045
     18 C          16.8773   42.2314    8.6657 C.ar    1  UNL1       -0.0003
     19 C          15.6614   42.2411    7.9785 C.ar    1  UNL1       -0.0003
     20 C          14.7689   41.1758    8.1225 C.ar    1  UNL1       -0.0029
     21 C          15.0845   40.0953    8.9555 C.ar    1  UNL1       -0.0062
     22 C           6.2066   43.4395    7.6594 C.2     1  UNL1        0.2707
     23 N           6.1282   42.0261    7.4344 N.am    1  UNL1       -0.2808
     24 O           7.3152   44.0339    7.7009 O.2     1  UNL1       -0.2707
     25 H           5.2301   41.6236    7.4619 H       1  UNL1        0.1550
     26 C           4.9509   44.2221    7.8355 C.3     1  UNL1        0.2897
     27 O           4.4381   44.0434    9.1522 O.3     1  UNL1       -0.4656
     28 C           4.2540   42.7876    9.7414 C.ar    1  UNL1        0.1393
     29 C           3.1844   41.9516    9.3786 C.ar    1  UNL1        0.0369
     30 C           3.0279   40.7033    9.9872 C.ar    1  UNL1        0.0031
     31 C           3.9372   40.2829   10.9618 C.ar    1  UNL1        0.0002
     32 C           5.0020   41.1110   11.3284 C.ar    1  UNL1        0.0031
     33 C           5.1582   42.3600   10.7199 C.ar    1  UNL1        0.0369
@<TRIPOS>BOND
     1    15    16    1
     2    17    18   ar
     3    19    20   ar
     4    21    16   ar
     5    14    21    1
     6    14    11    1
     7     7    11    1
     8     7     8    1
     9     8     9    1
    10     9    12    1
    11    10    11   am
    12     2     3   ar
    13     4     5   ar
    14     5    23    1
    15    26    22    1
    16    26    27    1
    17    28    27    1
    18    29    30   ar
    19    31    32   ar
    20    33    28   ar
    21     6     1   ar
    22    12    10   am
    23    12     1    1
    24    23    22   am
    25    16    17   ar
    26    18    19   ar
    27    20    21   ar
    28    10    13    2
    29     1     2   ar
    30     3     4   ar
    31     5     6   ar
    32    22    24    2
    33    28    29   ar
    34    30    31   ar
    35    32    33   ar
    36    23    25    1
