@<TRIPOS>MOLECULE
MolPort-001-580-100 CSSS00121683560 LN00925186 MCULE-2337673618 PubChem-2950106
 28 30 0 0 0
SMALL
GASTEIGER

@<TRIPOS>ATOM
      1 C          11.5969   41.9590    8.8567 C.ar    1  UNL1        0.1403
      2 C          12.3537   41.1707    9.7379 C.ar    1  UNL1        0.0370
      3 C          11.7164   40.3691   10.6876 C.ar    1  UNL1        0.0044
      4 C          10.3215   40.3510   10.7619 C.ar    1  UNL1        0.0149
      5 C           9.5541   41.1343    9.8871 C.ar    1  UNL1        0.0536
      6 C          10.2008   41.9344    8.9389 C.ar    1  UNL1        0.0516
      7 C           7.2600   42.2920    9.8767 C.2     1  UNL1        0.2492
      8 O           7.7546   43.4470    9.7772 O.2     1  UNL1       -0.2698
      9 N           8.1206   41.1429    9.9326 N.am    1  UNL1       -0.2803
     10 H           7.6785   40.2667   10.0106 H       1  UNL1        0.1552
     11 C           5.7876   42.1010    9.9376 C.ar    1  UNL1        0.0497
     12 C           4.8645   42.8650    9.1764 C.ar    1  UNL1       -0.0175
     13 C           5.2850   43.9422    8.2342 C.3     1  UNL1        0.0312
     14 C           3.4922   42.6192    9.2943 C.ar    1  UNL1       -0.0041
     15 C           3.0184   41.6282   10.1545 C.ar    1  UNL1       -0.0003
     16 C           3.9166   40.8726   10.9063 C.ar    1  UNL1        0.0001
     17 C           5.2880   41.1087   10.7971 C.ar    1  UNL1        0.0042
     18 O          12.2036   42.7731    7.8965 O.3     1  UNL1       -0.4713
     19 C          12.1153   41.8588    5.6654 C.3     1  UNL1        0.0559
     20 C          12.9968   42.2526    6.8362 C.3     1  UNL1        0.2267
     21 C          14.0464   43.2416    6.4250 C.2     1  UNL1        0.2127
     22 O          13.7371   44.1061    5.5620 O.2     1  UNL1       -0.2875
     23 C          15.4179   43.2275    6.9860 C.ar    1  UNL1        0.0383
     24 C          15.7884   42.2330    7.9043 C.ar    1  UNL1        0.0030
     25 C          17.0780   42.2094    8.4435 C.ar    1  UNL1        0.0001
     26 C          18.0096   43.1811    8.0698 C.ar    1  UNL1        0.0000
     27 C          17.6517   44.1763    7.1570 C.ar    1  UNL1        0.0001
     28 C          16.3623   44.1993    6.6183 C.ar    1  UNL1        0.0030
@<TRIPOS>BOND
     1    20    19    1
     2    20    18    1
     3    20    21    1
     4     1    18    1
     5     2     3   ar
     6     4     5   ar
     7     5     9    1
     8     7    11    1
     9    12    14   ar
    10    13    12    1
    11    15    16   ar
    12    17    11   ar
    13     6     1   ar
    14    21    23    1
    15    24    25   ar
    16    26    27   ar
    17    28    23   ar
    18     9     7   am
    19     1     2   ar
    20     3     4   ar
    21     5     6   ar
    22     7     8    2
    23    11    12   ar
    24    14    15   ar
    25    16    17   ar
    26    21    22    2
    27    23    24   ar
    28    25    26   ar
    29    27    28   ar
    30     9    10    1
@<TRIPOS>MOLECULE
MolPort-001-580-100 CSSS00121683560 LN00925186 MCULE-2337673618 PubChem-2950106
 28 30 0 0 0
SMALL
GASTEIGER

@<TRIPOS>ATOM
      1 C           8.3273   41.0682    6.8884 C.ar    1  UNL1        0.1403
      2 C           8.0779   39.8960    6.1573 C.ar    1  UNL1        0.0370
      3 C           9.0778   39.3422    5.3547 C.ar    1  UNL1        0.0044
      4 C          10.3304   39.9558    5.2783 C.ar    1  UNL1        0.0149
      5 C          10.5920   41.1276    6.0038 C.ar    1  UNL1        0.0536
      6 C           9.5846   41.6754    6.8053 C.ar    1  UNL1        0.0516
      7 C          12.6667   42.2103    7.0653 C.2     1  UNL1        0.2492
      8 O          12.2658   42.0114    8.2435 O.2     1  UNL1       -0.2698
      9 N          11.8648   41.7867    5.9510 N.am    1  UNL1       -0.2803
     10 H          12.2281   41.9686    5.0543 H       1  UNL1        0.1552
     11 C          13.9675   42.8821    6.8109 C.ar    1  UNL1        0.0497
     12 C          15.1866   42.4910    7.4244 C.ar    1  UNL1       -0.0175
     13 C          15.2818   41.3594    8.3915 C.3     1  UNL1        0.0312
     14 C          16.3680   43.1793    7.1280 C.ar    1  UNL1       -0.0041
     15 C          16.3623   44.2495    6.2331 C.ar    1  UNL1       -0.0003
     16 C          15.1706   44.6414    5.6255 C.ar    1  UNL1        0.0001
     17 C          13.9855   43.9623    5.9134 C.ar    1  UNL1        0.0042
     18 O           7.3482   41.6486    7.6991 O.3     1  UNL1       -0.4713
     19 C           6.7510   43.4896    6.2585 C.3     1  UNL1        0.0559
     20 C           7.0555   43.0407    7.6759 C.3     1  UNL1        0.2267
     21 C           5.9248   43.3600    8.6077 C.2     1  UNL1        0.2127
     22 O           5.5137   44.5504    8.6511 O.2     1  UNL1       -0.2875
     23 C           5.2924   42.3368    9.4732 C.ar    1  UNL1        0.0383
     24 C           5.9710   41.8618   10.6061 C.ar    1  UNL1        0.0030
     25 C           5.3875   40.8947   11.4298 C.ar    1  UNL1        0.0001
     26 C           4.1192   40.3927   11.1278 C.ar    1  UNL1        0.0000
     27 C           3.4345   40.8576   10.0023 C.ar    1  UNL1        0.0001
     28 C           4.0186   41.8246    9.1792 C.ar    1  UNL1        0.0030
@<TRIPOS>BOND
     1    20    19    1
     2    20    18    1
     3    20    21    1
     4     1    18    1
     5     2     3   ar
     6     4     5   ar
     7     5     9    1
     8     7    11    1
     9    12    14   ar
    10    13    12    1
    11    15    16   ar
    12    17    11   ar
    13     6     1   ar
    14    21    23    1
    15    24    25   ar
    16    26    27   ar
    17    28    23   ar
    18     9     7   am
    19     1     2   ar
    20     3     4   ar
    21     5     6   ar
    22     7     8    2
    23    11    12   ar
    24    14    15   ar
    25    16    17   ar
    26    21    22    2
    27    23    24   ar
    28    25    26   ar
    29    27    28   ar
    30     9    10    1
@<TRIPOS>MOLECULE
MolPort-001-580-100 CSSS00121683560 LN00925186 MCULE-2337673618 PubChem-2950106
 28 30 0 0 0
SMALL
GASTEIGER

@<TRIPOS>ATOM
      1 C           9.5955   40.6666    7.5621 C.ar    1  UNL1        0.1403
      2 C           9.1270   40.4764    6.2525 C.ar    1  UNL1        0.0370
      3 C          10.0111   40.5429    5.1733 C.ar    1  UNL1        0.0044
      4 C          11.3660   40.7997    5.3966 C.ar    1  UNL1        0.0149
      5 C          11.8464   40.9916    6.7005 C.ar    1  UNL1        0.0536
      6 C          10.9538   40.9232    7.7757 C.ar    1  UNL1        0.0516
      7 C          13.8386   42.5412    7.1839 C.2     1  UNL1        0.2492
      8 O          13.1368   43.5873    7.1432 O.2     1  UNL1       -0.2698
      9 N          13.2299   41.2575    6.9700 N.am    1  UNL1       -0.2803
     10 H          13.8269   40.4758    7.0131 H       1  UNL1        0.1552
     11 C          15.2982   42.6179    7.4520 C.ar    1  UNL1        0.0497
     12 C          16.1627   43.5559    6.8290 C.ar    1  UNL1       -0.0175
     13 C          15.6875   44.5634    5.8371 C.3     1  UNL1        0.0312
     14 C          17.5269   43.5592    7.1395 C.ar    1  UNL1       -0.0041
     15 C          18.0496   42.6482    8.0578 C.ar    1  UNL1       -0.0003
     16 C          17.2091   41.7232    8.6749 C.ar    1  UNL1        0.0001
     17 C          15.8463   41.7102    8.3731 C.ar    1  UNL1        0.0042
     18 O           8.7370   40.6080    8.6633 O.3     1  UNL1       -0.4713
     19 C          10.2705   41.4600   10.3197 C.3     1  UNL1        0.0559
     20 C           8.8533   41.4851    9.7775 C.3     1  UNL1        0.2267
     21 C           8.4331   42.8753    9.4036 C.2     1  UNL1        0.2127
     22 O           9.3136   43.7767    9.3979 O.2     1  UNL1       -0.2875
     23 C           7.0341   43.2183    9.0558 C.ar    1  UNL1        0.0383
     24 C           6.7713   44.0778    7.9779 C.ar    1  UNL1        0.0030
     25 C           5.4565   44.4120    7.6405 C.ar    1  UNL1        0.0001
     26 C           4.3914   43.8901    8.3786 C.ar    1  UNL1        0.0000
     27 C           4.6410   43.0341    9.4541 C.ar    1  UNL1        0.0001
     28 C           5.9558   42.7003    9.7909 C.ar    1  UNL1        0.0030
@<TRIPOS>BOND
     1    20    19    1
     2    20    18    1
     3    20    21    1
     4     1    18    1
     5     2     3   ar
     6     4     5   ar
     7     5     9    1
     8     7    11    1
     9    12    14   ar
    10    13    12    1
    11    15    16   ar
    12    17    11   ar
    13     6     1   ar
    14    21    23    1
    15    24    25   ar
    16    26    27   ar
    17    28    23   ar
    18     9     7   am
    19     1     2   ar
    20     3     4   ar
    21     5     6   ar
    22     7     8    2
    23    11    12   ar
    24    14    15   ar
    25    16    17   ar
    26    21    22    2
    27    23    24   ar
    28    25    26   ar
    29    27    28   ar
    30     9    10    1
@<TRIPOS>MOLECULE
MolPort-001-580-100 CSSS00121683560 LN00925186 MCULE-2337673618 PubChem-2950106
 28 30 0 0 0
SMALL
GASTEIGER

@<TRIPOS>ATOM
      1 C           9.2183   41.3898    6.1611 C.ar    1  UNL1        0.1403
      2 C           9.0894   40.2917    5.2961 C.ar    1  UNL1        0.0370
      3 C          10.2072   39.5220    4.9662 C.ar    1  UNL1        0.0044
      4 C          11.4579   39.8451    5.4979 C.ar    1  UNL1        0.0149
      5 C          11.5998   40.9400    6.3633 C.ar    1  UNL1        0.0536
      6 C          10.4747   41.7055    6.6884 C.ar    1  UNL1        0.0516
      7 C          13.7240   42.3784    6.5123 C.2     1  UNL1        0.2492
      8 O          13.3849   43.1202    5.5514 O.2     1  UNL1       -0.2698
      9 N          12.8668   41.3034    6.9289 N.am    1  UNL1       -0.2803
     10 H          13.1832   40.7570    7.6843 H       1  UNL1        0.1552
     11 C          15.0083   42.6021    7.2256 C.ar    1  UNL1        0.0497
     12 C          15.8205   43.7513    7.0386 C.ar    1  UNL1       -0.0175
     13 C          15.4620   44.8546    6.1010 C.3     1  UNL1        0.0312
     14 C          17.0168   43.8826    7.7520 C.ar    1  UNL1       -0.0041
     15 C          17.4225   42.8937    8.6487 C.ar    1  UNL1       -0.0003
     16 C          16.6321   41.7616    8.8393 C.ar    1  UNL1        0.0001
     17 C          15.4364   41.6194    8.1332 C.ar    1  UNL1        0.0042
     18 O           8.1203   42.1809    6.5098 O.3     1  UNL1       -0.4713
     19 C           6.7097   40.2248    6.5823 C.3     1  UNL1        0.0559
     20 C           6.9326   41.6418    7.0780 C.3     1  UNL1        0.2267
     21 C           6.9893   41.6970    8.5755 C.2     1  UNL1        0.2127
     22 O           6.0259   41.2043    9.2213 O.2     1  UNL1       -0.2875
     23 C           8.1210   42.3126    9.3078 C.ar    1  UNL1        0.0383
     24 C           9.0774   41.4970    9.9320 C.ar    1  UNL1        0.0030
     25 C          10.1485   42.0643   10.6285 C.ar    1  UNL1        0.0001
     26 C          10.2730   43.4536   10.7080 C.ar    1  UNL1        0.0000
     27 C           9.3266   44.2754   10.0911 C.ar    1  UNL1        0.0001
     28 C           8.2559   43.7075    9.3949 C.ar    1  UNL1        0.0030
@<TRIPOS>BOND
     1    20    19    1
     2    20    18    1
     3    20    21    1
     4     1    18    1
     5     2     3   ar
     6     4     5   ar
     7     5     9    1
     8     7    11    1
     9    12    14   ar
    10    13    12    1
    11    15    16   ar
    12    17    11   ar
    13     6     1   ar
    14    21    23    1
    15    24    25   ar
    16    26    27   ar
    17    28    23   ar
    18     9     7   am
    19     1     2   ar
    20     3     4   ar
    21     5     6   ar
    22     7     8    2
    23    11    12   ar
    24    14    15   ar
    25    16    17   ar
    26    21    22    2
    27    23    24   ar
    28    25    26   ar
    29    27    28   ar
    30     9    10    1
@<TRIPOS>MOLECULE
MolPort-001-580-100 CSSS00121683560 LN00925186 MCULE-2337673618 PubChem-2950106
 28 30 0 0 0
SMALL
GASTEIGER

@<TRIPOS>ATOM
      1 C           8.4864   40.9876    6.2225 C.ar    1  UNL1        0.1403
      2 C           8.4064   39.6651    5.7585 C.ar    1  UNL1        0.0370
      3 C           9.5515   39.0117    5.2974 C.ar    1  UNL1        0.0044
      4 C          10.7808   39.6753    5.2974 C.ar    1  UNL1        0.0149
      5 C          10.8737   40.9970    5.7584 C.ar    1  UNL1        0.0536
      6 C           9.7216   41.6438    6.2185 C.ar    1  UNL1        0.0516
      7 C          12.8128   42.2132    6.9264 C.2     1  UNL1        0.2492
      8 O          12.3321   42.0404    8.0785 O.2     1  UNL1       -0.2698
      9 N          12.1172   41.7116    5.7737 N.am    1  UNL1       -0.2803
     10 H          12.5397   41.8762    4.8998 H       1  UNL1        0.1552
     11 C          14.0991   42.9341    6.7423 C.ar    1  UNL1        0.0497
     12 C          15.3035   42.5718    7.4007 C.ar    1  UNL1       -0.0175
     13 C          15.3966   41.4238    8.3486 C.3     1  UNL1        0.0312
     14 C          16.4719   43.3060    7.1698 C.ar    1  UNL1       -0.0041
     15 C          16.4672   44.3942    6.2968 C.ar    1  UNL1       -0.0003
     16 C          15.2898   44.7581    5.6456 C.ar    1  UNL1        0.0001
     17 C          14.1179   44.0331    5.8680 C.ar    1  UNL1        0.0042
     18 O           7.3595   41.6700    6.6887 O.3     1  UNL1       -0.4713
     19 C           6.5968   43.9575    6.6028 C.3     1  UNL1        0.0559
     20 C           7.4389   42.9325    7.3400 C.3     1  UNL1        0.2267
     21 C           7.0265   42.8142    8.7769 C.2     1  UNL1        0.2127
     22 O           7.8830   43.0837    9.6610 O.2     1  UNL1       -0.2875
     23 C           5.6669   42.3870    9.1830 C.ar    1  UNL1        0.0383
     24 C           5.4734   41.1218    9.7588 C.ar    1  UNL1        0.0030
     25 C           4.1959   40.7049   10.1441 C.ar    1  UNL1        0.0001
     26 C           3.0990   41.5495    9.9565 C.ar    1  UNL1        0.0000
     27 C           3.2795   42.8108    9.3837 C.ar    1  UNL1        0.0001
     28 C           4.5571   43.2270    8.9987 C.ar    1  UNL1        0.0030
@<TRIPOS>BOND
     1    20    19    1
     2    20    18    1
     3    20    21    1
     4     1    18    1
     5     2     3   ar
     6     4     5   ar
     7     5     9    1
     8     7    11    1
     9    12    14   ar
    10    13    12    1
    11    15    16   ar
    12    17    11   ar
    13     6     1   ar
    14    21    23    1
    15    24    25   ar
    16    26    27   ar
    17    28    23   ar
    18     9     7   am
    19     1     2   ar
    20     3     4   ar
    21     5     6   ar
    22     7     8    2
    23    11    12   ar
    24    14    15   ar
    25    16    17   ar
    26    21    22    2
    27    23    24   ar
    28    25    26   ar
    29    27    28   ar
    30     9    10    1
@<TRIPOS>MOLECULE
MolPort-001-580-100 CSSS00121683560 LN00925186 MCULE-2337673618 PubChem-2950106
 28 30 0 0 0
SMALL
GASTEIGER

@<TRIPOS>ATOM
      1 C           9.4392   40.9048    7.1540 C.ar    1  UNL1        0.1403
      2 C           9.1394   40.1350    6.0189 C.ar    1  UNL1        0.0370
      3 C          10.0769   40.0024    4.9921 C.ar    1  UNL1        0.0044
      4 C          11.3170   40.6376    5.0937 C.ar    1  UNL1        0.0149
      5 C          11.6284   41.4096    6.2228 C.ar    1  UNL1        0.0536
      6 C          10.6834   41.5370    7.2466 C.ar    1  UNL1        0.0516
      7 C          13.9441   41.7501    7.2835 C.2     1  UNL1        0.2492
      8 O          13.8086   40.7837    8.0811 O.2     1  UNL1       -0.2698
      9 N          12.8902   42.0770    6.3634 N.am    1  UNL1       -0.2803
     10 H          13.0515   42.8417    5.7648 H       1  UNL1        0.1552
     11 C          15.1884   42.5623    7.2817 C.ar    1  UNL1        0.0497
     12 C          15.3726   43.7150    6.4737 C.ar    1  UNL1       -0.0175
     13 C          14.3277   44.2273    5.5406 C.3     1  UNL1        0.0312
     14 C          16.5779   44.4228    6.5340 C.ar    1  UNL1       -0.0041
     15 C          17.6050   44.0076    7.3820 C.ar    1  UNL1       -0.0003
     16 C          17.4340   42.8771    8.1793 C.ar    1  UNL1        0.0001
     17 C          16.2359   42.1628    8.1279 C.ar    1  UNL1        0.0042
     18 O           8.5229   41.0588    8.1979 O.3     1  UNL1       -0.4713
     19 C           7.6678   43.3084    8.0268 C.3     1  UNL1        0.0559
     20 C           8.3603   42.2826    8.9050 C.3     1  UNL1        0.2267
     21 C           7.6106   42.0596   10.1845 C.2     1  UNL1        0.2127
     22 O           8.2103   42.2914   11.2682 O.2     1  UNL1       -0.2875
     23 C           6.2113   41.5728   10.2135 C.ar    1  UNL1        0.0383
     24 C           5.4476   41.5668    9.0361 C.ar    1  UNL1        0.0030
     25 C           4.1254   41.1129    9.0497 C.ar    1  UNL1        0.0001
     26 C           3.5539   40.6611   10.2417 C.ar    1  UNL1        0.0000
     27 C           4.3043   40.6631   11.4200 C.ar    1  UNL1        0.0001
     28 C           5.6262   41.1171   11.4058 C.ar    1  UNL1        0.0030
@<TRIPOS>BOND
     1    20    19    1
     2    20    18    1
     3    20    21    1
     4     1    18    1
     5     2     3   ar
     6     4     5   ar
     7     5     9    1
     8     7    11    1
     9    12    14   ar
    10    13    12    1
    11    15    16   ar
    12    17    11   ar
    13     6     1   ar
    14    21    23    1
    15    24    25   ar
    16    26    27   ar
    17    28    23   ar
    18     9     7   am
    19     1     2   ar
    20     3     4   ar
    21     5     6   ar
    22     7     8    2
    23    11    12   ar
    24    14    15   ar
    25    16    17   ar
    26    21    22    2
    27    23    24   ar
    28    25    26   ar
    29    27    28   ar
    30     9    10    1
@<TRIPOS>MOLECULE
MolPort-001-580-100 CSSS00121683560 LN00925186 MCULE-2337673618 PubChem-2950106
 28 30 0 0 0
SMALL
GASTEIGER

@<TRIPOS>ATOM
      1 C           8.7770   42.6771    8.7416 C.ar    1  UNL1        0.1403
      2 C           8.9071   43.4874    9.8806 C.ar    1  UNL1        0.0370
      3 C           9.6436   43.0411   10.9802 C.ar    1  UNL1        0.0044
      4 C          10.2531   41.7845   10.9477 C.ar    1  UNL1        0.0149
      5 C          10.1303   40.9654    9.8155 C.ar    1  UNL1        0.0536
      6 C           9.3908   41.4205    8.7185 C.ar    1  UNL1        0.0516
      7 C          12.0255   39.2886   10.2628 C.2     1  UNL1        0.2492
      8 O          12.7444   40.1377   10.8549 O.2     1  UNL1       -0.2698
      9 N          10.7408   39.6694    9.7444 N.am    1  UNL1       -0.2803
     10 H          10.2237   38.9647    9.2915 H       1  UNL1        0.1552
     11 C          12.4920   37.8881   10.0922 C.ar    1  UNL1        0.0497
     12 C          13.7380   37.5412    9.5069 C.ar    1  UNL1       -0.0175
     13 C          14.7079   38.5558    9.0021 C.3     1  UNL1        0.0312
     14 C          14.0997   36.1952    9.3846 C.ar    1  UNL1       -0.0041
     15 C          13.2472   35.1860    9.8329 C.ar    1  UNL1       -0.0003
     16 C          12.0216   35.5162   10.4090 C.ar    1  UNL1        0.0001
     17 C          11.6498   36.8555   10.5364 C.ar    1  UNL1        0.0042
     18 O           8.0459   43.0933    7.6258 O.3     1  UNL1       -0.4713
     19 C           6.4692   41.2821    7.3916 C.3     1  UNL1        0.0559
     20 C           6.6680   42.7855    7.4499 C.3     1  UNL1        0.2267
     21 C           5.8433   43.4066    8.5374 C.2     1  UNL1        0.2127
     22 O           5.8179   44.6642    8.6140 O.2     1  UNL1       -0.2875
     23 C           5.0771   42.5996    9.5160 C.ar    1  UNL1        0.0383
     24 C           3.6747   42.6513    9.5207 C.ar    1  UNL1        0.0030
     25 C           2.9394   41.8973   10.4401 C.ar    1  UNL1        0.0001
     26 C           3.6002   41.0845   11.3645 C.ar    1  UNL1        0.0000
     27 C           4.9960   41.0257   11.3696 C.ar    1  UNL1        0.0001
     28 C           5.7304   41.7797   10.4501 C.ar    1  UNL1        0.0030
@<TRIPOS>BOND
     1    20    19    1
     2    20    18    1
     3    20    21    1
     4     1    18    1
     5     2     3   ar
     6     4     5   ar
     7     5     9    1
     8     7    11    1
     9    12    14   ar
    10    13    12    1
    11    15    16   ar
    12    17    11   ar
    13     6     1   ar
    14    21    23    1
    15    24    25   ar
    16    26    27   ar
    17    28    23   ar
    18     9     7   am
    19     1     2   ar
    20     3     4   ar
    21     5     6   ar
    22     7     8    2
    23    11    12   ar
    24    14    15   ar
    25    16    17   ar
    26    21    22    2
    27    23    24   ar
    28    25    26   ar
    29    27    28   ar
    30     9    10    1
@<TRIPOS>MOLECULE
MolPort-001-580-100 CSSS00121683560 LN00925186 MCULE-2337673618 PubChem-2950106
 28 30 0 0 0
SMALL
GASTEIGER

@<TRIPOS>ATOM
      1 C           8.4107   40.8483    6.7073 C.ar    1  UNL1        0.1403
      2 C           8.2282   39.8144    5.7754 C.ar    1  UNL1        0.0370
      3 C           9.2401   39.5028    4.8644 C.ar    1  UNL1        0.0044
      4 C          10.4378   40.2217    4.8796 C.ar    1  UNL1        0.0149
      5 C          10.6322   41.2571    5.8058 C.ar    1  UNL1        0.0536
      6 C           9.6133   41.5624    6.7148 C.ar    1  UNL1        0.0516
      7 C          12.9689   41.8044    6.7245 C.2     1  UNL1        0.2492
      8 O          12.9465   40.8639    7.5631 O.2     1  UNL1       -0.2698
      9 N          11.8472   42.0178    5.8524 N.am    1  UNL1       -0.2803
     10 H          11.9206   42.7673    5.2182 H       1  UNL1        0.1552
     11 C          14.1485   42.7026    6.6245 C.ar    1  UNL1        0.0497
     12 C          15.3261   42.5415    7.4009 C.ar    1  UNL1       -0.0175
     13 C          15.4959   41.4473    8.4003 C.3     1  UNL1        0.0312
     14 C          16.3919   43.4340    7.2434 C.ar    1  UNL1       -0.0041
     15 C          16.3109   44.4844    6.3288 C.ar    1  UNL1       -0.0003
     16 C          15.1590   44.6511    5.5618 C.ar    1  UNL1        0.0001
     17 C          14.0891   43.7670    5.7101 C.ar    1  UNL1        0.0042
     18 O           7.4178   41.1860    7.6309 O.3     1  UNL1       -0.4713
     19 C           9.0052   41.5161    9.4177 C.3     1  UNL1        0.0559
     20 C           7.6043   41.0741    9.0369 C.3     1  UNL1        0.2267
     21 C           6.5613   41.8601    9.7739 C.2     1  UNL1        0.2127
     22 O           6.3960   41.6179   10.9995 O.2     1  UNL1       -0.2875
     23 C           5.7249   42.8897    9.1134 C.ar    1  UNL1        0.0383
     24 C           6.3252   43.8628    8.2997 C.ar    1  UNL1        0.0030
     25 C           5.5486   44.8417    7.6728 C.ar    1  UNL1        0.0001
     26 C           4.1635   44.8570    7.8542 C.ar    1  UNL1        0.0000
     27 C           3.5550   43.8936    8.6625 C.ar    1  UNL1        0.0001
     28 C           4.3321   42.9152    9.2891 C.ar    1  UNL1        0.0030
@<TRIPOS>BOND
     1    20    19    1
     2    20    18    1
     3    20    21    1
     4     1    18    1
     5     2     3   ar
     6     4     5   ar
     7     5     9    1
     8     7    11    1
     9    12    14   ar
    10    13    12    1
    11    15    16   ar
    12    17    11   ar
    13     6     1   ar
    14    21    23    1
    15    24    25   ar
    16    26    27   ar
    17    28    23   ar
    18     9     7   am
    19     1     2   ar
    20     3     4   ar
    21     5     6   ar
    22     7     8    2
    23    11    12   ar
    24    14    15   ar
    25    16    17   ar
    26    21    22    2
    27    23    24   ar
    28    25    26   ar
    29    27    28   ar
    30     9    10    1
@<TRIPOS>MOLECULE
MolPort-001-580-100 CSSS00121683560 LN00925186 MCULE-2337673618 PubChem-2950106
 28 30 0 0 0
SMALL
GASTEIGER

@<TRIPOS>ATOM
      1 C          11.4985   40.9108    9.6278 C.ar    1  UNL1        0.1403
      2 C          11.7020   40.5170   10.9598 C.ar    1  UNL1        0.0370
      3 C          10.7395   40.8008   11.9313 C.ar    1  UNL1        0.0044
      4 C           9.5703   41.4787   11.5776 C.ar    1  UNL1        0.0149
      5 C           9.3553   41.8775   10.2500 C.ar    1  UNL1        0.0536
      6 C          10.3247   41.5891    9.2833 C.ar    1  UNL1        0.0516
      7 C           7.1205   42.0819    8.9981 C.2     1  UNL1        0.2492
      8 O           7.1908   40.9178    8.5201 O.2     1  UNL1       -0.2698
      9 N           8.1684   42.5753    9.8481 N.am    1  UNL1       -0.2803
     10 H           8.0601   43.4914   10.1920 H       1  UNL1        0.1552
     11 C           5.9599   42.9579    8.6920 C.ar    1  UNL1        0.0497
     12 C           4.6864   42.8161    9.3032 C.ar    1  UNL1       -0.0175
     13 C           4.3864   41.7665   10.3196 C.3     1  UNL1        0.0312
     14 C           3.6465   43.6855    8.9564 C.ar    1  UNL1       -0.0041
     15 C           3.8471   44.6941    8.0136 C.ar    1  UNL1       -0.0003
     16 C           5.0937   44.8415    7.4077 C.ar    1  UNL1        0.0001
     17 C           6.1388   43.9801    7.7455 C.ar    1  UNL1        0.0042
     18 O          12.4422   40.6437    8.6323 O.3     1  UNL1       -0.4713
     19 C          14.6976   39.8477    8.9499 C.3     1  UNL1        0.0559
     20 C          13.8014   41.0526    8.7307 C.3     1  UNL1        0.2267
     21 C          14.2110   41.8274    7.5139 C.2     1  UNL1        0.2127
     22 O          13.4356   41.8201    6.5207 O.2     1  UNL1       -0.2875
     23 C          15.4846   42.5815    7.4408 C.ar    1  UNL1        0.0383
     24 C          15.6350   43.6119    6.4999 C.ar    1  UNL1        0.0030
     25 C          16.8319   44.3296    6.4181 C.ar    1  UNL1        0.0001
     26 C          17.8905   44.0231    7.2767 C.ar    1  UNL1        0.0000
     27 C          17.7523   42.9991    8.2169 C.ar    1  UNL1        0.0001
     28 C          16.5554   42.2819    8.2981 C.ar    1  UNL1        0.0030
@<TRIPOS>BOND
     1    20    19    1
     2    20    18    1
     3    20    21    1
     4     1    18    1
     5     2     3   ar
     6     4     5   ar
     7     5     9    1
     8     7    11    1
     9    12    14   ar
    10    13    12    1
    11    15    16   ar
    12    17    11   ar
    13     6     1   ar
    14    21    23    1
    15    24    25   ar
    16    26    27   ar
    17    28    23   ar
    18     9     7   am
    19     1     2   ar
    20     3     4   ar
    21     5     6   ar
    22     7     8    2
    23    11    12   ar
    24    14    15   ar
    25    16    17   ar
    26    21    22    2
    27    23    24   ar
    28    25    26   ar
    29    27    28   ar
    30     9    10    1
@<TRIPOS>MOLECULE
MolPort-001-580-100 CSSS00121683560 LN00925186 MCULE-2337673618 PubChem-2950106
 28 30 0 0 0
SMALL
GASTEIGER

@<TRIPOS>ATOM
      1 C           8.9972   41.3131    5.8192 C.ar    1  UNL1        0.1403
      2 C           8.7671   39.9909    5.4072 C.ar    1  UNL1        0.0370
      3 C           9.8372   39.1068    5.2527 C.ar    1  UNL1        0.0044
      4 C          11.1409   39.5384    5.5083 C.ar    1  UNL1        0.0149
      5 C          11.3839   40.8571    5.9204 C.ar    1  UNL1        0.0536
      6 C          10.3060   41.7360    6.0727 C.ar    1  UNL1        0.0516
      7 C          13.1744   41.9489    7.4055 C.2     1  UNL1        0.2492
      8 O          12.3853   42.1106    8.3749 O.2     1  UNL1       -0.2698
      9 N          12.7078   41.3374    6.1920 N.am    1  UNL1       -0.2803
     10 H          13.3681   41.2373    5.4687 H       1  UNL1        0.1552
     11 C          14.5916   42.3855    7.5011 C.ar    1  UNL1        0.0497
     12 C          15.5609   41.7346    8.3086 C.ar    1  UNL1       -0.0175
     13 C          15.2497   40.5403    9.1463 C.3     1  UNL1        0.0312
     14 C          16.8756   42.2123    8.3404 C.ar    1  UNL1       -0.0041
     15 C          17.2466   43.3249    7.5849 C.ar    1  UNL1       -0.0003
     16 C          16.3022   43.9710    6.7889 C.ar    1  UNL1        0.0001
     17 C          14.9875   43.5037    6.7491 C.ar    1  UNL1        0.0042
     18 O           7.9490   42.2229    5.9817 O.3     1  UNL1       -0.4713
     19 C           6.6641   40.4545    7.0030 C.3     1  UNL1        0.0559
     20 C           6.8114   41.9500    6.7914 C.3     1  UNL1        0.2267
     21 C           6.9021   42.6828    8.0967 C.2     1  UNL1        0.2127
     22 O           7.7673   43.5926    8.2040 O.2     1  UNL1       -0.2875
     23 C           6.0260   42.3681    9.2496 C.ar    1  UNL1        0.0383
     24 C           4.6809   42.7684    9.2366 C.ar    1  UNL1        0.0030
     25 C           3.8440   42.4806   10.3187 C.ar    1  UNL1        0.0001
     26 C           4.3446   41.7898   11.4250 C.ar    1  UNL1        0.0000
     27 C           5.6821   41.3870   11.4493 C.ar    1  UNL1        0.0001
     28 C           6.5183   41.6751   10.3671 C.ar    1  UNL1        0.0030
@<TRIPOS>BOND
     1    20    19    1
     2    20    18    1
     3    20    21    1
     4     1    18    1
     5     2     3   ar
     6     4     5   ar
     7     5     9    1
     8     7    11    1
     9    12    14   ar
    10    13    12    1
    11    15    16   ar
    12    17    11   ar
    13     6     1   ar
    14    21    23    1
    15    24    25   ar
    16    26    27   ar
    17    28    23   ar
    18     9     7   am
    19     1     2   ar
    20     3     4   ar
    21     5     6   ar
    22     7     8    2
    23    11    12   ar
    24    14    15   ar
    25    16    17   ar
    26    21    22    2
    27    23    24   ar
    28    25    26   ar
    29    27    28   ar
    30     9    10    1
