@<TRIPOS>MOLECULE
MolPort-005-135-936 CSSS00159791909 MCULE-2900330182 PubChem-45238205
 35 38 0 0 0
SMALL
GASTEIGER

@<TRIPOS>ATOM
      1 C          11.2052   41.1554    5.8170 C.ar    1  UNL1        0.1326
      2 C          11.0540   40.2783    4.7593 C.ar    1  UNL1        0.0565
      3 C          10.0791   39.3948    5.2111 C.ar    1  UNL1        0.1230
      4 N           9.6914   39.7411    6.4571 N.ar    1  UNL1       -0.1666
      5 N          10.3790   40.8115    6.8135 N.ar    1  UNL1       -0.2394
      6 C          10.2603   41.4811    8.1026 C.3     1  UNL1        0.1093
      7 C          10.2475   40.4499    9.2209 C.3     1  UNL1        0.0418
      8 C          10.0787   41.1336   10.5769 C.3     1  UNL1        0.0744
      9 C           8.8224   42.9760    9.5080 C.3     1  UNL1        0.0744
     10 C           8.9827   42.3060    8.1441 C.3     1  UNL1        0.0418
     11 N           8.9081   42.0231   10.6253 N.3     1  UNL1       -0.2688
     12 C           7.6416   41.3406   10.9374 C.3     1  UNL1        0.0991
     13 C           6.4297   41.9491   10.2967 C.ar    1  UNL1       -0.0066
     14 C           5.1656   41.7567   10.8633 C.ar    1  UNL1       -0.0042
     15 C           4.0362   42.3417   10.2841 C.ar    1  UNL1        0.0113
     16 C           2.7007   42.1024   10.8982 C.3     1  UNL1        0.0342
     17 C           4.1709   43.1423    9.1383 C.ar    1  UNL1        0.1256
     18 C           5.4443   43.3605    8.5882 C.ar    1  UNL1        0.0113
     19 C           5.6205   44.2153    7.3814 C.3     1  UNL1        0.0342
     20 C           6.5680   42.7715    9.1741 C.ar    1  UNL1       -0.0042
     21 O           3.0479   43.7211    8.5536 O.3     1  UNL1       -0.5061
     22 H           3.1403   44.2550    7.7891 H       1  UNL1        0.2922
     23 C          13.3345   42.3085    6.6132 C.2     1  UNL1        0.2587
     24 O          13.7285   41.3039    7.2658 O.2     1  UNL1       -0.2717
     25 N          12.1032   42.2705    5.8822 N.am    1  UNL1       -0.2673
     26 H          11.8522   43.0800    5.3814 H       1  UNL1        0.1563
     27 C          14.1529   43.5667    6.5942 C.3     1  UNL1        0.2135
     28 C          15.5229   43.3232    7.1488 C.ar    1  UNL1        0.0134
     29 C          15.7457   42.2028    7.9567 C.ar    1  UNL1       -0.0015
     30 C          17.0191   41.9541    8.4776 C.ar    1  UNL1       -0.0002
     31 C          18.0743   42.8254    8.1916 C.ar    1  UNL1       -0.0000
     32 C          17.8571   43.9460    7.3847 C.ar    1  UNL1       -0.0002
     33 C          16.5841   44.1957    6.8633 C.ar    1  UNL1       -0.0015
     34 C          14.8178   45.3575    5.4710 C.3     1  UNL1        0.1751
     35 O          14.2402   44.0980    5.3024 O.3     1  UNL1       -0.3400
@<TRIPOS>BOND
     1    34    35    1
     2    27    35    1
     3    27    23    1
     4    27    28    1
     5    23    25   am
     6     2     3   ar
     7     6     5    1
     8     6     7    1
     9     7     8    1
    10     8    11    1
    11    12    11    1
    12    12    13    1
    13    14    15   ar
    14    16    15    1
    15    17    21    1
    16    17    18   ar
    17    19    18    1
    18    20    13   ar
    19     9    11    1
    20     9    10    1
    21    10     6    1
    22    29    30   ar
    23    31    32   ar
    24    33    28   ar
    25    25     1    1
    26     5     4   ar
    27     5     1   ar
    28    23    24    2
    29     1     2   ar
    30     3     4   ar
    31    13    14   ar
    32    15    17   ar
    33    18    20   ar
    34    28    29   ar
    35    30    31   ar
    36    32    33   ar
    37    21    22    1
    38    25    26    1
@<TRIPOS>MOLECULE
MolPort-005-135-936 CSSS00159791909 MCULE-2900330182 PubChem-45238205
 35 38 0 0 0
SMALL
GASTEIGER

@<TRIPOS>ATOM
      1 C           9.0565   41.1813   11.0815 C.ar    1  UNL1        0.1326
      2 C           8.6589   41.5354   12.3572 C.ar    1  UNL1        0.0565
      3 C           9.7951   41.3012   13.1248 C.ar    1  UNL1        0.1230
      4 N          10.7898   40.8380   12.3382 N.ar    1  UNL1       -0.1666
      5 N          10.3316   40.7716   11.1009 N.ar    1  UNL1       -0.2394
      6 C          11.1010   40.2994    9.9567 C.3     1  UNL1        0.1093
      7 C          12.2134   39.3751   10.4284 C.3     1  UNL1        0.0418
      8 C          13.0574   38.9063    9.2441 C.3     1  UNL1        0.0744
      9 C          12.5422   40.9981    8.0300 C.3     1  UNL1        0.0744
     10 C          11.6938   41.4819    9.2052 C.3     1  UNL1        0.0418
     11 N          13.5662   40.0207    8.4298 N.3     1  UNL1       -0.2688
     12 C          14.8115   40.6211    8.9358 C.3     1  UNL1        0.0991
     13 C          15.3225   41.7754    8.1258 C.ar    1  UNL1       -0.0066
     14 C          14.5134   42.3557    7.1437 C.ar    1  UNL1       -0.0042
     15 C          14.9755   43.4471    6.4030 C.ar    1  UNL1        0.0113
     16 C          14.0993   44.0313    5.3500 C.3     1  UNL1        0.0342
     17 C          16.2508   43.9773    6.6568 C.ar    1  UNL1        0.1256
     18 C          17.0503   43.4137    7.6644 C.ar    1  UNL1        0.0113
     19 C          18.4017   43.9623    7.9656 C.3     1  UNL1        0.0342
     20 C          16.5799   42.3226    8.4000 C.ar    1  UNL1       -0.0042
     21 O          16.7183   45.0596    5.9165 O.3     1  UNL1       -0.5061
     22 H          17.5696   45.4116    6.0878 H       1  UNL1        0.2922
     23 C           8.1316   42.3436    9.0100 C.2     1  UNL1        0.2587
     24 O           8.7642   43.4121    9.2305 O.2     1  UNL1       -0.2717
     25 N           8.2562   41.2229    9.8933 N.am    1  UNL1       -0.2673
     26 H           7.7483   40.4112    9.6645 H       1  UNL1        0.1563
     27 C           7.2322   42.2303    7.8136 C.3     1  UNL1        0.2135
     28 C           5.9739   43.0182    8.0125 C.ar    1  UNL1        0.0134
     29 C           5.0050   42.5477    8.9055 C.ar    1  UNL1       -0.0015
     30 C           3.8272   43.2726    9.1107 C.ar    1  UNL1       -0.0002
     31 C           3.6150   44.4713    8.4233 C.ar    1  UNL1       -0.0000
     32 C           4.5800   44.9460    7.5303 C.ar    1  UNL1       -0.0002
     33 C           5.7580   44.2218    7.3244 C.ar    1  UNL1       -0.0015
     34 C           8.6006   41.5242    6.2200 C.3     1  UNL1        0.1751
     35 O           7.8836   42.6435    6.6459 O.3     1  UNL1       -0.3400
@<TRIPOS>BOND
     1    34    35    1
     2    27    35    1
     3    27    23    1
     4    27    28    1
     5    23    25   am
     6     2     3   ar
     7     6     5    1
     8     6     7    1
     9     7     8    1
    10     8    11    1
    11    12    11    1
    12    12    13    1
    13    14    15   ar
    14    16    15    1
    15    17    21    1
    16    17    18   ar
    17    19    18    1
    18    20    13   ar
    19     9    11    1
    20     9    10    1
    21    10     6    1
    22    29    30   ar
    23    31    32   ar
    24    33    28   ar
    25    25     1    1
    26     5     4   ar
    27     5     1   ar
    28    23    24    2
    29     1     2   ar
    30     3     4   ar
    31    13    14   ar
    32    15    17   ar
    33    18    20   ar
    34    28    29   ar
    35    30    31   ar
    36    32    33   ar
    37    21    22    1
    38    25    26    1
@<TRIPOS>MOLECULE
MolPort-005-135-936 CSSS00159791909 MCULE-2900330182 PubChem-45238205
 35 38 0 0 0
SMALL
GASTEIGER

@<TRIPOS>ATOM
      1 C           8.8800   41.2920   11.3079 C.ar    1  UNL1        0.1326
      2 C           8.6188   41.5706   12.6364 C.ar    1  UNL1        0.0565
      3 C           9.8300   41.3019   13.2655 C.ar    1  UNL1        0.1230
      4 N          10.7368   40.8911   12.3535 N.ar    1  UNL1       -0.1666
      5 N          10.1505   40.8912   11.1695 N.ar    1  UNL1       -0.2394
      6 C          10.7954   40.4900    9.9256 C.3     1  UNL1        0.1093
      7 C          11.8097   39.3901   10.2011 C.3     1  UNL1        0.0418
      8 C          12.5268   38.9891    8.9130 C.3     1  UNL1        0.0744
      9 C          12.2084   41.2685    8.0086 C.3     1  UNL1        0.0744
     10 C          11.4882   41.6860    9.2900 C.3     1  UNL1        0.0418
     11 N          13.1247   40.1360    8.2123 N.3     1  UNL1       -0.2688
     12 C          14.4588   40.5175    8.7040 C.3     1  UNL1        0.0991
     13 C          15.0587   41.7106    8.0211 C.ar    1  UNL1       -0.0066
     14 C          16.3175   42.1810    8.4084 C.ar    1  UNL1       -0.0042
     15 C          16.8916   43.2773    7.7589 C.ar    1  UNL1        0.0113
     16 C          18.2243   43.7683    8.2067 C.3     1  UNL1        0.0342
     17 C          16.2117   43.8997    6.6996 C.ar    1  UNL1        0.1256
     18 C          14.9617   43.4072    6.2908 C.ar    1  UNL1        0.0113
     19 C          14.2226   44.0380    5.1621 C.3     1  UNL1        0.0342
     20 C          14.3954   42.3106    6.9461 C.ar    1  UNL1       -0.0042
     21 O          16.7763   44.9965    6.0545 O.3     1  UNL1       -0.5061
     22 H          16.3207   45.4101    5.3478 H       1  UNL1        0.2922
     23 C           7.8509   42.5047    9.3159 C.2     1  UNL1        0.2587
     24 O           8.6112   43.5042    9.4312 O.2     1  UNL1       -0.2717
     25 N           7.9586   41.3947   10.2149 N.am    1  UNL1       -0.2673
     26 H           7.3470   40.6371   10.0695 H       1  UNL1        0.1563
     27 C           6.8147   42.4637    8.2307 C.3     1  UNL1        0.2135
     28 C           5.4490   42.2352    8.8020 C.ar    1  UNL1        0.0134
     29 C           4.5821   43.3219    8.9602 C.ar    1  UNL1       -0.0015
     30 C           3.3006   43.1281    9.4844 C.ar    1  UNL1       -0.0002
     31 C           2.8817   41.8459    9.8518 C.ar    1  UNL1       -0.0000
     32 C           3.7438   40.7566    9.6955 C.ar    1  UNL1       -0.0002
     33 C           5.0255   40.9495    9.1713 C.ar    1  UNL1       -0.0015
     34 C           7.0491   43.2073    6.1564 C.3     1  UNL1        0.1751
     35 O           6.8308   43.6361    7.4667 O.3     1  UNL1       -0.3400
@<TRIPOS>BOND
     1    34    35    1
     2    27    35    1
     3    27    23    1
     4    27    28    1
     5    23    25   am
     6     2     3   ar
     7     6     5    1
     8     6     7    1
     9     7     8    1
    10     8    11    1
    11    12    11    1
    12    12    13    1
    13    14    15   ar
    14    16    15    1
    15    17    21    1
    16    17    18   ar
    17    19    18    1
    18    20    13   ar
    19     9    11    1
    20     9    10    1
    21    10     6    1
    22    29    30   ar
    23    31    32   ar
    24    33    28   ar
    25    25     1    1
    26     5     4   ar
    27     5     1   ar
    28    23    24    2
    29     1     2   ar
    30     3     4   ar
    31    13    14   ar
    32    15    17   ar
    33    18    20   ar
    34    28    29   ar
    35    30    31   ar
    36    32    33   ar
    37    21    22    1
    38    25    26    1
@<TRIPOS>MOLECULE
MolPort-005-135-936 CSSS00159791909 MCULE-2900330182 PubChem-45238205
 35 38 0 0 0
SMALL
GASTEIGER

@<TRIPOS>ATOM
      1 C          13.4916   40.1101    9.3417 C.ar    1  UNL1        0.1326
      2 C          14.1047   38.8717    9.3742 C.ar    1  UNL1        0.0565
      3 C          13.2057   38.0864   10.0886 C.ar    1  UNL1        0.1230
      4 N          12.1370   38.8287   10.4484 N.ar    1  UNL1       -0.1666
      5 N          12.3198   40.0536    9.9881 N.ar    1  UNL1       -0.2394
      6 C          11.3922   41.1601   10.1862 C.3     1  UNL1        0.1093
      7 C          10.6124   40.9557   11.4763 C.3     1  UNL1        0.0418
      8 C           9.6034   42.0854   11.6760 C.3     1  UNL1        0.0744
      9 C           9.4238   42.3778    9.2271 C.3     1  UNL1        0.0744
     10 C          10.4321   41.2506    9.0095 C.3     1  UNL1        0.0418
     11 N           8.7203   42.2733   10.5147 N.3     1  UNL1       -0.2688
     12 C           7.5491   41.3817   10.4941 C.3     1  UNL1        0.0991
     13 C           6.3032   41.9997    9.9323 C.ar    1  UNL1       -0.0066
     14 C           5.0471   41.5617   10.3637 C.ar    1  UNL1       -0.0042
     15 C           3.8835   42.1509    9.8616 C.ar    1  UNL1        0.0113
     16 C           2.5597   41.6498   10.3245 C.3     1  UNL1        0.0342
     17 C           3.9736   43.2006    8.9333 C.ar    1  UNL1        0.1256
     18 C           5.2356   43.6608    8.5241 C.ar    1  UNL1        0.0113
     19 C           5.3633   44.7809    7.5509 C.3     1  UNL1        0.0342
     20 C           6.3937   43.0656    9.0315 C.ar    1  UNL1       -0.0042
     21 O           2.8172   43.7857    8.4248 O.3     1  UNL1       -0.5061
     22 H           2.8798   44.4860    7.8054 H       1  UNL1        0.2922
     23 C          13.6982   41.7523    7.4032 C.2     1  UNL1        0.2587
     24 O          12.9122   41.0999    6.6635 O.2     1  UNL1       -0.2717
     25 N          14.0009   41.3012    8.7285 N.am    1  UNL1       -0.2673
     26 H          14.6114   41.8573    9.2645 H       1  UNL1        0.1563
     27 C          14.3334   43.0168    6.9024 C.3     1  UNL1        0.2135
     28 C          15.7835   43.0716    7.2738 C.ar    1  UNL1        0.0134
     29 C          16.5692   44.1331    6.8119 C.ar    1  UNL1       -0.0015
     30 C          17.9229   44.2062    7.1539 C.ar    1  UNL1       -0.0002
     31 C          18.4951   43.2176    7.9599 C.ar    1  UNL1       -0.0000
     32 C          17.7144   42.1551    8.4244 C.ar    1  UNL1       -0.0002
     33 C          16.3607   42.0810    8.0829 C.ar    1  UNL1       -0.0015
     34 C          14.0899   44.5238    5.2962 C.3     1  UNL1        0.1751
     35 O          14.1823   43.1487    5.5174 O.3     1  UNL1       -0.3400
@<TRIPOS>BOND
     1    34    35    1
     2    27    35    1
     3    27    23    1
     4    27    28    1
     5    23    25   am
     6     2     3   ar
     7     6     5    1
     8     6     7    1
     9     7     8    1
    10     8    11    1
    11    12    11    1
    12    12    13    1
    13    14    15   ar
    14    16    15    1
    15    17    21    1
    16    17    18   ar
    17    19    18    1
    18    20    13   ar
    19     9    11    1
    20     9    10    1
    21    10     6    1
    22    29    30   ar
    23    31    32   ar
    24    33    28   ar
    25    25     1    1
    26     5     4   ar
    27     5     1   ar
    28    23    24    2
    29     1     2   ar
    30     3     4   ar
    31    13    14   ar
    32    15    17   ar
    33    18    20   ar
    34    28    29   ar
    35    30    31   ar
    36    32    33   ar
    37    21    22    1
    38    25    26    1
@<TRIPOS>MOLECULE
MolPort-005-135-936 CSSS00159791909 MCULE-2900330182 PubChem-45238205
 35 38 0 0 0
SMALL
GASTEIGER

@<TRIPOS>ATOM
      1 C           9.2369   40.9414   10.4944 C.ar    1  UNL1        0.1326
      2 C           8.6016   41.4831   11.5961 C.ar    1  UNL1        0.0565
      3 C           9.5744   41.4254   12.5888 C.ar    1  UNL1        0.1230
      4 N          10.7045   40.8811   12.0894 N.ar    1  UNL1       -0.1666
      5 N          10.4892   40.5937   10.8179 N.ar    1  UNL1       -0.2394
      6 C          11.4657   39.9725    9.9321 C.3     1  UNL1        0.1093
      7 C          12.5882   39.3552   10.7527 C.3     1  UNL1        0.0418
      8 C          13.6436   38.7382    9.8363 C.3     1  UNL1        0.0744
      9 C          13.0938   40.3816    8.0722 C.3     1  UNL1        0.0744
     10 C          12.0338   41.0102    8.9755 C.3     1  UNL1        0.0418
     11 N          14.1456   39.6834    8.8272 N.3     1  UNL1       -0.2688
     12 C          15.2308   40.5571    9.3028 C.3     1  UNL1        0.0991
     13 C          15.5625   41.6969    8.3859 C.ar    1  UNL1       -0.0066
     14 C          16.8122   42.3196    8.4650 C.ar    1  UNL1       -0.0042
     15 C          17.1355   43.3659    7.5967 C.ar    1  UNL1        0.0113
     16 C          18.4663   44.0233    7.7179 C.3     1  UNL1        0.0342
     17 C          16.2098   43.7835    6.6268 C.ar    1  UNL1        0.1256
     18 C          14.9672   43.1370    6.5275 C.ar    1  UNL1        0.0113
     19 C          13.9701   43.5487    5.5007 C.3     1  UNL1        0.0342
     20 C          14.6527   42.0917    7.4001 C.ar    1  UNL1       -0.0042
     21 O          16.5245   44.8301    5.7645 O.3     1  UNL1       -0.5061
     22 H          15.9052   45.1070    5.1181 H       1  UNL1        0.2922
     23 C           8.3497   41.7979    8.2635 C.2     1  UNL1        0.2587
     24 O           8.5628   43.0066    8.5531 O.2     1  UNL1       -0.2717
     25 N           8.6753   40.7544    9.1891 N.am    1  UNL1       -0.2673
     26 H           8.4982   39.8288    8.9041 H       1  UNL1        0.1563
     27 C           7.7465   41.4326    6.9384 C.3     1  UNL1        0.2135
     28 C           8.7618   40.7852    6.0475 C.ar    1  UNL1        0.0134
     29 C           8.4690   39.5497    5.4599 C.ar    1  UNL1       -0.0015
     30 C           9.4005   38.9329    4.6193 C.ar    1  UNL1       -0.0002
     31 C          10.6282   39.5506    4.3631 C.ar    1  UNL1       -0.0000
     32 C          10.9255   40.7853    4.9474 C.ar    1  UNL1       -0.0002
     33 C           9.9948   41.4028    5.7882 C.ar    1  UNL1       -0.0015
     34 C           5.8527   41.2192    8.0692 C.3     1  UNL1        0.1751
     35 O           6.6367   40.5949    7.0977 O.3     1  UNL1       -0.3400
@<TRIPOS>BOND
     1    34    35    1
     2    27    35    1
     3    27    23    1
     4    27    28    1
     5    23    25   am
     6     2     3   ar
     7     6     5    1
     8     6     7    1
     9     7     8    1
    10     8    11    1
    11    12    11    1
    12    12    13    1
    13    14    15   ar
    14    16    15    1
    15    17    21    1
    16    17    18   ar
    17    19    18    1
    18    20    13   ar
    19     9    11    1
    20     9    10    1
    21    10     6    1
    22    29    30   ar
    23    31    32   ar
    24    33    28   ar
    25    25     1    1
    26     5     4   ar
    27     5     1   ar
    28    23    24    2
    29     1     2   ar
    30     3     4   ar
    31    13    14   ar
    32    15    17   ar
    33    18    20   ar
    34    28    29   ar
    35    30    31   ar
    36    32    33   ar
    37    21    22    1
    38    25    26    1
@<TRIPOS>MOLECULE
MolPort-005-135-936 CSSS00159791909 MCULE-2900330182 PubChem-45238205
 35 38 0 0 0
SMALL
GASTEIGER

@<TRIPOS>ATOM
      1 C          11.7313   41.1861    6.9908 C.ar    1  UNL1        0.1326
      2 C          11.6044   40.7972    5.6704 C.ar    1  UNL1        0.0565
      3 C          10.2518   40.9881    5.4076 C.ar    1  UNL1        0.1230
      4 N           9.6341   41.4584    6.5121 N.ar    1  UNL1       -0.1666
      5 N          10.5413   41.5769    7.4653 N.ar    1  UNL1       -0.2394
      6 C          10.2643   42.0377    8.8199 C.3     1  UNL1        0.1093
      7 C          10.2571   40.8548    9.7764 C.3     1  UNL1        0.0418
      8 C           9.9240   41.3157   11.1945 C.3     1  UNL1        0.0744
      9 C           8.5950   43.1936   10.2878 C.3     1  UNL1        0.0744
     10 C           8.9190   42.7468    8.8629 C.3     1  UNL1        0.0418
     11 N           8.6786   42.0956   11.2630 N.3     1  UNL1       -0.2688
     12 C           7.4576   41.2792   11.3616 C.3     1  UNL1        0.0991
     13 C           6.2602   41.8600   10.6698 C.ar    1  UNL1       -0.0066
     14 C           4.9911   41.7401   11.2452 C.ar    1  UNL1       -0.0042
     15 C           3.8757   42.3006   10.6169 C.ar    1  UNL1        0.0113
     16 C           2.5341   42.1393   11.2430 C.3     1  UNL1        0.0342
     17 C           4.0297   43.0041    9.4114 C.ar    1  UNL1        0.1256
     18 C           5.3087   43.1508    8.8504 C.ar    1  UNL1        0.0113
     19 C           5.5055   43.9025    7.5798 C.3     1  UNL1        0.0342
     20 C           6.4183   42.5869    9.4857 C.ar    1  UNL1       -0.0042
     21 O           2.9205   43.5578    8.7781 O.3     1  UNL1       -0.5061
     22 H           3.0258   44.0268    7.9738 H       1  UNL1        0.2922
     23 C          13.6170   40.0118    8.2409 C.2     1  UNL1        0.2587
     24 O          13.1879   38.8585    7.9648 O.2     1  UNL1       -0.2717
     25 N          12.9322   41.1796    7.7731 N.am    1  UNL1       -0.2673
     26 H          13.3199   42.0532    8.0092 H       1  UNL1        0.1563
     27 C          14.8571   40.1790    9.0700 C.3     1  UNL1        0.2135
     28 C          15.7059   41.2961    8.5453 C.ar    1  UNL1        0.0134
     29 C          17.0324   41.4087    8.9758 C.ar    1  UNL1       -0.0015
     30 C          17.8431   42.4399    8.4919 C.ar    1  UNL1       -0.0002
     31 C          17.3294   43.3619    7.5751 C.ar    1  UNL1       -0.0000
     32 C          16.0048   43.2536    7.1415 C.ar    1  UNL1       -0.0002
     33 C          15.1934   42.2228    7.6249 C.ar    1  UNL1       -0.0015
     34 C          13.5548   39.4596   10.7123 C.3     1  UNL1        0.1751
     35 O          14.5438   40.3990   10.4161 O.3     1  UNL1       -0.3400
@<TRIPOS>BOND
     1    34    35    1
     2    27    35    1
     3    27    23    1
     4    27    28    1
     5    23    25   am
     6     2     3   ar
     7     6     5    1
     8     6     7    1
     9     7     8    1
    10     8    11    1
    11    12    11    1
    12    12    13    1
    13    14    15   ar
    14    16    15    1
    15    17    21    1
    16    17    18   ar
    17    19    18    1
    18    20    13   ar
    19     9    11    1
    20     9    10    1
    21    10     6    1
    22    29    30   ar
    23    31    32   ar
    24    33    28   ar
    25    25     1    1
    26     5     4   ar
    27     5     1   ar
    28    23    24    2
    29     1     2   ar
    30     3     4   ar
    31    13    14   ar
    32    15    17   ar
    33    18    20   ar
    34    28    29   ar
    35    30    31   ar
    36    32    33   ar
    37    21    22    1
    38    25    26    1
@<TRIPOS>MOLECULE
MolPort-005-135-936 CSSS00159791909 MCULE-2900330182 PubChem-45238205
 35 38 0 0 0
SMALL
GASTEIGER

@<TRIPOS>ATOM
      1 C          14.1405   41.3474    8.1566 C.ar    1  UNL1        0.1326
      2 C          15.0083   42.1401    7.4290 C.ar    1  UNL1        0.0565
      3 C          14.1634   43.0494    6.8010 C.ar    1  UNL1        0.1230
      4 N          12.8828   42.7955    7.1452 N.ar    1  UNL1       -0.1666
      5 N          12.8810   41.7630    7.9694 N.ar    1  UNL1       -0.2394
      6 C          11.6837   41.1694    8.5511 C.3     1  UNL1        0.1093
      7 C          10.4742   41.4950    7.6879 C.3     1  UNL1        0.0418
      8 C           9.2032   40.9170    8.3083 C.3     1  UNL1        0.0744
      9 C          10.1937   41.1222   10.5648 C.3     1  UNL1        0.0744
     10 C          11.4723   41.7012    9.9608 C.3     1  UNL1        0.0418
     11 N           9.0151   41.3262    9.7087 N.3     1  UNL1       -0.2688
     12 C           8.3659   42.6370    9.8745 C.3     1  UNL1        0.0991
     13 C           6.8820   42.6314    9.6555 C.ar    1  UNL1       -0.0066
     14 C           6.2877   43.6115    8.8542 C.ar    1  UNL1       -0.0042
     15 C           4.9088   43.5966    8.6271 C.ar    1  UNL1        0.0113
     16 C           4.3014   44.6649    7.7859 C.3     1  UNL1        0.0342
     17 C           4.1165   42.5829    9.1898 C.ar    1  UNL1        0.1256
     18 C           4.7184   41.5814    9.9686 C.ar    1  UNL1        0.0113
     19 C           3.9063   40.4862   10.5678 C.3     1  UNL1        0.0342
     20 C           6.0979   41.6044   10.1904 C.ar    1  UNL1       -0.0042
     21 O           2.7415   42.5681    8.9724 O.3     1  UNL1       -0.5061
     22 H           2.2149   41.8907    9.3489 H       1  UNL1        0.2922
     23 C          13.9856   38.9021    8.8591 C.2     1  UNL1        0.2587
     24 O          13.1679   38.6093    7.9447 O.2     1  UNL1       -0.2717
     25 N          14.4918   40.2356    8.9899 N.am    1  UNL1       -0.2673
     26 H          15.1366   40.4028    9.7148 H       1  UNL1        0.1563
     27 C          14.4415   37.8525    9.8305 C.3     1  UNL1        0.2135
     28 C          15.8869   38.0358   10.1784 C.ar    1  UNL1        0.0134
     29 C          16.8069   37.0411    9.8295 C.ar    1  UNL1       -0.0015
     30 C          18.1615   37.1971   10.1386 C.ar    1  UNL1       -0.0002
     31 C          18.6003   38.3493   10.7976 C.ar    1  UNL1       -0.0000
     32 C          17.6853   39.3463   11.1481 C.ar    1  UNL1       -0.0002
     33 C          16.3305   39.1912   10.8395 C.ar    1  UNL1       -0.0015
     34 C          13.9189   39.0905   11.5926 C.3     1  UNL1        0.1751
     35 O          13.6590   37.8581   10.9908 O.3     1  UNL1       -0.3400
@<TRIPOS>BOND
     1    34    35    1
     2    27    35    1
     3    27    23    1
     4    27    28    1
     5    23    25   am
     6     2     3   ar
     7     6     5    1
     8     6     7    1
     9     7     8    1
    10     8    11    1
    11    12    11    1
    12    12    13    1
    13    14    15   ar
    14    16    15    1
    15    17    21    1
    16    17    18   ar
    17    19    18    1
    18    20    13   ar
    19     9    11    1
    20     9    10    1
    21    10     6    1
    22    29    30   ar
    23    31    32   ar
    24    33    28   ar
    25    25     1    1
    26     5     4   ar
    27     5     1   ar
    28    23    24    2
    29     1     2   ar
    30     3     4   ar
    31    13    14   ar
    32    15    17   ar
    33    18    20   ar
    34    28    29   ar
    35    30    31   ar
    36    32    33   ar
    37    21    22    1
    38    25    26    1
@<TRIPOS>MOLECULE
MolPort-005-135-936 CSSS00159791909 MCULE-2900330182 PubChem-45238205
 35 38 0 0 0
SMALL
GASTEIGER

@<TRIPOS>ATOM
      1 C          14.2945   41.4794    8.3396 C.ar    1  UNL1        0.1326
      2 C          15.1799   42.0310    7.4327 C.ar    1  UNL1        0.0565
      3 C          14.4066   42.9711    6.7594 C.ar    1  UNL1        0.1230
      4 N          13.1482   42.9616    7.2484 N.ar    1  UNL1       -0.1666
      5 N          13.0923   42.0550    8.2078 N.ar    1  UNL1       -0.2394
      6 C          11.8944   41.7301    8.9718 C.3     1  UNL1        0.1093
      7 C          11.0580   40.7114    8.2125 C.3     1  UNL1        0.0418
      8 C           9.7757   40.3934    8.9801 C.3     1  UNL1        0.0744
      9 C           9.7951   42.6556    9.9787 C.3     1  UNL1        0.0744
     10 C          11.0779   42.9899    9.2188 C.3     1  UNL1        0.0418
     11 N           9.0063   41.5976    9.3289 N.3     1  UNL1       -0.2688
     12 C           8.1147   42.0770    8.2601 C.3     1  UNL1        0.0991
     13 C           6.6779   42.2250    8.6646 C.ar    1  UNL1       -0.0066
     14 C           6.0943   41.2959    9.5318 C.ar    1  UNL1       -0.0042
     15 C           4.7631   41.4428    9.9311 C.ar    1  UNL1        0.0113
     16 C           4.1627   40.4265   10.8392 C.3     1  UNL1        0.0342
     17 C           4.0112   42.5379    9.4758 C.ar    1  UNL1        0.1256
     18 C           4.6073   43.4872    8.6300 C.ar    1  UNL1        0.0113
     19 C           3.8395   44.6661    8.1413 C.3     1  UNL1        0.0342
     20 C           5.9390   43.3322    8.2359 C.ar    1  UNL1       -0.0042
     21 O           2.6826   42.6844    9.8651 O.3     1  UNL1       -0.5061
     22 H           2.1829   43.4159    9.5600 H       1  UNL1        0.2922
     23 C          14.1798   39.0712    9.1671 C.2     1  UNL1        0.2587
     24 O          13.5375   38.6719    8.1578 O.2     1  UNL1       -0.2717
     25 N          14.5761   40.4423    9.2879 N.am    1  UNL1       -0.2673
     26 H          15.0859   40.6940   10.0916 H       1  UNL1        0.1563
     27 C          14.5386   38.1110   10.2637 C.3     1  UNL1        0.2135
     28 C          15.9468   37.6239   10.1100 C.ar    1  UNL1        0.0134
     29 C          16.9509   38.1646   10.9205 C.ar    1  UNL1       -0.0015
     30 C          18.2700   37.7177   10.7975 C.ar    1  UNL1       -0.0002
     31 C          18.5889   36.7277    9.8634 C.ar    1  UNL1       -0.0000
     32 C          17.5893   36.1839    9.0514 C.ar    1  UNL1       -0.0002
     33 C          16.2700   36.6301    9.1736 C.ar    1  UNL1       -0.0015
     34 C          13.1501   39.3787   11.4365 C.3     1  UNL1        0.1751
     35 O          14.3607   38.6896   11.5255 O.3     1  UNL1       -0.3400
@<TRIPOS>BOND
     1    34    35    1
     2    27    35    1
     3    27    23    1
     4    27    28    1
     5    23    25   am
     6     2     3   ar
     7     6     5    1
     8     6     7    1
     9     7     8    1
    10     8    11    1
    11    12    11    1
    12    12    13    1
    13    14    15   ar
    14    16    15    1
    15    17    21    1
    16    17    18   ar
    17    19    18    1
    18    20    13   ar
    19     9    11    1
    20     9    10    1
    21    10     6    1
    22    29    30   ar
    23    31    32   ar
    24    33    28   ar
    25    25     1    1
    26     5     4   ar
    27     5     1   ar
    28    23    24    2
    29     1     2   ar
    30     3     4   ar
    31    13    14   ar
    32    15    17   ar
    33    18    20   ar
    34    28    29   ar
    35    30    31   ar
    36    32    33   ar
    37    21    22    1
    38    25    26    1
@<TRIPOS>MOLECULE
MolPort-005-135-936 CSSS00159791909 MCULE-2900330182 PubChem-45238205
 35 38 0 0 0
SMALL
GASTEIGER

@<TRIPOS>ATOM
      1 C          14.1641   41.8213    7.8562 C.ar    1  UNL1        0.1326
      2 C          14.9877   42.6452    7.1122 C.ar    1  UNL1        0.0565
      3 C          14.0929   43.4083    6.3693 C.ar    1  UNL1        0.1230
      4 N          12.8270   43.0451    6.6662 N.ar    1  UNL1       -0.1666
      5 N          12.8820   42.0837    7.5708 N.ar    1  UNL1       -0.2394
      6 C          11.7195   41.4106    8.1362 C.3     1  UNL1        0.1093
      7 C          10.4770   41.7629    7.3323 C.3     1  UNL1        0.0418
      8 C           9.2415   41.1002    7.9394 C.3     1  UNL1        0.0744
      9 C          10.2891   41.1644   10.1784 C.3     1  UNL1        0.0744
     10 C          11.5327   41.8270    9.5875 C.3     1  UNL1        0.0418
     11 N           9.0812   41.3958    9.3714 N.3     1  UNL1       -0.2688
     12 C           8.3991   42.6694    9.6541 C.3     1  UNL1        0.0991
     13 C           6.9072   42.6252    9.5065 C.ar    1  UNL1       -0.0066
     14 C           6.1734   41.5959   10.1050 C.ar    1  UNL1       -0.0042
     15 C           4.7809   41.5635    9.9911 C.ar    1  UNL1        0.0113
     16 C           4.0281   40.4440   10.6219 C.3     1  UNL1        0.0342
     17 C           4.1111   42.5783    9.2886 C.ar    1  UNL1        0.1256
     18 C           4.8460   43.6282    8.7145 C.ar    1  UNL1        0.0113
     19 C           4.1628   44.7256    7.9748 C.3     1  UNL1        0.0342
     20 C           6.2381   43.6523    8.8335 C.ar    1  UNL1       -0.0042
     21 O           2.7247   42.5463    9.1662 O.3     1  UNL1       -0.5061
     22 H           2.2800   43.2246    8.6970 H       1  UNL1        0.2922
     23 C          15.9287   40.5487    9.1843 C.2     1  UNL1        0.2587
     24 O          16.8842   41.2211    8.7096 O.2     1  UNL1       -0.2717
     25 N          14.5774   40.8199    8.7945 N.am    1  UNL1       -0.2673
     26 H          13.8716   40.2710    9.2067 H       1  UNL1        0.1563
     27 C          16.1947   39.4469   10.1683 C.3     1  UNL1        0.2135
     28 C          15.0307   38.5075   10.2487 C.ar    1  UNL1        0.0134
     29 C          14.6807   37.7528    9.1237 C.ar    1  UNL1       -0.0015
     30 C          13.6022   36.8649    9.1810 C.ar    1  UNL1       -0.0002
     31 C          12.8705   36.7285   10.3644 C.ar    1  UNL1       -0.0000
     32 C          13.2163   37.4799   11.4913 C.ar    1  UNL1       -0.0002
     33 C          14.2945   38.3682   11.4350 C.ar    1  UNL1       -0.0015
     34 C          18.1960   38.9077   10.9524 C.3     1  UNL1        0.1751
     35 O          17.3621   38.7459    9.8448 O.3     1  UNL1       -0.3400
@<TRIPOS>BOND
     1    34    35    1
     2    27    35    1
     3    27    23    1
     4    27    28    1
     5    23    25   am
     6     2     3   ar
     7     6     5    1
     8     6     7    1
     9     7     8    1
    10     8    11    1
    11    12    11    1
    12    12    13    1
    13    14    15   ar
    14    16    15    1
    15    17    21    1
    16    17    18   ar
    17    19    18    1
    18    20    13   ar
    19     9    11    1
    20     9    10    1
    21    10     6    1
    22    29    30   ar
    23    31    32   ar
    24    33    28   ar
    25    25     1    1
    26     5     4   ar
    27     5     1   ar
    28    23    24    2
    29     1     2   ar
    30     3     4   ar
    31    13    14   ar
    32    15    17   ar
    33    18    20   ar
    34    28    29   ar
    35    30    31   ar
    36    32    33   ar
    37    21    22    1
    38    25    26    1
@<TRIPOS>MOLECULE
MolPort-005-135-936 CSSS00159791909 MCULE-2900330182 PubChem-45238205
 35 38 0 0 0
SMALL
GASTEIGER

@<TRIPOS>ATOM
      1 C          14.2216   39.9603    9.9870 C.ar    1  UNL1        0.1326
      2 C          14.8646   39.0919   10.8491 C.ar    1  UNL1        0.0565
      3 C          13.8308   38.2995   11.3375 C.ar    1  UNL1        0.1230
      4 N          12.6597   38.6888   10.7902 N.ar    1  UNL1       -0.1666
      5 N          12.9088   39.6950    9.9710 N.ar    1  UNL1       -0.2394
      6 C          11.8965   40.4065    9.2009 C.3     1  UNL1        0.1093
      7 C          11.5952   41.7456    9.8568 C.3     1  UNL1        0.0418
      8 C          10.5029   42.4851    9.0858 C.3     1  UNL1        0.0744
      9 C           9.5406   40.3286    8.3519 C.3     1  UNL1        0.0744
     10 C          10.6263   39.5734    9.1171 C.3     1  UNL1        0.0418
     11 N           9.2913   41.6733    8.8935 N.3     1  UNL1       -0.2688
     12 C           8.3550   41.7047   10.0290 C.3     1  UNL1        0.0991
     13 C           6.9453   42.0667    9.6665 C.ar    1  UNL1       -0.0066
     14 C           5.8783   41.3050   10.1535 C.ar    1  UNL1       -0.0042
     15 C           4.5617   41.6524    9.8388 C.ar    1  UNL1        0.0113
     16 C           3.4470   40.8106   10.3551 C.3     1  UNL1        0.0342
     17 C           4.3053   42.7822    9.0452 C.ar    1  UNL1        0.1256
     18 C           5.3758   43.5645    8.5825 C.ar    1  UNL1        0.0113
     19 C           5.1348   44.7757    7.7501 C.3     1  UNL1        0.0342
     20 C           6.6889   43.2094    8.9023 C.ar    1  UNL1       -0.0042
     21 O           2.9958   43.1279    8.7230 O.3     1  UNL1       -0.5061
     22 H           2.8273   43.8823    8.1934 H       1  UNL1        0.2922
     23 C          16.2246   41.1221    8.9213 C.2     1  UNL1        0.2587
     24 O          17.0453   40.2584    9.3346 O.2     1  UNL1       -0.2717
     25 N          14.8276   41.0050    9.2153 N.am    1  UNL1       -0.2673
     26 H          14.2324   41.7022    8.8564 H       1  UNL1        0.1563
     27 C          16.7020   42.2931    8.1126 C.3     1  UNL1        0.2135
     28 C          15.6086   42.8192    7.2343 C.ar    1  UNL1        0.0134
     29 C          14.4578   42.0484    7.0369 C.ar    1  UNL1       -0.0015
     30 C          13.4229   42.5254    6.2269 C.ar    1  UNL1       -0.0002
     31 C          13.5357   43.7758    5.6117 C.ar    1  UNL1       -0.0000
     32 C          14.6833   44.5500    5.8059 C.ar    1  UNL1       -0.0002
     33 C          15.7187   44.0739    6.6158 C.ar    1  UNL1       -0.0015
     34 C          18.2667   43.8583    8.2246 C.3     1  UNL1        0.1751
     35 O          17.1963   43.3121    8.9348 O.3     1  UNL1       -0.3400
@<TRIPOS>BOND
     1    34    35    1
     2    27    35    1
     3    27    23    1
     4    27    28    1
     5    23    25   am
     6     2     3   ar
     7     6     5    1
     8     6     7    1
     9     7     8    1
    10     8    11    1
    11    12    11    1
    12    12    13    1
    13    14    15   ar
    14    16    15    1
    15    17    21    1
    16    17    18   ar
    17    19    18    1
    18    20    13   ar
    19     9    11    1
    20     9    10    1
    21    10     6    1
    22    29    30   ar
    23    31    32   ar
    24    33    28   ar
    25    25     1    1
    26     5     4   ar
    27     5     1   ar
    28    23    24    2
    29     1     2   ar
    30     3     4   ar
    31    13    14   ar
    32    15    17   ar
    33    18    20   ar
    34    28    29   ar
    35    30    31   ar
    36    32    33   ar
    37    21    22    1
    38    25    26    1
