@<TRIPOS>MOLECULE
MolPort-002-173-777 MolPort-002-548-036 MolPort-047-713-465 CSSS00107064492 ChemDiv-4120-0457 LN00488348 MCULE-8692214273 MCULE-9998837735 PubChem-2874769 PubChem-2874770 PubChem-5344390
 31 34 0 0 0
SMALL
GASTEIGER

@<TRIPOS>ATOM
      1 C          10.1177   43.2243    9.9775 C.2     1  UNL1        0.2270
      2 O          11.0319   44.0913    9.9169 O.2     1  UNL1       -0.2747
      3 N          10.4191   41.8246    9.9172 N.am    1  UNL1       -0.2838
      4 H           9.6557   41.2059    9.9778 H       1  UNL1        0.1549
      5 C          14.2881   40.1251    9.4463 C.ar    1  UNL1        0.1725
      6 C          13.4191   39.6375   10.4362 C.ar    1  UNL1        0.0413
      7 C          12.1462   40.1837   10.5995 C.ar    1  UNL1        0.0180
      8 C          11.7173   41.2316    9.7778 C.ar    1  UNL1        0.0535
      9 C          12.5758   41.7185    8.7896 C.ar    1  UNL1        0.0547
     10 C          13.8529   41.1772    8.6038 C.ar    1  UNL1        0.1733
     11 C          15.9282   38.2986    9.7944 C.3     1  UNL1        0.2526
     12 O          15.5719   39.5853    9.3071 O.3     1  UNL1       -0.4684
     13 O          14.6401   41.7300    7.5816 O.3     1  UNL1       -0.4761
     14 C          14.6605   43.1059    7.2203 C.3     1  UNL1        0.1660
     15 C          16.0920   43.6204    7.2094 C.3     1  UNL1        0.0435
     16 C          16.4540   43.8514    5.7590 C.3     1  UNL1        0.0038
     17 C          15.1404   44.0970    5.0576 C.3     1  UNL1        0.0038
     18 C          14.1278   43.2604    5.8075 C.3     1  UNL1        0.0435
     19 C           8.6933   43.6507   10.1110 C.3     1  UNL1        0.0928
     20 C           8.3477   44.6940    9.0413 C.3     1  UNL1        0.0119
     21 C           6.8375   44.7766    8.8241 C.3     1  UNL1        0.0179
     22 C           6.2194   43.3979    8.5276 C.3     1  UNL1        0.0724
     23 C           7.7595   42.4335   10.0635 C.3     1  UNL1        0.0814
     24 N           7.1652   42.2965    8.7342 N.3     1  UNL1       -0.2685
     25 C           6.3903   41.0655    8.7297 C.3     1  UNL1        0.0992
     26 C           5.1687   41.2197    9.5731 C.ar    1  UNL1       -0.0061
     27 C           5.2385   41.0450   10.9608 C.ar    1  UNL1       -0.0029
     28 C           4.0887   41.1890   11.7433 C.ar    1  UNL1       -0.0003
     29 C           2.8676   41.5054   11.1398 C.ar    1  UNL1       -0.0000
     30 C           2.7959   41.6766    9.7538 C.ar    1  UNL1       -0.0003
     31 C           3.9456   41.5327    8.9710 C.ar    1  UNL1       -0.0029
@<TRIPOS>BOND
     1    11    12    1
     2     5    12    1
     3     6     7   ar
     4     8     3    1
     5     8     9   ar
     6    19     1    1
     7    19    20    1
     8    20    21    1
     9    21    22    1
    10    22    24    1
    11    25    24    1
    12    25    26    1
    13    27    28   ar
    14    29    30   ar
    15    31    26   ar
    16    23    24    1
    17    23    19    1
    18    10    13    1
    19    10     5   ar
    20    14    13    1
    21    14    15    1
    22    15    16    1
    23    16    17    1
    24    17    18    1
    25    18    14    1
    26     3     1   am
    27     5     6   ar
    28     7     8   ar
    29     1     2    2
    30    26    27   ar
    31    28    29   ar
    32    30    31   ar
    33     9    10   ar
    34     3     4    1
@<TRIPOS>MOLECULE
MolPort-002-173-777 MolPort-002-548-036 MolPort-047-713-465 CSSS00107064492 ChemDiv-4120-0457 LN00488348 MCULE-8692214273 MCULE-9998837735 PubChem-2874769 PubChem-2874770 PubChem-5344390
 31 34 0 0 0
SMALL
GASTEIGER

@<TRIPOS>ATOM
      1 C          13.9350   42.9522    6.1431 C.2     1  UNL1        0.2270
      2 O          13.3007   43.9495    5.7022 O.2     1  UNL1       -0.2747
      3 N          13.2748   41.7045    6.3900 N.am    1  UNL1       -0.2838
      4 H          13.8348   40.9681    6.7268 H       1  UNL1        0.1549
      5 C           9.1293   40.9091    5.8792 C.ar    1  UNL1        0.1725
      6 C          10.0716   40.3219    5.0188 C.ar    1  UNL1        0.0413
      7 C          11.4345   40.5719    5.1771 C.ar    1  UNL1        0.0180
      8 C          11.8831   41.4172    6.1975 C.ar    1  UNL1        0.0535
      9 C          10.9512   42.0014    7.0582 C.ar    1  UNL1        0.0547
     10 C           9.5803   41.7553    6.9217 C.ar    1  UNL1        0.1733
     11 C           7.1209   39.4760    6.1237 C.3     1  UNL1        0.2526
     12 O           7.7624   40.6701    5.6963 O.3     1  UNL1       -0.4684
     13 O           8.7226   42.3839    7.8378 O.3     1  UNL1       -0.4761
     14 C           7.3121   42.4972    7.6904 C.3     1  UNL1        0.1660
     15 C           6.6878   42.9653    8.9962 C.3     1  UNL1        0.0435
     16 C           6.2240   44.3864    8.7650 C.3     1  UNL1        0.0038
     17 C           5.9874   44.4884    7.2780 C.3     1  UNL1        0.0038
     18 C           7.0011   43.5579    6.6502 C.3     1  UNL1        0.0435
     19 C          15.3980   43.0617    6.4193 C.3     1  UNL1        0.0928
     20 C          15.6966   44.3448    7.2047 C.3     1  UNL1        0.0119
     21 C          17.0433   44.2487    7.9200 C.3     1  UNL1        0.0179
     22 C          17.1463   42.9836    8.7918 C.3     1  UNL1        0.0724
     23 C          15.9063   41.8047    7.1385 C.3     1  UNL1        0.0814
     24 N          16.0340   42.0532    8.5741 N.3     1  UNL1       -0.2685
     25 C          16.4050   40.7944    9.2014 C.3     1  UNL1        0.0992
     26 C          15.2418   40.2216    9.9406 C.ar    1  UNL1       -0.0061
     27 C          15.4425   39.2861   10.9631 C.ar    1  UNL1       -0.0029
     28 C          14.3471   38.7526   11.6489 C.ar    1  UNL1       -0.0003
     29 C          13.0498   39.1517   11.3123 C.ar    1  UNL1       -0.0000
     30 C          12.8479   40.0831   10.2891 C.ar    1  UNL1       -0.0003
     31 C          13.9432   40.6169    9.6030 C.ar    1  UNL1       -0.0029
@<TRIPOS>BOND
     1    11    12    1
     2     5    12    1
     3     6     7   ar
     4     8     3    1
     5     8     9   ar
     6    19     1    1
     7    19    20    1
     8    20    21    1
     9    21    22    1
    10    22    24    1
    11    25    24    1
    12    25    26    1
    13    27    28   ar
    14    29    30   ar
    15    31    26   ar
    16    23    24    1
    17    23    19    1
    18    10    13    1
    19    10     5   ar
    20    14    13    1
    21    14    15    1
    22    15    16    1
    23    16    17    1
    24    17    18    1
    25    18    14    1
    26     3     1   am
    27     5     6   ar
    28     7     8   ar
    29     1     2    2
    30    26    27   ar
    31    28    29   ar
    32    30    31   ar
    33     9    10   ar
    34     3     4    1
@<TRIPOS>MOLECULE
MolPort-002-173-777 MolPort-002-548-036 MolPort-047-713-465 CSSS00107064492 ChemDiv-4120-0457 LN00488348 MCULE-8692214273 MCULE-9998837735 PubChem-2874769 PubChem-2874770 PubChem-5344390
 31 34 0 0 0
SMALL
GASTEIGER

@<TRIPOS>ATOM
      1 C          10.1085   42.7297    9.7961 C.2     1  UNL1        0.2270
      2 O          10.8226   43.6210   10.3316 O.2     1  UNL1       -0.2747
      3 N          10.6874   41.5174    9.2971 N.am    1  UNL1       -0.2838
      4 H          10.0680   40.8641    8.8988 H       1  UNL1        0.1549
      5 C          14.8169   40.5043    9.2952 C.ar    1  UNL1        0.1725
      6 C          13.9622   39.9798   10.2788 C.ar    1  UNL1        0.0413
      7 C          12.6052   40.3015   10.2893 C.ar    1  UNL1        0.0180
      8 C          12.0753   41.1573    9.3177 C.ar    1  UNL1        0.0535
      9 C          12.9195   41.6794    8.3351 C.ar    1  UNL1        0.0547
     10 C          14.2819   41.3608    8.3020 C.ar    1  UNL1        0.1733
     11 C          16.8180   39.5465   10.4022 C.3     1  UNL1        0.2526
     12 O          16.1815   40.1936    9.3085 O.3     1  UNL1       -0.4684
     13 O          15.0478   41.9305    7.2730 O.3     1  UNL1       -0.4761
     14 C          15.5003   43.2789    7.2428 C.3     1  UNL1        0.1660
     15 C          16.8614   43.3869    7.9137 C.3     1  UNL1        0.0435
     16 C          17.8626   43.6559    6.8123 C.3     1  UNL1        0.0038
     17 C          17.0705   44.3157    5.7100 C.3     1  UNL1        0.0038
     18 C          15.6866   43.7122    5.8001 C.3     1  UNL1        0.0435
     19 C           8.6345   42.9303    9.6713 C.3     1  UNL1        0.0928
     20 C           8.3249   44.3879    9.3080 C.3     1  UNL1        0.0119
     21 C           6.9305   44.5159    8.6964 C.3     1  UNL1        0.0179
     22 C           6.7285   43.5546    7.5106 C.3     1  UNL1        0.0724
     23 C           8.0388   41.9377    8.6636 C.3     1  UNL1        0.0814
     24 N           7.8225   42.5881    7.3717 N.3     1  UNL1       -0.2685
     25 C           7.3699   41.5659    6.4412 C.3     1  UNL1        0.0992
     26 C           8.5365   40.8223    5.8813 C.ar    1  UNL1       -0.0061
     27 C           8.4107   39.4757    5.5180 C.ar    1  UNL1       -0.0029
     28 C           9.5093   38.7857    4.9964 C.ar    1  UNL1       -0.0003
     29 C          10.7353   39.4398    4.8395 C.ar    1  UNL1       -0.0000
     30 C          10.8630   40.7834    5.2053 C.ar    1  UNL1       -0.0003
     31 C           9.7645   41.4737    5.7268 C.ar    1  UNL1       -0.0029
@<TRIPOS>BOND
     1    11    12    1
     2     5    12    1
     3     6     7   ar
     4     8     3    1
     5     8     9   ar
     6    19     1    1
     7    19    20    1
     8    20    21    1
     9    21    22    1
    10    22    24    1
    11    25    24    1
    12    25    26    1
    13    27    28   ar
    14    29    30   ar
    15    31    26   ar
    16    23    24    1
    17    23    19    1
    18    10    13    1
    19    10     5   ar
    20    14    13    1
    21    14    15    1
    22    15    16    1
    23    16    17    1
    24    17    18    1
    25    18    14    1
    26     3     1   am
    27     5     6   ar
    28     7     8   ar
    29     1     2    2
    30    26    27   ar
    31    28    29   ar
    32    30    31   ar
    33     9    10   ar
    34     3     4    1
@<TRIPOS>MOLECULE
MolPort-002-173-777 MolPort-002-548-036 MolPort-047-713-465 CSSS00107064492 ChemDiv-4120-0457 LN00488348 MCULE-8692214273 MCULE-9998837735 PubChem-2874769 PubChem-2874770 PubChem-5344390
 31 34 0 0 0
SMALL
GASTEIGER

@<TRIPOS>ATOM
      1 C           9.8587   43.4254    9.9359 C.2     1  UNL1        0.2270
      2 O          10.6389   44.0177   10.7306 O.2     1  UNL1       -0.2747
      3 N          10.3351   42.3970    9.0589 N.am    1  UNL1       -0.2838
      4 H           9.6677   41.9739    8.4717 H       1  UNL1        0.1549
      5 C          14.3145   40.9239    8.7879 C.ar    1  UNL1        0.1725
      6 C          13.8754   41.9346    7.9168 C.ar    1  UNL1        0.0413
      7 C          12.5738   42.4290    7.9969 C.ar    1  UNL1        0.0180
      8 C          11.6829   41.9202    8.9481 C.ar    1  UNL1        0.0535
      9 C          12.1147   40.9175    9.8191 C.ar    1  UNL1        0.0547
     10 C          13.4197   40.4152    9.7609 C.ar    1  UNL1        0.1733
     11 C          16.7729   41.1957    8.9599 C.3     1  UNL1        0.2526
     12 O          15.6155   40.4187    8.6829 O.3     1  UNL1       -0.4684
     13 O          13.7613   39.4122   10.6814 O.3     1  UNL1       -0.4761
     14 C          14.1992   38.1031   10.3372 C.3     1  UNL1        0.1660
     15 C          13.9664   37.1528   11.5021 C.3     1  UNL1        0.0435
     16 C          12.8373   36.2353   11.0884 C.3     1  UNL1        0.0038
     17 C          12.8772   36.2140    9.5799 C.3     1  UNL1        0.0038
     18 C          13.3686   37.5864    9.1766 C.3     1  UNL1        0.0435
     19 C           8.4129   43.7951    9.8963 C.3     1  UNL1        0.0928
     20 C           8.1144   44.6431    8.6536 C.3     1  UNL1        0.0119
     21 C           6.6244   44.6153    8.3162 C.3     1  UNL1        0.0179
     22 C           6.0853   43.1780    8.1955 C.3     1  UNL1        0.0724
     23 C           7.5332   42.5397    9.9722 C.3     1  UNL1        0.0814
     24 N           7.0530   42.1704    8.6411 N.3     1  UNL1       -0.2685
     25 C           6.3286   40.9160    8.7733 C.3     1  UNL1        0.0992
     26 C           5.0973   41.1131    9.5934 C.ar    1  UNL1       -0.0061
     27 C           5.1573   41.0425   10.9907 C.ar    1  UNL1       -0.0029
     28 C           3.9986   41.2260   11.7514 C.ar    1  UNL1       -0.0003
     29 C           2.7783   41.4781   11.1166 C.ar    1  UNL1       -0.0000
     30 C           2.7164   41.5452    9.7213 C.ar    1  UNL1       -0.0003
     31 C           3.8751   41.3618    8.9602 C.ar    1  UNL1       -0.0029
@<TRIPOS>BOND
     1    11    12    1
     2     5    12    1
     3     6     7   ar
     4     8     3    1
     5     8     9   ar
     6    19     1    1
     7    19    20    1
     8    20    21    1
     9    21    22    1
    10    22    24    1
    11    25    24    1
    12    25    26    1
    13    27    28   ar
    14    29    30   ar
    15    31    26   ar
    16    23    24    1
    17    23    19    1
    18    10    13    1
    19    10     5   ar
    20    14    13    1
    21    14    15    1
    22    15    16    1
    23    16    17    1
    24    17    18    1
    25    18    14    1
    26     3     1   am
    27     5     6   ar
    28     7     8   ar
    29     1     2    2
    30    26    27   ar
    31    28    29   ar
    32    30    31   ar
    33     9    10   ar
    34     3     4    1
@<TRIPOS>MOLECULE
MolPort-002-173-777 MolPort-002-548-036 MolPort-047-713-465 CSSS00107064492 ChemDiv-4120-0457 LN00488348 MCULE-8692214273 MCULE-9998837735 PubChem-2874769 PubChem-2874770 PubChem-5344390
 31 34 0 0 0
SMALL
GASTEIGER

@<TRIPOS>ATOM
      1 C          10.0285   42.9039    9.6977 C.2     1  UNL1        0.2270
      2 O           9.6169   43.6650   10.6156 O.2     1  UNL1       -0.2747
      3 N           9.1896   42.5617    8.5873 N.am    1  UNL1       -0.2838
      4 H           9.5805   41.9689    7.9054 H       1  UNL1        0.1549
      5 C           5.1698   43.8229    8.0133 C.ar    1  UNL1        0.1725
      6 C           6.1150   43.9903    6.9879 C.ar    1  UNL1        0.0413
      7 C           7.4361   43.5783    7.1617 C.ar    1  UNL1        0.0180
      8 C           7.8400   42.9931    8.3666 C.ar    1  UNL1        0.0535
      9 C           6.9039   42.8211    9.3887 C.ar    1  UNL1        0.0547
     10 C           5.5716   43.2191    9.2299 C.ar    1  UNL1        0.1733
     11 C           3.5263   45.5567    7.3501 C.3     1  UNL1        0.2526
     12 O           3.8526   44.2617    7.8365 O.3     1  UNL1       -0.4684
     13 O           4.7047   43.0000   10.3118 O.3     1  UNL1       -0.4761
     14 C           3.6567   42.0381   10.3363 C.3     1  UNL1        0.1660
     15 C           4.2393   40.6329   10.3394 C.3     1  UNL1        0.0435
     16 C           3.9827   40.0649   11.7176 C.3     1  UNL1        0.0038
     17 C           2.7742   40.8077   12.2330 C.3     1  UNL1        0.0038
     18 C           2.8686   42.1893   11.6247 C.3     1  UNL1        0.0435
     19 C          11.4098   42.3411    9.7590 C.3     1  UNL1        0.0928
     20 C          11.3674   40.8749   10.2073 C.3     1  UNL1        0.0119
     21 C          12.6487   40.1433    9.8102 C.3     1  UNL1        0.0179
     22 C          12.9602   40.2947    8.3099 C.3     1  UNL1        0.0724
     23 C          12.1252   42.5202    8.4130 C.3     1  UNL1        0.0814
     24 N          12.0936   41.2746    7.6472 N.3     1  UNL1       -0.2685
     25 C          12.6822   41.5498    6.3458 C.3     1  UNL1        0.0992
     26 C          13.8279   42.4959    6.4854 C.ar    1  UNL1       -0.0061
     27 C          14.9255   42.1664    7.2903 C.ar    1  UNL1       -0.0029
     28 C          15.9937   43.0596    7.4175 C.ar    1  UNL1       -0.0003
     29 C          15.9653   44.2839    6.7424 C.ar    1  UNL1       -0.0000
     30 C          14.8682   44.6157    5.9413 C.ar    1  UNL1       -0.0003
     31 C          13.7998   43.7226    5.8138 C.ar    1  UNL1       -0.0029
@<TRIPOS>BOND
     1    11    12    1
     2     5    12    1
     3     6     7   ar
     4     8     3    1
     5     8     9   ar
     6    19     1    1
     7    19    20    1
     8    20    21    1
     9    21    22    1
    10    22    24    1
    11    25    24    1
    12    25    26    1
    13    27    28   ar
    14    29    30   ar
    15    31    26   ar
    16    23    24    1
    17    23    19    1
    18    10    13    1
    19    10     5   ar
    20    14    13    1
    21    14    15    1
    22    15    16    1
    23    16    17    1
    24    17    18    1
    25    18    14    1
    26     3     1   am
    27     5     6   ar
    28     7     8   ar
    29     1     2    2
    30    26    27   ar
    31    28    29   ar
    32    30    31   ar
    33     9    10   ar
    34     3     4    1
@<TRIPOS>MOLECULE
MolPort-002-173-777 MolPort-002-548-036 MolPort-047-713-465 CSSS00107064492 ChemDiv-4120-0457 LN00488348 MCULE-8692214273 MCULE-9998837735 PubChem-2874769 PubChem-2874770 PubChem-5344390
 31 34 0 0 0
SMALL
GASTEIGER

@<TRIPOS>ATOM
      1 C          10.6467   41.1231    6.7273 C.2     1  UNL1        0.2270
      2 O          10.8185   40.7454    7.9186 O.2     1  UNL1       -0.2747
      3 N          11.6979   41.7651    5.9949 N.am    1  UNL1       -0.2838
      4 H          11.4941   42.0258    5.0677 H       1  UNL1        0.1549
      5 C          15.6024   42.5928    7.4609 C.ar    1  UNL1        0.1725
      6 C          15.0624   43.3632    6.4179 C.ar    1  UNL1        0.0413
      7 C          13.7818   43.1045    5.9297 C.ar    1  UNL1        0.0180
      8 C          13.0159   42.0673    6.4725 C.ar    1  UNL1        0.0535
      9 C          13.5462   41.2998    7.5119 C.ar    1  UNL1        0.0547
     10 C          14.8252   41.5500    8.0220 C.ar    1  UNL1        0.1733
     11 C          17.5858   44.0646    7.6782 C.3     1  UNL1        0.2526
     12 O          16.8977   42.8461    7.9268 O.3     1  UNL1       -0.4684
     13 O          15.2686   40.7284    9.0700 O.3     1  UNL1       -0.4761
     14 C          14.6032   39.5567    9.5263 C.3     1  UNL1        0.1660
     15 C          15.6140   38.5697   10.0903 C.3     1  UNL1        0.0435
     16 C          15.4032   38.5480   11.5879 C.3     1  UNL1        0.0038
     17 C          13.9660   38.9616   11.7912 C.3     1  UNL1        0.0038
     18 C          13.6667   39.9235   10.6631 C.3     1  UNL1        0.0435
     19 C           9.3297   40.9062    6.0589 C.3     1  UNL1        0.0928
     20 C           8.7928   39.5064    6.3826 C.3     1  UNL1        0.0119
     21 C           7.2842   39.4312    6.1520 C.3     1  UNL1        0.0179
     22 C           6.5282   40.5432    6.9023 C.3     1  UNL1        0.0724
     23 C           8.3406   42.0148    6.4438 C.3     1  UNL1        0.0814
     24 N           7.4262   41.5458    7.4844 N.3     1  UNL1       -0.2685
     25 C           6.6006   42.6765    7.8789 C.3     1  UNL1        0.0992
     26 C           5.7996   42.3347    9.0910 C.ar    1  UNL1       -0.0061
     27 C           6.3927   41.6610   10.1659 C.ar    1  UNL1       -0.0029
     28 C           5.6345   41.3425   11.2967 C.ar    1  UNL1       -0.0003
     29 C           4.2824   41.6948   11.3537 C.ar    1  UNL1       -0.0000
     30 C           3.6882   42.3644   10.2795 C.ar    1  UNL1       -0.0003
     31 C           4.4462   42.6831    9.1485 C.ar    1  UNL1       -0.0029
@<TRIPOS>BOND
     1    11    12    1
     2     5    12    1
     3     6     7   ar
     4     8     3    1
     5     8     9   ar
     6    19     1    1
     7    19    20    1
     8    20    21    1
     9    21    22    1
    10    22    24    1
    11    25    24    1
    12    25    26    1
    13    27    28   ar
    14    29    30   ar
    15    31    26   ar
    16    23    24    1
    17    23    19    1
    18    10    13    1
    19    10     5   ar
    20    14    13    1
    21    14    15    1
    22    15    16    1
    23    16    17    1
    24    17    18    1
    25    18    14    1
    26     3     1   am
    27     5     6   ar
    28     7     8   ar
    29     1     2    2
    30    26    27   ar
    31    28    29   ar
    32    30    31   ar
    33     9    10   ar
    34     3     4    1
@<TRIPOS>MOLECULE
MolPort-002-173-777 MolPort-002-548-036 MolPort-047-713-465 CSSS00107064492 ChemDiv-4120-0457 LN00488348 MCULE-8692214273 MCULE-9998837735 PubChem-2874769 PubChem-2874770 PubChem-5344390
 31 34 0 0 0
SMALL
GASTEIGER

@<TRIPOS>ATOM
      1 C          11.2585   41.8335    9.6134 C.2     1  UNL1        0.2270
      2 O          11.3979   43.0706    9.8167 O.2     1  UNL1       -0.2747
      3 N          12.2776   41.0717    8.9540 N.am    1  UNL1       -0.2838
      4 H          12.1030   40.1100    8.8364 H       1  UNL1        0.1549
      5 C          16.0174   42.4733    7.4951 C.ar    1  UNL1        0.1725
      6 C          14.8205   43.0415    7.0288 C.ar    1  UNL1        0.0413
      7 C          13.5871   42.5934    7.5011 C.ar    1  UNL1        0.0180
      8 C          13.5253   41.5650    8.4477 C.ar    1  UNL1        0.0535
      9 C          14.7122   40.9983    8.9175 C.ar    1  UNL1        0.0547
     10 C          15.9597   41.4408    8.4630 C.ar    1  UNL1        0.1733
     11 C          18.0073   43.9479    7.6101 C.3     1  UNL1        0.2526
     12 O          17.2485   42.9146    6.9964 O.3     1  UNL1       -0.4684
     13 O          17.0955   40.8132    8.9979 O.3     1  UNL1       -0.4761
     14 C          17.1217   40.0669   10.2088 C.3     1  UNL1        0.1660
     15 C          15.9859   39.0549   10.2218 C.3     1  UNL1        0.0435
     16 C          16.6237   37.6920   10.0693 C.3     1  UNL1        0.0038
     17 C          18.0268   37.8498   10.6024 C.3     1  UNL1        0.0038
     18 C          18.4151   39.2759   10.2815 C.3     1  UNL1        0.0435
     19 C          10.0141   41.1400   10.0595 C.3     1  UNL1        0.0928
     20 C           9.5606   41.6838   11.4201 C.3     1  UNL1        0.0119
     21 C           8.0829   41.3826   11.6656 C.3     1  UNL1        0.0179
     22 C           7.1929   41.8695   10.5072 C.3     1  UNL1        0.0724
     23 C           8.9195   41.2554    8.9898 C.3     1  UNL1        0.0814
     24 N           7.9684   42.3088    9.3427 N.3     1  UNL1       -0.2685
     25 C           7.0341   42.4392    8.2356 C.3     1  UNL1        0.0992
     26 C           5.6298   42.3194    8.7264 C.ar    1  UNL1       -0.0061
     27 C           4.8472   43.4641    8.9226 C.ar    1  UNL1       -0.0029
     28 C           3.5332   43.3431    9.3849 C.ar    1  UNL1       -0.0003
     29 C           3.0005   42.0784    9.6540 C.ar    1  UNL1       -0.0000
     30 C           3.7821   40.9349    9.4620 C.ar    1  UNL1       -0.0003
     31 C           5.0962   41.0556    8.9995 C.ar    1  UNL1       -0.0029
@<TRIPOS>BOND
     1    11    12    1
     2     5    12    1
     3     6     7   ar
     4     8     3    1
     5     8     9   ar
     6    19     1    1
     7    19    20    1
     8    20    21    1
     9    21    22    1
    10    22    24    1
    11    25    24    1
    12    25    26    1
    13    27    28   ar
    14    29    30   ar
    15    31    26   ar
    16    23    24    1
    17    23    19    1
    18    10    13    1
    19    10     5   ar
    20    14    13    1
    21    14    15    1
    22    15    16    1
    23    16    17    1
    24    17    18    1
    25    18    14    1
    26     3     1   am
    27     5     6   ar
    28     7     8   ar
    29     1     2    2
    30    26    27   ar
    31    28    29   ar
    32    30    31   ar
    33     9    10   ar
    34     3     4    1
@<TRIPOS>MOLECULE
MolPort-002-173-777 MolPort-002-548-036 MolPort-047-713-465 CSSS00107064492 ChemDiv-4120-0457 LN00488348 MCULE-8692214273 MCULE-9998837735 PubChem-2874769 PubChem-2874770 PubChem-5344390
 31 34 0 0 0
SMALL
GASTEIGER

@<TRIPOS>ATOM
      1 C          10.1407   42.8638    9.6439 C.2     1  UNL1        0.2270
      2 O          10.8025   43.6636   10.3605 O.2     1  UNL1       -0.2747
      3 N          10.7898   41.8263    8.8983 N.am    1  UNL1       -0.2838
      4 H          10.2088   41.2352    8.3670 H       1  UNL1        0.1549
      5 C          14.9552   40.9782    8.8036 C.ar    1  UNL1        0.1725
      6 C          14.3925   41.8563    7.8627 C.ar    1  UNL1        0.0413
      7 C          13.0283   42.1456    7.8844 C.ar    1  UNL1        0.0180
      8 C          12.1979   41.5598    8.8459 C.ar    1  UNL1        0.0535
      9 C          12.7522   40.6884    9.7860 C.ar    1  UNL1        0.0547
     10 C          14.1202   40.3931    9.7867 C.ar    1  UNL1        0.1733
     11 C          17.3363   41.6688    8.8312 C.3     1  UNL1        0.2526
     12 O          16.3212   40.6767    8.7577 O.3     1  UNL1       -0.4684
     13 O          14.5841   39.5102   10.7743 O.3     1  UNL1       -0.4761
     14 C          14.8059   38.1176   10.5854 C.3     1  UNL1        0.1660
     15 C          13.9712   37.3183   11.5747 C.3     1  UNL1        0.0435
     16 C          12.8818   36.6441   10.7707 C.3     1  UNL1        0.0038
     17 C          13.4412   36.5171    9.3747 C.3     1  UNL1        0.0038
     18 C          14.3400   37.7204    9.1965 C.3     1  UNL1        0.0435
     19 C           8.6557   42.9918    9.5601 C.3     1  UNL1        0.0928
     20 C           8.2665   44.4200    9.1586 C.3     1  UNL1        0.0119
     21 C           6.8496   44.4620    8.5883 C.3     1  UNL1        0.0179
     22 C           6.6569   43.4517    7.4424 C.3     1  UNL1        0.0724
     23 C           8.0768   41.9382    8.6058 C.3     1  UNL1        0.0814
     24 N           7.7906   42.5325    7.3006 N.3     1  UNL1       -0.2685
     25 C           7.3584   41.4587    6.4197 C.3     1  UNL1        0.0992
     26 C           8.5411   40.7537    5.8439 C.ar    1  UNL1       -0.0061
     27 C           8.4607   39.3985    5.5003 C.ar    1  UNL1       -0.0029
     28 C           9.5741   38.7450    4.9636 C.ar    1  UNL1       -0.0003
     29 C          10.7698   39.4444    4.7716 C.ar    1  UNL1       -0.0000
     30 C          10.8524   40.7967    5.1177 C.ar    1  UNL1       -0.0003
     31 C           9.7390   41.4506    5.6544 C.ar    1  UNL1       -0.0029
@<TRIPOS>BOND
     1    11    12    1
     2     5    12    1
     3     6     7   ar
     4     8     3    1
     5     8     9   ar
     6    19     1    1
     7    19    20    1
     8    20    21    1
     9    21    22    1
    10    22    24    1
    11    25    24    1
    12    25    26    1
    13    27    28   ar
    14    29    30   ar
    15    31    26   ar
    16    23    24    1
    17    23    19    1
    18    10    13    1
    19    10     5   ar
    20    14    13    1
    21    14    15    1
    22    15    16    1
    23    16    17    1
    24    17    18    1
    25    18    14    1
    26     3     1   am
    27     5     6   ar
    28     7     8   ar
    29     1     2    2
    30    26    27   ar
    31    28    29   ar
    32    30    31   ar
    33     9    10   ar
    34     3     4    1
@<TRIPOS>MOLECULE
MolPort-002-173-777 MolPort-002-548-036 MolPort-047-713-465 CSSS00107064492 ChemDiv-4120-0457 LN00488348 MCULE-8692214273 MCULE-9998837735 PubChem-2874769 PubChem-2874770 PubChem-5344390
 31 34 0 0 0
SMALL
GASTEIGER

@<TRIPOS>ATOM
      1 C          10.8455   41.0578    5.8517 C.2     1  UNL1        0.2270
      2 O          11.5107   40.0362    5.5278 O.2     1  UNL1       -0.2747
      3 N          11.4846   42.2092    6.4170 N.am    1  UNL1       -0.2838
      4 H          10.9033   42.9723    6.6385 H       1  UNL1        0.1549
      5 C          15.6267   42.6072    7.2912 C.ar    1  UNL1        0.1725
      6 C          15.0407   43.3875    6.2809 C.ar    1  UNL1        0.0413
      7 C          13.6827   43.2692    5.9860 C.ar    1  UNL1        0.0180
      8 C          12.8830   42.3653    6.6936 C.ar    1  UNL1        0.0535
      9 C          13.4593   41.5889    7.7014 C.ar    1  UNL1        0.0547
     10 C          14.8179   41.7001    8.0187 C.ar    1  UNL1        0.1733
     11 C          17.7088   43.9422    7.4625 C.3     1  UNL1        0.2526
     12 O          16.9953   42.7171    7.5625 O.3     1  UNL1       -0.4684
     13 O          15.3035   40.8816    9.0503 O.3     1  UNL1       -0.4761
     14 C          14.7067   39.6616    9.4740 C.3     1  UNL1        0.1660
     15 C          15.7679   38.7337   10.0461 C.3     1  UNL1        0.0435
     16 C          15.5265   38.6739   11.5380 C.3     1  UNL1        0.0038
     17 C          14.0612   38.9892   11.7148 C.3     1  UNL1        0.0038
     18 C          13.7238   39.9478   10.5945 C.3     1  UNL1        0.0435
     19 C           9.3665   41.0793    5.6507 C.3     1  UNL1        0.0928
     20 C           8.8134   39.6492    5.6165 C.3     1  UNL1        0.0119
     21 C           7.3144   39.6341    5.9123 C.3     1  UNL1        0.0179
     22 C           6.9759   40.3685    7.2227 C.3     1  UNL1        0.0724
     23 C           8.6890   41.9424    6.7239 C.3     1  UNL1        0.0814
     24 N           8.1211   41.0990    7.7751 N.3     1  UNL1       -0.2685
     25 C           7.6026   41.9823    8.8079 C.3     1  UNL1        0.0992
     26 C           8.2856   41.7160   10.1078 C.ar    1  UNL1       -0.0061
     27 C           9.6632   41.4671   10.1470 C.ar    1  UNL1       -0.0029
     28 C          10.2949   41.2162   11.3689 C.ar    1  UNL1       -0.0003
     29 C           9.5504   41.2113   12.5526 C.ar    1  UNL1       -0.0000
     30 C           8.1742   41.4561   12.5144 C.ar    1  UNL1       -0.0003
     31 C           7.5422   41.7072   11.2926 C.ar    1  UNL1       -0.0029
@<TRIPOS>BOND
     1    11    12    1
     2     5    12    1
     3     6     7   ar
     4     8     3    1
     5     8     9   ar
     6    19     1    1
     7    19    20    1
     8    20    21    1
     9    21    22    1
    10    22    24    1
    11    25    24    1
    12    25    26    1
    13    27    28   ar
    14    29    30   ar
    15    31    26   ar
    16    23    24    1
    17    23    19    1
    18    10    13    1
    19    10     5   ar
    20    14    13    1
    21    14    15    1
    22    15    16    1
    23    16    17    1
    24    17    18    1
    25    18    14    1
    26     3     1   am
    27     5     6   ar
    28     7     8   ar
    29     1     2    2
    30    26    27   ar
    31    28    29   ar
    32    30    31   ar
    33     9    10   ar
    34     3     4    1
@<TRIPOS>MOLECULE
MolPort-002-173-777 MolPort-002-548-036 MolPort-047-713-465 CSSS00107064492 ChemDiv-4120-0457 LN00488348 MCULE-8692214273 MCULE-9998837735 PubChem-2874769 PubChem-2874770 PubChem-5344390
 31 34 0 0 0
SMALL
GASTEIGER

@<TRIPOS>ATOM
      1 C           8.4150   40.6936    6.1499 C.2     1  UNL1        0.2270
      2 O           7.4362   40.4952    5.3793 O.2     1  UNL1       -0.2747
      3 N           8.3487   41.6722    7.1947 N.am    1  UNL1       -0.2838
      4 H           9.1479   41.7670    7.7617 H       1  UNL1        0.1549
      5 C           5.0619   44.1831    8.1804 C.ar    1  UNL1        0.1725
      6 C           5.6263   44.2317    6.8950 C.ar    1  UNL1        0.0413
      7 C           6.7026   43.4114    6.5575 C.ar    1  UNL1        0.0180
      8 C           7.2390   42.5276    7.5000 C.ar    1  UNL1        0.0535
      9 C           6.6801   42.4726    8.7787 C.ar    1  UNL1        0.0547
     10 C           5.5938   43.2805    9.1336 C.ar    1  UNL1        0.1733
     11 C           2.9319   45.3227    7.6222 C.3     1  UNL1        0.2526
     12 O           3.9974   45.0278    8.5154 O.3     1  UNL1       -0.4684
     13 O           5.0985   43.1496   10.4403 O.3     1  UNL1       -0.4761
     14 C           3.9348   42.4157   10.8026 C.3     1  UNL1        0.1660
     15 C           3.1331   42.0630    9.5588 C.3     1  UNL1        0.0435
     16 C           3.2826   40.5710    9.3605 C.3     1  UNL1        0.0038
     17 C           3.5746   40.0167   10.7335 C.3     1  UNL1        0.0038
     18 C           4.3497   41.1040   11.4438 C.3     1  UNL1        0.0435
     19 C           9.6705   39.9042    5.9791 C.3     1  UNL1        0.0928
     20 C          10.8877   40.8372    5.9650 C.3     1  UNL1        0.0119
     21 C          12.1689   40.0714    6.2915 C.3     1  UNL1        0.0179
     22 C          12.0485   39.2752    7.6040 C.3     1  UNL1        0.0724
     23 C           9.7773   38.8205    7.0606 C.3     1  UNL1        0.0814
     24 N          10.6793   39.2506    8.1284 N.3     1  UNL1       -0.2685
     25 C          10.6408   38.2320    9.1661 C.3     1  UNL1        0.0992
     26 C          11.8385   38.3470   10.0491 C.ar    1  UNL1       -0.0061
     27 C          12.2158   39.5893   10.5738 C.ar    1  UNL1       -0.0029
     28 C          13.3407   39.6886   11.3984 C.ar    1  UNL1       -0.0003
     29 C          14.0910   38.5471   11.6975 C.ar    1  UNL1       -0.0000
     30 C          13.7173   37.3066   11.1712 C.ar    1  UNL1       -0.0003
     31 C          12.5924   37.2070   10.3467 C.ar    1  UNL1       -0.0029
@<TRIPOS>BOND
     1    11    12    1
     2     5    12    1
     3     6     7   ar
     4     8     3    1
     5     8     9   ar
     6    19     1    1
     7    19    20    1
     8    20    21    1
     9    21    22    1
    10    22    24    1
    11    25    24    1
    12    25    26    1
    13    27    28   ar
    14    29    30   ar
    15    31    26   ar
    16    23    24    1
    17    23    19    1
    18    10    13    1
    19    10     5   ar
    20    14    13    1
    21    14    15    1
    22    15    16    1
    23    16    17    1
    24    17    18    1
    25    18    14    1
    26     3     1   am
    27     5     6   ar
    28     7     8   ar
    29     1     2    2
    30    26    27   ar
    31    28    29   ar
    32    30    31   ar
    33     9    10   ar
    34     3     4    1
