@<TRIPOS>MOLECULE
MolPort-020-293-036 MCULE-6240120053 PubChem-110265503
 28 31 0 0 0
SMALL
GASTEIGER

@<TRIPOS>ATOM
      1 C           6.2533   40.8075    7.3455 C.3     1  UNL1        0.0724
      2 C           6.6464   39.7170    6.3322 C.3     1  UNL1        0.0178
      3 C           8.1598   39.5065    6.2715 C.3     1  UNL1        0.0087
      4 C           8.9049   40.8323    6.0223 C.3     1  UNL1        0.0563
      5 C           8.1691   42.0269    6.6415 C.3     1  UNL1        0.0783
      6 N           7.4000   41.5967    7.8066 N.3     1  UNL1       -0.2686
      7 C          10.3347   40.8096    6.4939 C.ar    1  UNL1        0.0614
      8 C          12.4874   41.8390    6.4458 C.ar    1  UNL1        0.1339
      9 C          12.9838   40.8730    7.3306 C.ar    1  UNL1        0.0345
     10 C          12.1363   39.8712    7.8019 C.ar    1  UNL1        0.0041
     11 C          10.8062   39.8362    7.3870 C.ar    1  UNL1        0.0149
     12 N          11.1856   41.7780    6.0543 N.ar    1  UNL1       -0.2348
     13 N          13.3142   42.8935    5.9336 N.pl3   1  UNL1       -0.2680
     14 H          12.9267   43.4380    5.2107 H       1  UNL1        0.1565
     15 C          14.6395   43.2465    6.3523 C.ar    1  UNL1        0.2218
     16 C          16.4869   42.8290    7.7715 C.ar    1  UNL1        0.1034
     17 C          17.1960   43.8708    7.1768 C.ar    1  UNL1        0.0414
     18 C          16.5799   44.5881    6.1533 C.ar    1  UNL1        0.1034
     19 N          15.2288   42.5357    7.3503 N.ar    1  UNL1       -0.2120
     20 N          15.3198   44.2673    5.7615 N.ar    1  UNL1       -0.2120
     21 C           6.8675   42.7945    8.4346 C.3     1  UNL1        0.0988
     22 C           4.1506   43.9905    8.4588 C.3     1  UNL1        0.0307
     23 C           4.5622   42.9765    9.4711 C.ar    1  UNL1       -0.0245
     24 C           3.6353   42.5791   10.4405 C.ar    1  UNL1       -0.0045
     25 C           3.9896   41.6369   11.4104 C.ar    1  UNL1       -0.0003
     26 C           5.2723   41.0836   11.4119 C.ar    1  UNL1       -0.0003
     27 C           6.2013   41.4713   10.4422 C.ar    1  UNL1       -0.0032
     28 C           5.8566   42.4205    9.4720 C.ar    1  UNL1       -0.0101
@<TRIPOS>BOND
     1    22    23    1
     2    24    25   ar
     3    26    27   ar
     4    28    23   ar
     5    21    28    1
     6    21     6    1
     7     1     6    1
     8     1     2    1
     9     2     3    1
    10     3     4    1
    11     4     5    1
    12     4     7    1
    13     5     6    1
    14     8    12   ar
    15     8    13    1
    16     9    10   ar
    17    11     7   ar
    18    15    20   ar
    19    16    19   ar
    20    17    18   ar
    21    13    15    1
    22    23    24   ar
    23    25    26   ar
    24    27    28   ar
    25     7    12   ar
    26     8     9   ar
    27    10    11   ar
    28    15    19   ar
    29    16    17   ar
    30    18    20   ar
    31    13    14    1
@<TRIPOS>MOLECULE
MolPort-020-293-036 MCULE-6240120053 PubChem-110265503
 28 31 0 0 0
SMALL
GASTEIGER

@<TRIPOS>ATOM
      1 C           8.4173   43.4207    9.0190 C.3     1  UNL1        0.0724
      2 C           9.0478   43.6969   10.3963 C.3     1  UNL1        0.0178
      3 C          10.4301   43.0580   10.5350 C.3     1  UNL1        0.0087
      4 C          10.3937   41.5543   10.1995 C.3     1  UNL1        0.0563
      5 C           9.3362   41.2310    9.1369 C.3     1  UNL1        0.0783
      6 N           9.1291   42.3842    8.2643 N.3     1  UNL1       -0.2686
      7 C          11.7307   41.0060    9.7766 C.ar    1  UNL1        0.0614
      8 C          13.6016   41.1744    8.3044 C.ar    1  UNL1        0.1339
      9 C          14.2167   40.0882    8.9404 C.ar    1  UNL1        0.0345
     10 C          13.5761   39.4641   10.0100 C.ar    1  UNL1        0.0041
     11 C          12.3301   39.9220   10.4347 C.ar    1  UNL1        0.0149
     12 N          12.3829   41.5975    8.7375 N.ar    1  UNL1       -0.2348
     13 N          14.2178   41.8553    7.2024 N.pl3   1  UNL1       -0.2680
     14 H          13.7778   41.7541    6.3275 H       1  UNL1        0.1565
     15 C          15.4003   42.6663    7.2270 C.ar    1  UNL1        0.2218
     16 C          16.7858   44.2491    6.1423 C.ar    1  UNL1        0.1034
     17 C          17.6492   44.2624    7.2361 C.ar    1  UNL1        0.0414
     18 C          17.3456   43.4490    8.3260 C.ar    1  UNL1        0.1034
     19 N          15.6820   43.4569    6.1574 N.ar    1  UNL1       -0.2120
     20 N          16.2344   42.6686    8.3031 N.ar    1  UNL1       -0.2120
     21 C           8.2462   41.9568    7.1917 C.3     1  UNL1        0.0988
     22 C           7.0316   39.4309    6.2134 C.3     1  UNL1        0.0307
     23 C           8.3945   39.8552    5.7833 C.ar    1  UNL1       -0.0245
     24 C           9.1011   39.0435    4.8897 C.ar    1  UNL1       -0.0045
     25 C          10.3848   39.4060    4.4718 C.ar    1  UNL1       -0.0003
     26 C          10.9660   40.5859    4.9425 C.ar    1  UNL1       -0.0003
     27 C          10.2630   41.4050    5.8304 C.ar    1  UNL1       -0.0032
     28 C           8.9797   41.0448    6.2599 C.ar    1  UNL1       -0.0101
@<TRIPOS>BOND
     1    22    23    1
     2    24    25   ar
     3    26    27   ar
     4    28    23   ar
     5    21    28    1
     6    21     6    1
     7     1     6    1
     8     1     2    1
     9     2     3    1
    10     3     4    1
    11     4     5    1
    12     4     7    1
    13     5     6    1
    14     8    12   ar
    15     8    13    1
    16     9    10   ar
    17    11     7   ar
    18    15    20   ar
    19    16    19   ar
    20    17    18   ar
    21    13    15    1
    22    23    24   ar
    23    25    26   ar
    24    27    28   ar
    25     7    12   ar
    26     8     9   ar
    27    10    11   ar
    28    15    19   ar
    29    16    17   ar
    30    18    20   ar
    31    13    14    1
@<TRIPOS>MOLECULE
MolPort-020-293-036 MCULE-6240120053 PubChem-110265503
 28 31 0 0 0
SMALL
GASTEIGER

@<TRIPOS>ATOM
      1 C           7.4607   42.0609   10.3386 C.3     1  UNL1        0.0724
      2 C           8.6483   41.9228   11.3087 C.3     1  UNL1        0.0178
      3 C           9.9926   41.9503   10.5804 C.3     1  UNL1        0.0087
      4 C          10.0411   40.9096    9.4447 C.3     1  UNL1        0.0563
      5 C           8.6608   40.6861    8.8147 C.3     1  UNL1        0.0783
      6 N           7.8499   41.8953    8.9345 N.3     1  UNL1       -0.2686
      7 C          11.0461   41.2428    8.3742 C.ar    1  UNL1        0.0614
      8 C          13.3441   41.4431    7.7619 C.ar    1  UNL1        0.1339
      9 C          12.9791   41.8083    6.4596 C.ar    1  UNL1        0.0345
     10 C          11.6292   41.8828    6.1186 C.ar    1  UNL1        0.0041
     11 C          10.6558   41.5980    7.0746 C.ar    1  UNL1        0.0149
     12 N          12.3725   41.1746    8.6760 N.ar    1  UNL1       -0.2348
     13 N          14.7175   41.3470    8.1650 N.pl3   1  UNL1       -0.2680
     14 H          14.9702   40.5334    8.6585 H       1  UNL1        0.1565
     15 C          15.7650   42.2984    7.9328 C.ar    1  UNL1        0.2218
     16 C          16.4827   44.2956    6.8851 C.ar    1  UNL1        0.1034
     17 C          17.7392   44.1686    7.4740 C.ar    1  UNL1        0.0414
     18 C          17.9717   43.0723    8.3022 C.ar    1  UNL1        0.1034
     19 N          15.5225   43.3645    7.1245 N.ar    1  UNL1       -0.2120
     20 N          16.9879   42.1607    8.5154 N.ar    1  UNL1       -0.2120
     21 C           6.6294   41.6693    8.1783 C.3     1  UNL1        0.0988
     22 C           4.9510   44.1166    8.0984 C.3     1  UNL1        0.0307
     23 C           4.6341   42.9868    9.0181 C.ar    1  UNL1       -0.0245
     24 C           3.5122   43.0888    9.8473 C.ar    1  UNL1       -0.0045
     25 C           3.1900   42.0523   10.7281 C.ar    1  UNL1       -0.0003
     26 C           3.9866   40.9059   10.7799 C.ar    1  UNL1       -0.0003
     27 C           5.1053   40.7946    9.9495 C.ar    1  UNL1       -0.0032
     28 C           5.4392   41.8319    9.0699 C.ar    1  UNL1       -0.0101
@<TRIPOS>BOND
     1    22    23    1
     2    24    25   ar
     3    26    27   ar
     4    28    23   ar
     5    21    28    1
     6    21     6    1
     7     1     6    1
     8     1     2    1
     9     2     3    1
    10     3     4    1
    11     4     5    1
    12     4     7    1
    13     5     6    1
    14     8    12   ar
    15     8    13    1
    16     9    10   ar
    17    11     7   ar
    18    15    20   ar
    19    16    19   ar
    20    17    18   ar
    21    13    15    1
    22    23    24   ar
    23    25    26   ar
    24    27    28   ar
    25     7    12   ar
    26     8     9   ar
    27    10    11   ar
    28    15    19   ar
    29    16    17   ar
    30    18    20   ar
    31    13    14    1
@<TRIPOS>MOLECULE
MolPort-020-293-036 MCULE-6240120053 PubChem-110265503
 28 31 0 0 0
SMALL
GASTEIGER

@<TRIPOS>ATOM
      1 C           8.0348   43.8470    9.1794 C.3     1  UNL1        0.0724
      2 C           8.9396   44.4530   10.2678 C.3     1  UNL1        0.0178
      3 C          10.2905   43.7419   10.3548 C.3     1  UNL1        0.0087
      4 C          10.1179   42.2193   10.5188 C.3     1  UNL1        0.0563
      5 C           8.8557   41.7077    9.8138 C.3     1  UNL1        0.0783
      6 N           8.5325   42.5633    8.6746 N.3     1  UNL1       -0.2686
      7 C          11.3166   41.4314   10.0611 C.ar    1  UNL1        0.0614
      8 C          12.9812   41.0895    8.3853 C.ar    1  UNL1        0.1339
      9 C          13.5502   40.0571    9.1424 C.ar    1  UNL1        0.0345
     10 C          12.9923   39.7194   10.3747 C.ar    1  UNL1        0.0041
     11 C          11.8734   40.4071   10.8411 C.ar    1  UNL1        0.0149
     12 N          11.8864   41.7410    8.8634 N.ar    1  UNL1       -0.2348
     13 N          13.5171   41.4802    7.1134 N.pl3   1  UNL1       -0.2680
     14 H          13.2775   40.9107    6.3468 H       1  UNL1        0.1565
     15 C          14.3611   42.6040    6.8286 C.ar    1  UNL1        0.2218
     16 C          16.4364   43.6996    7.1363 C.ar    1  UNL1        0.1034
     17 C          16.0313   44.7322    6.2928 C.ar    1  UNL1        0.0414
     18 C          14.7604   44.6605    5.7258 C.ar    1  UNL1        0.1034
     19 N          15.5996   42.6588    7.3869 N.ar    1  UNL1       -0.2120
     20 N          13.9512   43.6054    6.0023 N.ar    1  UNL1       -0.2120
     21 C           7.4344   41.9314    7.9622 C.3     1  UNL1        0.0988
     22 C           5.3189   41.1838    9.9060 C.3     1  UNL1        0.0307
     23 C           5.1950   42.3996    9.0521 C.ar    1  UNL1       -0.0245
     24 C           4.0586   43.2040    9.1879 C.ar    1  UNL1       -0.0045
     25 C           3.9051   44.3466    8.3974 C.ar    1  UNL1       -0.0003
     26 C           4.8911   44.6929    7.4703 C.ar    1  UNL1       -0.0003
     27 C           6.0321   43.8973    7.3342 C.ar    1  UNL1       -0.0032
     28 C           6.1896   42.7467    8.1167 C.ar    1  UNL1       -0.0101
@<TRIPOS>BOND
     1    22    23    1
     2    24    25   ar
     3    26    27   ar
     4    28    23   ar
     5    21    28    1
     6    21     6    1
     7     1     6    1
     8     1     2    1
     9     2     3    1
    10     3     4    1
    11     4     5    1
    12     4     7    1
    13     5     6    1
    14     8    12   ar
    15     8    13    1
    16     9    10   ar
    17    11     7   ar
    18    15    20   ar
    19    16    19   ar
    20    17    18   ar
    21    13    15    1
    22    23    24   ar
    23    25    26   ar
    24    27    28   ar
    25     7    12   ar
    26     8     9   ar
    27    10    11   ar
    28    15    19   ar
    29    16    17   ar
    30    18    20   ar
    31    13    14    1
@<TRIPOS>MOLECULE
MolPort-020-293-036 MCULE-6240120053 PubChem-110265503
 28 31 0 0 0
SMALL
GASTEIGER

@<TRIPOS>ATOM
      1 C          10.5525   39.4127    9.0203 C.3     1  UNL1        0.0724
      2 C          11.0443   38.0599    9.5668 C.3     1  UNL1        0.0178
      3 C          12.5242   38.0977    9.9498 C.3     1  UNL1        0.0087
      4 C          13.3958   38.6104    8.7869 C.3     1  UNL1        0.0563
      5 C          12.6473   39.6274    7.9166 C.3     1  UNL1        0.0783
      6 N          11.6496   40.3363    8.7143 N.3     1  UNL1       -0.2686
      7 C          14.7101   39.1901    9.2383 C.ar    1  UNL1        0.0614
      8 C          16.3048   40.9552    9.0448 C.ar    1  UNL1        0.1339
      9 C          17.1060   40.3567   10.0259 C.ar    1  UNL1        0.0345
     10 C          16.6929   39.1643   10.6186 C.ar    1  UNL1        0.0041
     11 C          15.4909   38.5763   10.2288 C.ar    1  UNL1        0.0149
     12 N          15.1383   40.3566    8.6807 N.ar    1  UNL1       -0.2348
     13 N          16.6800   42.1834    8.4057 N.pl3   1  UNL1       -0.2680
     14 H          17.5608   42.5494    8.6496 H       1  UNL1        0.1565
     15 C          15.9211   42.9402    7.4529 C.ar    1  UNL1        0.2218
     16 C          15.6739   44.9249    6.1875 C.ar    1  UNL1        0.1034
     17 C          14.5100   44.4251    5.6064 C.ar    1  UNL1        0.0414
     18 C          14.0786   43.1544    5.9818 C.ar    1  UNL1        0.1034
     19 N          16.3560   44.1774    7.0942 N.ar    1  UNL1       -0.2120
     20 N          14.7857   42.4382    6.8937 N.ar    1  UNL1       -0.2120
     21 C          11.0991   41.3881    7.8756 C.3     1  UNL1        0.0988
     22 C           9.9932   40.2316    5.3753 C.3     1  UNL1        0.0307
     23 C           9.1082   40.6135    6.5126 C.ar    1  UNL1       -0.0245
     24 C           7.7301   40.4060    6.3916 C.ar    1  UNL1       -0.0045
     25 C           6.8696   40.7602    7.4347 C.ar    1  UNL1       -0.0003
     26 C           7.3847   41.3195    8.6066 C.ar    1  UNL1       -0.0003
     27 C           8.7613   41.5234    8.7367 C.ar    1  UNL1       -0.0032
     28 C           9.6292   41.1785    7.6932 C.ar    1  UNL1       -0.0101
@<TRIPOS>BOND
     1    22    23    1
     2    24    25   ar
     3    26    27   ar
     4    28    23   ar
     5    21    28    1
     6    21     6    1
     7     1     6    1
     8     1     2    1
     9     2     3    1
    10     3     4    1
    11     4     5    1
    12     4     7    1
    13     5     6    1
    14     8    12   ar
    15     8    13    1
    16     9    10   ar
    17    11     7   ar
    18    15    20   ar
    19    16    19   ar
    20    17    18   ar
    21    13    15    1
    22    23    24   ar
    23    25    26   ar
    24    27    28   ar
    25     7    12   ar
    26     8     9   ar
    27    10    11   ar
    28    15    19   ar
    29    16    17   ar
    30    18    20   ar
    31    13    14    1
@<TRIPOS>MOLECULE
MolPort-020-293-036 MCULE-6240120053 PubChem-110265503
 28 31 0 0 0
SMALL
GASTEIGER

@<TRIPOS>ATOM
      1 C           7.6105   41.9800   10.8397 C.3     1  UNL1        0.0724
      2 C           8.8737   42.0694   11.7155 C.3     1  UNL1        0.0178
      3 C          10.1503   42.1502   10.8777 C.3     1  UNL1        0.0087
      4 C          10.2283   41.0004    9.8545 C.3     1  UNL1        0.0563
      5 C           8.8381   40.5719    9.3690 C.3     1  UNL1        0.0783
      6 N           7.9119   41.6999    9.4321 N.3     1  UNL1       -0.2686
      7 C          11.1105   41.3119    8.6747 C.ar    1  UNL1        0.0614
      8 C          13.3263   41.4540    7.7993 C.ar    1  UNL1        0.1339
      9 C          12.8221   41.8349    6.5490 C.ar    1  UNL1        0.0345
     10 C          11.4442   41.9469    6.3676 C.ar    1  UNL1        0.0041
     11 C          10.5813   41.6835    7.4300 C.ar    1  UNL1        0.0149
     12 N          12.4607   41.2071    8.8199 N.ar    1  UNL1       -0.2348
     13 N          14.7341   41.3196    8.0396 N.pl3   1  UNL1       -0.2680
     14 H          15.0340   40.4515    8.3943 H       1  UNL1        0.1565
     15 C          15.7553   42.3028    7.8233 C.ar    1  UNL1        0.2218
     16 C          16.4191   44.3342    6.8064 C.ar    1  UNL1        0.1034
     17 C          17.6779   44.2332    7.3956 C.ar    1  UNL1        0.0414
     18 C          17.9393   43.1317    8.2081 C.ar    1  UNL1        0.1034
     19 N          15.4847   43.3735    7.0303 N.ar    1  UNL1       -0.2120
     20 N          16.9806   42.1903    8.4061 N.ar    1  UNL1       -0.2120
     21 C           6.6711   41.2709    8.8084 C.3     1  UNL1        0.0988
     22 C           3.8945   41.4209    9.8477 C.3     1  UNL1        0.0307
     23 C           4.4866   42.5325    9.0500 C.ar    1  UNL1       -0.0245
     24 C           3.7115   43.6705    8.8032 C.ar    1  UNL1       -0.0045
     25 C           4.2314   44.7282    8.0517 C.ar    1  UNL1       -0.0003
     26 C           5.5320   44.6545    7.5475 C.ar    1  UNL1       -0.0003
     27 C           6.3144   43.5232    7.7958 C.ar    1  UNL1       -0.0032
     28 C           5.7980   42.4560    8.5411 C.ar    1  UNL1       -0.0101
@<TRIPOS>BOND
     1    22    23    1
     2    24    25   ar
     3    26    27   ar
     4    28    23   ar
     5    21    28    1
     6    21     6    1
     7     1     6    1
     8     1     2    1
     9     2     3    1
    10     3     4    1
    11     4     5    1
    12     4     7    1
    13     5     6    1
    14     8    12   ar
    15     8    13    1
    16     9    10   ar
    17    11     7   ar
    18    15    20   ar
    19    16    19   ar
    20    17    18   ar
    21    13    15    1
    22    23    24   ar
    23    25    26   ar
    24    27    28   ar
    25     7    12   ar
    26     8     9   ar
    27    10    11   ar
    28    15    19   ar
    29    16    17   ar
    30    18    20   ar
    31    13    14    1
@<TRIPOS>MOLECULE
MolPort-020-293-036 MCULE-6240120053 PubChem-110265503
 28 31 0 0 0
SMALL
GASTEIGER

@<TRIPOS>ATOM
      1 C          10.6965   39.0078    9.5740 C.3     1  UNL1        0.0724
      2 C          11.1966   37.5755    9.3108 C.3     1  UNL1        0.0178
      3 C          12.6684   37.4017    9.6874 C.3     1  UNL1        0.0087
      4 C          13.5545   38.4644    9.0090 C.3     1  UNL1        0.0563
      5 C          12.8085   39.7898    8.8120 C.3     1  UNL1        0.0783
      6 N          11.7863   39.9512    9.8432 N.3     1  UNL1       -0.2686
      7 C          14.8520   38.7084    9.7330 C.ar    1  UNL1        0.0614
      8 C          16.8475   40.0060    9.9072 C.ar    1  UNL1        0.1339
      9 C          17.2524   39.2582   11.0205 C.ar    1  UNL1        0.0345
     10 C          16.4377   38.2296   11.4918 C.ar    1  UNL1        0.0041
     11 C          15.2317   37.9512   10.8510 C.ar    1  UNL1        0.0149
     12 N          15.6670   39.7094    9.2986 N.ar    1  UNL1       -0.2348
     13 N          17.6448   41.0774    9.3834 N.pl3   1  UNL1       -0.2680
     14 H          18.5887   41.0940    9.6626 H       1  UNL1        0.1565
     15 C          17.2265   42.1271    8.5004 C.ar    1  UNL1        0.2218
     16 C          17.7646   44.1066    7.3200 C.ar    1  UNL1        0.1034
     17 C          16.4781   44.1539    6.7865 C.ar    1  UNL1        0.0414
     18 C          15.5799   43.1491    7.1406 C.ar    1  UNL1        0.1034
     19 N          18.1148   43.0991    8.1616 N.ar    1  UNL1       -0.2120
     20 N          15.9659   42.1596    7.9871 N.ar    1  UNL1       -0.2120
     21 C          11.2372   41.2890    9.6964 C.3     1  UNL1        0.0988
     22 C           8.6691   41.9671    8.3707 C.3     1  UNL1        0.0307
     23 C           8.7423   41.7103    9.8374 C.ar    1  UNL1       -0.0245
     24 C           7.5667   41.7811   10.5922 C.ar    1  UNL1       -0.0045
     25 C           7.5995   41.5547   11.9712 C.ar    1  UNL1       -0.0003
     26 C           8.8088   41.2510   12.6011 C.ar    1  UNL1       -0.0003
     27 C           9.9861   41.1721   11.8520 C.ar    1  UNL1       -0.0032
     28 C           9.9629   41.4054   10.4714 C.ar    1  UNL1       -0.0101
@<TRIPOS>BOND
     1    22    23    1
     2    24    25   ar
     3    26    27   ar
     4    28    23   ar
     5    21    28    1
     6    21     6    1
     7     1     6    1
     8     1     2    1
     9     2     3    1
    10     3     4    1
    11     4     5    1
    12     4     7    1
    13     5     6    1
    14     8    12   ar
    15     8    13    1
    16     9    10   ar
    17    11     7   ar
    18    15    20   ar
    19    16    19   ar
    20    17    18   ar
    21    13    15    1
    22    23    24   ar
    23    25    26   ar
    24    27    28   ar
    25     7    12   ar
    26     8     9   ar
    27    10    11   ar
    28    15    19   ar
    29    16    17   ar
    30    18    20   ar
    31    13    14    1
@<TRIPOS>MOLECULE
MolPort-020-293-036 MCULE-6240120053 PubChem-110265503
 28 31 0 0 0
SMALL
GASTEIGER

@<TRIPOS>ATOM
      1 C           7.3364   40.0091    6.5485 C.3     1  UNL1        0.0724
      2 C           8.0947   39.5122    5.3040 C.3     1  UNL1        0.0178
      3 C           9.6105   39.6261    5.4702 C.3     1  UNL1        0.0087
      4 C          10.0285   41.0519    5.8790 C.3     1  UNL1        0.0563
      5 C           8.9577   41.7380    6.7361 C.3     1  UNL1        0.0783
      6 N           8.1957   40.7412    7.4845 N.3     1  UNL1       -0.2686
      7 C          11.3593   41.1040    6.5815 C.ar    1  UNL1        0.0614
      8 C          13.3335   42.3551    7.0645 C.ar    1  UNL1        0.1339
      9 C          13.8163   41.3102    7.8630 C.ar    1  UNL1        0.0345
     10 C          13.0515   40.1553    8.0214 C.ar    1  UNL1        0.0041
     11 C          11.8174   40.0477    7.3826 C.ar    1  UNL1        0.0149
     12 N          12.1271   42.2211    6.4493 N.ar    1  UNL1       -0.2348
     13 N          14.0771   43.5664    6.8707 N.pl3   1  UNL1       -0.2680
     14 H          13.5476   44.3828    6.7208 H       1  UNL1        0.1565
     15 C          15.5022   43.7264    6.8700 C.ar    1  UNL1        0.2218
     16 C          17.5002   44.0200    5.6359 C.ar    1  UNL1        0.1034
     17 C          18.2391   44.0606    6.8166 C.ar    1  UNL1        0.0414
     18 C          17.5585   43.9294    8.0255 C.ar    1  UNL1        0.1034
     19 N          16.1522   43.8560    5.6829 N.ar    1  UNL1       -0.2120
     20 N          16.2105   43.7642    8.0322 N.ar    1  UNL1       -0.2120
     21 C           7.3190   41.4641    8.3909 C.3     1  UNL1        0.0988
     22 C           5.5838   41.6704   10.7907 C.3     1  UNL1        0.0307
     23 C           7.0630   41.5295   10.9113 C.ar    1  UNL1       -0.0245
     24 C           7.6324   41.4823   12.1881 C.ar    1  UNL1       -0.0045
     25 C           9.0167   41.3595   12.3387 C.ar    1  UNL1       -0.0003
     26 C           9.8379   41.2781   11.2116 C.ar    1  UNL1       -0.0003
     27 C           9.2751   41.3180    9.9328 C.ar    1  UNL1       -0.0032
     28 C           7.8900   41.4489    9.7736 C.ar    1  UNL1       -0.0101
@<TRIPOS>BOND
     1    22    23    1
     2    24    25   ar
     3    26    27   ar
     4    28    23   ar
     5    21    28    1
     6    21     6    1
     7     1     6    1
     8     1     2    1
     9     2     3    1
    10     3     4    1
    11     4     5    1
    12     4     7    1
    13     5     6    1
    14     8    12   ar
    15     8    13    1
    16     9    10   ar
    17    11     7   ar
    18    15    20   ar
    19    16    19   ar
    20    17    18   ar
    21    13    15    1
    22    23    24   ar
    23    25    26   ar
    24    27    28   ar
    25     7    12   ar
    26     8     9   ar
    27    10    11   ar
    28    15    19   ar
    29    16    17   ar
    30    18    20   ar
    31    13    14    1
@<TRIPOS>MOLECULE
MolPort-020-293-036 MCULE-6240120053 PubChem-110265503
 28 31 0 0 0
SMALL
GASTEIGER

@<TRIPOS>ATOM
      1 C          10.7727   38.6479    9.2020 C.3     1  UNL1        0.0724
      2 C          11.2714   37.2202    9.4909 C.3     1  UNL1        0.0178
      3 C          12.6851   37.2113   10.0736 C.3     1  UNL1        0.0087
      4 C          13.6658   38.0056    9.1891 C.3     1  UNL1        0.0563
      5 C          12.9747   39.1745    8.4764 C.3     1  UNL1        0.0783
      6 N          11.8421   39.6491    9.2677 N.3     1  UNL1       -0.2686
      7 C          14.8740   38.5028    9.9375 C.ar    1  UNL1        0.0614
      8 C          16.8140   39.8929    9.9329 C.ar    1  UNL1        0.1339
      9 C          17.1130   39.5027   11.2447 C.ar    1  UNL1        0.0345
     10 C          16.2732   38.6064   11.9044 C.ar    1  UNL1        0.0041
     11 C          15.1477   38.1036   11.2540 C.ar    1  UNL1        0.0149
     12 N          15.7109   39.3828    9.3208 N.ar    1  UNL1       -0.2348
     13 N          17.6413   40.8149    9.2095 N.pl3   1  UNL1       -0.2680
     14 H          18.6076   40.6264    9.2115 H       1  UNL1        0.1565
     15 C          17.2243   41.9793    8.4837 C.ar    1  UNL1        0.2218
     16 C          15.5162   43.1228    7.3105 C.ar    1  UNL1        0.1034
     17 C          16.3668   44.2067    7.1020 C.ar    1  UNL1        0.0414
     18 C          17.6619   44.1363    7.6114 C.ar    1  UNL1        0.1034
     19 N          15.9567   42.0349    7.9950 N.ar    1  UNL1       -0.2120
     20 N          18.0670   43.0306    8.2881 N.ar    1  UNL1       -0.2120
     21 C          11.3409   40.8504    8.6209 C.3     1  UNL1        0.0988
     22 C          12.6011   41.8232    6.1153 C.3     1  UNL1        0.0307
     23 C          11.3874   40.9580    6.0895 C.ar    1  UNL1       -0.0245
     24 C          10.8475   40.5934    4.8516 C.ar    1  UNL1       -0.0045
     25 C           9.7050   39.7903    4.7897 C.ar    1  UNL1       -0.0003
     26 C           9.0999   39.3437    5.9670 C.ar    1  UNL1       -0.0003
     27 C           9.6379   39.6988    7.2071 C.ar    1  UNL1       -0.0032
     28 C          10.7776   40.5095    7.2776 C.ar    1  UNL1       -0.0101
@<TRIPOS>BOND
     1    22    23    1
     2    24    25   ar
     3    26    27   ar
     4    28    23   ar
     5    21    28    1
     6    21     6    1
     7     1     6    1
     8     1     2    1
     9     2     3    1
    10     3     4    1
    11     4     5    1
    12     4     7    1
    13     5     6    1
    14     8    12   ar
    15     8    13    1
    16     9    10   ar
    17    11     7   ar
    18    15    20   ar
    19    16    19   ar
    20    17    18   ar
    21    13    15    1
    22    23    24   ar
    23    25    26   ar
    24    27    28   ar
    25     7    12   ar
    26     8     9   ar
    27    10    11   ar
    28    15    19   ar
    29    16    17   ar
    30    18    20   ar
    31    13    14    1
@<TRIPOS>MOLECULE
MolPort-020-293-036 MCULE-6240120053 PubChem-110265503
 28 31 0 0 0
SMALL
GASTEIGER

@<TRIPOS>ATOM
      1 C          13.5670   38.5667    8.7915 C.3     1  UNL1        0.0724
      2 C          12.3122   37.8199    9.2796 C.3     1  UNL1        0.0178
      3 C          11.1707   38.7770    9.6247 C.3     1  UNL1        0.0087
      4 C          11.6262   39.8653   10.6162 C.3     1  UNL1        0.0563
      5 C          13.1034   40.2305   10.4254 C.3     1  UNL1        0.0783
      6 N          13.5019   40.0109    9.0372 N.3     1  UNL1       -0.2686
      7 C          10.7793   41.1092   10.5655 C.ar    1  UNL1        0.0614
      8 C           8.7046   42.1562   11.1096 C.ar    1  UNL1        0.1339
      9 C           9.1503   43.3604   10.5493 C.ar    1  UNL1        0.0345
     10 C          10.4292   43.4316    9.9987 C.ar    1  UNL1        0.0041
     11 C          11.2511   42.3059   10.0063 C.ar    1  UNL1        0.0149
     12 N           9.5268   41.0719   11.0994 N.ar    1  UNL1       -0.2348
     13 N           7.4003   42.0287   11.6928 N.pl3   1  UNL1       -0.2680
     14 H           7.3198   42.2869   12.6394 H       1  UNL1        0.1565
     15 C           6.1999   41.5689   11.0571 C.ar    1  UNL1        0.2218
     16 C           4.1141   40.4655   11.2396 C.ar    1  UNL1        0.1034
     17 C           3.8642   40.6860    9.8865 C.ar    1  UNL1        0.0414
     18 C           4.8250   41.3659    9.1406 C.ar    1  UNL1        0.1034
     19 N           5.2702   40.9095   11.7984 N.ar    1  UNL1       -0.2120
     20 N           5.9699   41.7921    9.7339 N.ar    1  UNL1       -0.2120
     21 C          14.8524   40.5286    8.8922 C.3     1  UNL1        0.0988
     22 C          17.2309   42.2733    8.5590 C.3     1  UNL1        0.0307
     23 C          15.9990   42.4752    7.7441 C.ar    1  UNL1       -0.0245
     24 C          15.9803   43.5042    6.7967 C.ar    1  UNL1       -0.0045
     25 C          14.8391   43.7278    6.0211 C.ar    1  UNL1       -0.0003
     26 C          13.7122   42.9189    6.1862 C.ar    1  UNL1       -0.0003
     27 C          13.7264   41.8847    7.1263 C.ar    1  UNL1       -0.0032
     28 C          14.8629   41.6593    7.9127 C.ar    1  UNL1       -0.0101
@<TRIPOS>BOND
     1    22    23    1
     2    24    25   ar
     3    26    27   ar
     4    28    23   ar
     5    21    28    1
     6    21     6    1
     7     1     6    1
     8     1     2    1
     9     2     3    1
    10     3     4    1
    11     4     5    1
    12     4     7    1
    13     5     6    1
    14     8    12   ar
    15     8    13    1
    16     9    10   ar
    17    11     7   ar
    18    15    20   ar
    19    16    19   ar
    20    17    18   ar
    21    13    15    1
    22    23    24   ar
    23    25    26   ar
    24    27    28   ar
    25     7    12   ar
    26     8     9   ar
    27    10    11   ar
    28    15    19   ar
    29    16    17   ar
    30    18    20   ar
    31    13    14    1
