@<TRIPOS>MOLECULE
MolPort-007-711-014 ChemDiv-D485-0051 MCULE-7455843918 PubChem-20899128
 35 39 0 0 0
SMALL
GASTEIGER

@<TRIPOS>ATOM
      1 C          11.9558   41.7475    8.2444 C.ar    1  UNL1        0.1548
      2 C          10.6521   42.9916    9.3713 C.ar    1  UNL1        0.1462
      3 C           9.8312   42.2183    8.5849 C.ar    1  UNL1        0.0507
      4 C           8.4469   42.3827    8.5856 C.ar    1  UNL1        0.0044
      5 C           7.9053   43.3474    9.4535 C.ar    1  UNL1        0.0002
      6 C           8.7474   44.1240   10.2787 C.ar    1  UNL1        0.0031
      7 C          10.1430   43.9537   10.2400 C.ar    1  UNL1        0.0375
      8 C          10.6702   41.3977    7.8580 C.ar    1  UNL1        0.0860
      9 O          11.9145   42.7004    9.1594 O.2     1  UNL1       -0.4548
     10 C          10.0132   40.7751    5.4711 C.2     1  UNL1        0.2843
     11 O           9.7414   41.9584    5.1333 O.2     1  UNL1       -0.2665
     12 N          10.3398   40.4579    6.8276 N.am    1  UNL1       -0.2756
     13 H          10.3373   39.5053    7.0763 H       1  UNL1        0.1553
     14 C           9.9377   39.6963    4.4801 C.ar    1  UNL1        0.1988
     15 C          10.8812   38.7068    4.2974 C.ar    1  UNL1        0.0455
     16 C          10.3835   37.9315    3.2639 C.ar    1  UNL1        0.0440
     17 C           9.1770   38.4978    2.8886 C.ar    1  UNL1        0.1798
     18 O           8.9466   39.5489    3.6379 O.2     1  UNL1       -0.4458
     19 C          13.2210   41.1452    7.6991 C.3     1  UNL1        0.1426
     20 C          14.1201   42.2395    7.1763 C.ar    1  UNL1        0.0335
     21 C          13.5768   43.1538    6.2661 C.ar    1  UNL1        0.0005
     22 C          14.3577   44.1903    5.7508 C.ar    1  UNL1       -0.0001
     23 C          15.6913   44.3208    6.1424 C.ar    1  UNL1        0.0031
     24 C          16.2441   43.4156    7.0503 C.ar    1  UNL1        0.0366
     25 C          15.4686   42.3688    7.5769 C.ar    1  UNL1        0.1364
     26 C          17.3458   41.5635    8.9799 C.3     1  UNL1        0.2525
     27 O          16.0185   41.4542    8.4831 O.3     1  UNL1       -0.4717
     28 C          13.2578   40.4821    9.9959 C.3     1  UNL1        0.0902
     29 C          13.8710   39.5587   11.0598 C.3     1  UNL1        0.0897
     30 C          14.2716   37.9228    9.3683 C.3     1  UNL1        0.0897
     31 C          13.6762   38.8745    8.3166 C.3     1  UNL1        0.0902
     32 N          13.8905   40.2803    8.6861 N.3     1  UNL1       -0.2617
     33 N          14.8759   38.6630   10.4782 N.3     1  UNL1       -0.2703
     34 C          15.2181   37.6839   11.4963 C.3     1  UNL1        0.0722
     35 C          14.0708   36.7081   11.6821 C.3     1  UNL1        0.0188
@<TRIPOS>BOND
     1     1     9   ar
     2    19     1    1
     3    19    20    1
     4    19    32    1
     5    21    22   ar
     6    23    24   ar
     7    25    27    1
     8    25    20   ar
     9    26    27    1
    10    28    32    1
    11    28    29    1
    12    29    33    1
    13    30    33    1
    14    30    31    1
    15    31    32    1
    16    34    33    1
    17    34    35    1
    18     2     9   ar
    19     3     4   ar
    20     3     8   ar
    21     5     6   ar
    22     7     2   ar
    23     8    12    1
    24    10    14    1
    25    14    18   ar
    26    15    16   ar
    27    17    18   ar
    28    12    10   am
    29    20    21   ar
    30    22    23   ar
    31    24    25   ar
    32     2     3   ar
    33     4     5   ar
    34     6     7   ar
    35     8     1   ar
    36    10    11    2
    37    14    15   ar
    38    16    17   ar
    39    12    13    1
@<TRIPOS>MOLECULE
MolPort-007-711-014 ChemDiv-D485-0051 MCULE-7455843918 PubChem-20899128
 35 39 0 0 0
SMALL
GASTEIGER

@<TRIPOS>ATOM
      1 C          15.4374   41.1149    8.8836 C.ar    1  UNL1        0.1548
      2 C          16.2764   42.5694    7.5805 C.ar    1  UNL1        0.1462
      3 C          14.9621   42.4476    7.1956 C.ar    1  UNL1        0.0507
      4 C          14.4485   43.1502    6.1066 C.ar    1  UNL1        0.0044
      5 C          15.3143   44.0271    5.4294 C.ar    1  UNL1        0.0002
      6 C          16.6572   44.1699    5.8407 C.ar    1  UNL1        0.0031
      7 C          17.1555   43.4303    6.9284 C.ar    1  UNL1        0.0375
      8 C          14.4059   41.5130    8.0459 C.ar    1  UNL1        0.0860
      9 O          16.5459   41.7711    8.5872 O.2     1  UNL1       -0.4548
     10 C          12.0298   41.3131    7.1346 C.2     1  UNL1        0.2843
     11 O          12.1059   42.3580    6.4343 O.2     1  UNL1       -0.2665
     12 N          13.0869   40.9528    8.0292 N.am    1  UNL1       -0.2756
     13 H          12.8897   40.2551    8.6952 H       1  UNL1        0.1553
     14 C          10.8210   40.4839    7.0814 C.ar    1  UNL1        0.1988
     15 C          10.6206   39.4102    6.2389 C.ar    1  UNL1        0.0455
     16 C           9.3510   38.9520    6.5474 C.ar    1  UNL1        0.0440
     17 C           8.8660   39.7729    7.5515 C.ar    1  UNL1        0.1798
     18 O           9.7728   40.6744    7.8419 O.2     1  UNL1       -0.4458
     19 C          15.3256   40.0789    9.9676 C.3     1  UNL1        0.1426
     20 C          13.9693   39.4194    9.9019 C.ar    1  UNL1        0.0335
     21 C          12.9366   39.9686   10.6712 C.ar    1  UNL1        0.0005
     22 C          11.6592   39.4053   10.6487 C.ar    1  UNL1       -0.0001
     23 C          11.4038   38.2857    9.8549 C.ar    1  UNL1        0.0031
     24 C          12.4253   37.7296    9.0825 C.ar    1  UNL1        0.0366
     25 C          13.7148   38.2876    9.0957 C.ar    1  UNL1        0.1364
     26 C          14.9473   36.3295    8.2082 C.3     1  UNL1        0.2525
     27 O          14.7451   37.7313    8.3281 O.3     1  UNL1       -0.4717
     28 C          17.7049   39.8435    9.9635 C.3     1  UNL1        0.0902
     29 C          18.9038   38.8827    9.9813 C.3     1  UNL1        0.0897
     30 C          17.5781   37.2959   11.1740 C.3     1  UNL1        0.0897
     31 C          16.3841   38.2644   11.1217 C.3     1  UNL1        0.0902
     32 N          16.4338   39.1092    9.9207 N.3     1  UNL1       -0.2617
     33 N          18.4690   37.4830   10.0268 N.3     1  UNL1       -0.2703
     34 C          19.6506   36.6751   10.2791 C.3     1  UNL1        0.0722
     35 C          19.4383   35.8197   11.5145 C.3     1  UNL1        0.0188
@<TRIPOS>BOND
     1     1     9   ar
     2    19     1    1
     3    19    20    1
     4    19    32    1
     5    21    22   ar
     6    23    24   ar
     7    25    27    1
     8    25    20   ar
     9    26    27    1
    10    28    32    1
    11    28    29    1
    12    29    33    1
    13    30    33    1
    14    30    31    1
    15    31    32    1
    16    34    33    1
    17    34    35    1
    18     2     9   ar
    19     3     4   ar
    20     3     8   ar
    21     5     6   ar
    22     7     2   ar
    23     8    12    1
    24    10    14    1
    25    14    18   ar
    26    15    16   ar
    27    17    18   ar
    28    12    10   am
    29    20    21   ar
    30    22    23   ar
    31    24    25   ar
    32     2     3   ar
    33     4     5   ar
    34     6     7   ar
    35     8     1   ar
    36    10    11    2
    37    14    15   ar
    38    16    17   ar
    39    12    13    1
@<TRIPOS>MOLECULE
MolPort-007-711-014 ChemDiv-D485-0051 MCULE-7455843918 PubChem-20899128
 35 39 0 0 0
SMALL
GASTEIGER

@<TRIPOS>ATOM
      1 C           8.8272   40.7837    7.5839 C.ar    1  UNL1        0.1548
      2 C           7.5520   42.3457    6.9120 C.ar    1  UNL1        0.1462
      3 C           7.6089   42.4819    8.2790 C.ar    1  UNL1        0.0507
      4 C           6.8678   43.4527    8.9509 C.ar    1  UNL1        0.0044
      5 C           6.0813   44.3243    8.1770 C.ar    1  UNL1        0.0002
      6 C           6.0428   44.1993    6.7714 C.ar    1  UNL1        0.0031
      7 C           6.7821   43.1948    6.1211 C.ar    1  UNL1        0.0375
      8 C           8.4459   41.4778    8.7228 C.ar    1  UNL1        0.0860
      9 O           8.2828   41.3314    6.5113 O.2     1  UNL1       -0.4548
     10 C           9.4787   41.9335   11.0124 C.2     1  UNL1        0.2843
     11 O          10.0851   42.9737   10.6403 O.2     1  UNL1       -0.2665
     12 N           8.7823   41.1148   10.0678 N.am    1  UNL1       -0.2756
     13 H           8.5088   40.2186   10.3700 H       1  UNL1        0.1553
     14 C           9.5331   41.5191   12.4184 C.ar    1  UNL1        0.1988
     15 C           8.4477   41.3904   13.2598 C.ar    1  UNL1        0.0455
     16 C           8.9854   40.9838   14.4693 C.ar    1  UNL1        0.0440
     17 C          10.3546   40.8928   14.2842 C.ar    1  UNL1        0.1798
     18 O          10.6415   41.2204   13.0474 O.2     1  UNL1       -0.4458
     19 C           9.7204   39.5743    7.5618 C.3     1  UNL1        0.1426
     20 C          10.0029   39.1776    6.1329 C.ar    1  UNL1        0.0335
     21 C           9.2933   38.0938    5.6022 C.ar    1  UNL1        0.0005
     22 C           9.5079   37.6826    4.2852 C.ar    1  UNL1       -0.0001
     23 C          10.4361   38.3532    3.4867 C.ar    1  UNL1        0.0031
     24 C          11.1492   39.4361    4.0046 C.ar    1  UNL1        0.0366
     25 C          10.9418   39.8604    5.3279 C.ar    1  UNL1        0.1364
     26 C          11.3031   42.2959    5.6083 C.3     1  UNL1        0.2525
     27 O          11.6579   40.9419    5.8552 O.3     1  UNL1       -0.4717
     28 C          10.7973   39.1034    9.6438 C.3     1  UNL1        0.0902
     29 C          12.0733   39.2278   10.4906 C.3     1  UNL1        0.0897
     30 C          13.3686   39.2405    8.4856 C.3     1  UNL1        0.0897
     31 C          12.0759   39.1409    7.6580 C.3     1  UNL1        0.0902
     32 N          10.9483   39.7806    8.3495 N.3     1  UNL1       -0.2617
     33 N          13.1366   39.9245    9.7596 N.3     1  UNL1       -0.2703
     34 C          14.3558   39.7830   10.5381 C.3     1  UNL1        0.0722
     35 C          14.0800   38.9673   11.7877 C.3     1  UNL1        0.0188
@<TRIPOS>BOND
     1     1     9   ar
     2    19     1    1
     3    19    20    1
     4    19    32    1
     5    21    22   ar
     6    23    24   ar
     7    25    27    1
     8    25    20   ar
     9    26    27    1
    10    28    32    1
    11    28    29    1
    12    29    33    1
    13    30    33    1
    14    30    31    1
    15    31    32    1
    16    34    33    1
    17    34    35    1
    18     2     9   ar
    19     3     4   ar
    20     3     8   ar
    21     5     6   ar
    22     7     2   ar
    23     8    12    1
    24    10    14    1
    25    14    18   ar
    26    15    16   ar
    27    17    18   ar
    28    12    10   am
    29    20    21   ar
    30    22    23   ar
    31    24    25   ar
    32     2     3   ar
    33     4     5   ar
    34     6     7   ar
    35     8     1   ar
    36    10    11    2
    37    14    15   ar
    38    16    17   ar
    39    12    13    1
@<TRIPOS>MOLECULE
MolPort-007-711-014 ChemDiv-D485-0051 MCULE-7455843918 PubChem-20899128
 35 39 0 0 0
SMALL
GASTEIGER

@<TRIPOS>ATOM
      1 C          12.5627   41.7635    7.1867 C.ar    1  UNL1        0.1548
      2 C          13.7574   43.3477    6.4247 C.ar    1  UNL1        0.1462
      3 C          14.6074   42.5826    7.1880 C.ar    1  UNL1        0.0507
      4 C          15.9398   42.9415    7.3853 C.ar    1  UNL1        0.0044
      5 C          16.4049   44.1017    6.7412 C.ar    1  UNL1        0.0002
      6 C          15.5376   44.8731    5.9377 C.ar    1  UNL1        0.0031
      7 C          14.1910   44.5008    5.7754 C.ar    1  UNL1        0.0375
      8 C          13.8415   41.5434    7.6771 C.ar    1  UNL1        0.0860
      9 O          12.5434   42.8482    6.4316 O.2     1  UNL1       -0.4548
     10 C          15.4910   40.3478    9.2153 C.2     1  UNL1        0.2843
     11 O          16.4939   40.9865    8.7977 O.2     1  UNL1       -0.2665
     12 N          14.2118   40.5060    8.5941 N.am    1  UNL1       -0.2756
     13 H          13.5218   39.8402    8.8172 H       1  UNL1        0.1553
     14 C          15.6421   39.3852   10.3118 C.ar    1  UNL1        0.1988
     15 C          14.6788   39.0805   11.2508 C.ar    1  UNL1        0.0455
     16 C          15.2718   38.1352   12.0705 C.ar    1  UNL1        0.0440
     17 C          16.5495   37.9290   11.5784 C.ar    1  UNL1        0.1798
     18 O          16.7319   38.6934   10.5288 O.2     1  UNL1       -0.4458
     19 C          11.3619   40.9059    7.4755 C.3     1  UNL1        0.1426
     20 C          10.2049   41.7782    7.8991 C.ar    1  UNL1        0.0335
     21 C           9.2353   42.0910    6.9390 C.ar    1  UNL1        0.0005
     22 C           8.1397   42.8900    7.2721 C.ar    1  UNL1       -0.0001
     23 C           8.0048   43.3837    8.5708 C.ar    1  UNL1        0.0031
     24 C           8.9648   43.0777    9.5374 C.ar    1  UNL1        0.0366
     25 C          10.0714   42.2740    9.2152 C.ar    1  UNL1        0.1364
     26 C          10.8649   40.9494   11.1534 C.3     1  UNL1        0.2525
     27 O          11.0407   41.9684   10.1781 O.3     1  UNL1       -0.4717
     28 C           9.6781   39.4833    6.5496 C.3     1  UNL1        0.0902
     29 C           9.2430   38.6038    5.3673 C.3     1  UNL1        0.0897
     30 C          10.5437   39.9727    3.9071 C.3     1  UNL1        0.0897
     31 C          10.9855   40.8238    5.1097 C.3     1  UNL1        0.0902
     32 N          11.0271   40.0256    6.3426 N.3     1  UNL1       -0.2617
     33 N          10.2543   38.5934    4.3054 N.3     1  UNL1       -0.2703
     34 C           9.6578   37.9415    3.1515 C.3     1  UNL1        0.0722
     35 C          10.0439   36.4741    3.1293 C.3     1  UNL1        0.0188
@<TRIPOS>BOND
     1     1     9   ar
     2    19     1    1
     3    19    20    1
     4    19    32    1
     5    21    22   ar
     6    23    24   ar
     7    25    27    1
     8    25    20   ar
     9    26    27    1
    10    28    32    1
    11    28    29    1
    12    29    33    1
    13    30    33    1
    14    30    31    1
    15    31    32    1
    16    34    33    1
    17    34    35    1
    18     2     9   ar
    19     3     4   ar
    20     3     8   ar
    21     5     6   ar
    22     7     2   ar
    23     8    12    1
    24    10    14    1
    25    14    18   ar
    26    15    16   ar
    27    17    18   ar
    28    12    10   am
    29    20    21   ar
    30    22    23   ar
    31    24    25   ar
    32     2     3   ar
    33     4     5   ar
    34     6     7   ar
    35     8     1   ar
    36    10    11    2
    37    14    15   ar
    38    16    17   ar
    39    12    13    1
@<TRIPOS>MOLECULE
MolPort-007-711-014 ChemDiv-D485-0051 MCULE-7455843918 PubChem-20899128
 35 39 0 0 0
SMALL
GASTEIGER

@<TRIPOS>ATOM
      1 C          14.2912   40.5724    9.1343 C.ar    1  UNL1        0.1548
      2 C          15.2643   38.8767    9.9682 C.ar    1  UNL1        0.1462
      3 C          14.1088   39.0312   10.6973 C.ar    1  UNL1        0.0507
      4 C          13.8093   38.2066   11.7806 C.ar    1  UNL1        0.0044
      5 C          14.7153   37.1753   12.0852 C.ar    1  UNL1        0.0002
      6 C          15.8893   37.0022   11.3205 C.ar    1  UNL1        0.0031
      7 C          16.1786   37.8641   10.2474 C.ar    1  UNL1        0.0375
      8 C          13.4640   40.1240   10.1536 C.ar    1  UNL1        0.0860
      9 O          15.3599   39.8003    9.0402 O.2     1  UNL1       -0.4548
     10 C          10.9280   40.2811   10.4003 C.2     1  UNL1        0.2843
     11 O          10.6934   39.3426    9.5926 O.2     1  UNL1       -0.2665
     12 N          12.2601   40.7680   10.5897 N.am    1  UNL1       -0.2756
     13 H          12.3589   41.6251   11.0637 H       1  UNL1        0.1553
     14 C           9.8202   40.9261   11.1133 C.ar    1  UNL1        0.1988
     15 C           8.7216   41.5162   10.5238 C.ar    1  UNL1        0.0455
     16 C           7.9613   41.9829   11.5826 C.ar    1  UNL1        0.0440
     17 C           8.6443   41.6477   12.7395 C.ar    1  UNL1        0.1798
     18 O           9.7485   41.0183   12.4170 O.2     1  UNL1       -0.4458
     19 C          14.0267   41.7696    8.2639 C.3     1  UNL1        0.1426
     20 C          15.3364   42.3564    7.7957 C.ar    1  UNL1        0.0335
     21 C          16.5111   41.9103    8.4127 C.ar    1  UNL1        0.0005
     22 C          17.7532   42.4129    8.0199 C.ar    1  UNL1       -0.0001
     23 C          17.8304   43.3680    7.0046 C.ar    1  UNL1        0.0031
     24 C          16.6659   43.8199    6.3810 C.ar    1  UNL1        0.0366
     25 C          15.4100   43.3213    6.7665 C.ar    1  UNL1        0.1364
     26 C          14.2392   44.7387    5.1048 C.3     1  UNL1        0.2525
     27 O          14.2379   43.7747    6.1493 O.3     1  UNL1       -0.4717
     28 C          12.7841   40.0224    7.2057 C.3     1  UNL1        0.0902
     29 C          11.7821   39.6392    6.1057 C.3     1  UNL1        0.0897
     30 C          10.8285   41.8225    6.2532 C.3     1  UNL1        0.0897
     31 C          11.8576   42.1914    7.3353 C.3     1  UNL1        0.0902
     32 N          13.1142   41.4524    7.1516 N.3     1  UNL1       -0.2617
     33 N          11.3573   40.8119    5.3345 N.3     1  UNL1       -0.2703
     34 C          10.2499   40.3927    4.4919 C.3     1  UNL1        0.0722
     35 C           9.5358   39.2128    5.1250 C.3     1  UNL1        0.0188
@<TRIPOS>BOND
     1     1     9   ar
     2    19     1    1
     3    19    20    1
     4    19    32    1
     5    21    22   ar
     6    23    24   ar
     7    25    27    1
     8    25    20   ar
     9    26    27    1
    10    28    32    1
    11    28    29    1
    12    29    33    1
    13    30    33    1
    14    30    31    1
    15    31    32    1
    16    34    33    1
    17    34    35    1
    18     2     9   ar
    19     3     4   ar
    20     3     8   ar
    21     5     6   ar
    22     7     2   ar
    23     8    12    1
    24    10    14    1
    25    14    18   ar
    26    15    16   ar
    27    17    18   ar
    28    12    10   am
    29    20    21   ar
    30    22    23   ar
    31    24    25   ar
    32     2     3   ar
    33     4     5   ar
    34     6     7   ar
    35     8     1   ar
    36    10    11    2
    37    14    15   ar
    38    16    17   ar
    39    12    13    1
@<TRIPOS>MOLECULE
MolPort-007-711-014 ChemDiv-D485-0051 MCULE-7455843918 PubChem-20899128
 35 39 0 0 0
SMALL
GASTEIGER

@<TRIPOS>ATOM
      1 C          13.2507   42.1012    7.5581 C.ar    1  UNL1        0.1548
      2 C          14.3620   43.6389    6.6000 C.ar    1  UNL1        0.1462
      3 C          15.3002   42.7914    7.1403 C.ar    1  UNL1        0.0507
      4 C          16.6657   43.0585    7.0548 C.ar    1  UNL1        0.0044
      5 C          17.0617   44.2137    6.3577 C.ar    1  UNL1        0.0002
      6 C          16.0985   45.0703    5.7821 C.ar    1  UNL1        0.0031
      7 C          14.7258   44.7891    5.9043 C.ar    1  UNL1        0.0375
      8 C          14.5863   41.7820    7.7544 C.ar    1  UNL1        0.0860
      9 O          13.1458   43.2156    6.8553 O.2     1  UNL1       -0.4548
     10 C          16.3056   40.6488    9.2632 C.2     1  UNL1        0.2843
     11 O          17.2015   41.5100    9.0536 O.2     1  UNL1       -0.2665
     12 N          15.0711   40.6862    8.5408 N.am    1  UNL1       -0.2756
     13 H          14.5016   39.8845    8.5882 H       1  UNL1        0.1553
     14 C          16.5479   39.5584   10.2140 C.ar    1  UNL1        0.1988
     15 C          17.6258   38.6981   10.1909 C.ar    1  UNL1        0.0455
     16 C          17.4236   37.8504   11.2669 C.ar    1  UNL1        0.0440
     17 C          16.2425   38.2492   11.8696 C.ar    1  UNL1        0.1798
     18 O          15.7505   39.2711   11.2115 O.2     1  UNL1       -0.4458
     19 C          12.0827   41.3082    8.0758 C.3     1  UNL1        0.1426
     20 C          11.1452   40.9833    6.9381 C.ar    1  UNL1        0.0335
     21 C          11.7087   40.6422    5.7029 C.ar    1  UNL1        0.0005
     22 C          10.8930   40.3274    4.6142 C.ar    1  UNL1       -0.0001
     23 C           9.5041   40.3514    4.7525 C.ar    1  UNL1        0.0031
     24 C           8.9303   40.6892    5.9797 C.ar    1  UNL1        0.0366
     25 C           9.7402   41.0071    7.0831 C.ar    1  UNL1        0.1364
     26 C           8.7144   42.6649    8.6129 C.3     1  UNL1        0.2525
     27 O           9.1712   41.3523    8.3149 O.3     1  UNL1       -0.4717
     28 C          12.2785   40.3347   10.2507 C.3     1  UNL1        0.0902
     29 C          12.6502   39.0941   11.0774 C.3     1  UNL1        0.0897
     30 C          12.0213   37.7129    9.2350 C.3     1  UNL1        0.0897
     31 C          11.6793   38.9704    8.4178 C.3     1  UNL1        0.0902
     32 N          12.5141   40.1112    8.8185 N.3     1  UNL1       -0.2617
     33 N          13.0725   37.9834   10.2181 N.3     1  UNL1       -0.2703
     34 C          13.1708   36.8031   11.0604 C.3     1  UNL1        0.0722
     35 C          12.0244   35.8556   10.7592 C.3     1  UNL1        0.0188
@<TRIPOS>BOND
     1     1     9   ar
     2    19     1    1
     3    19    20    1
     4    19    32    1
     5    21    22   ar
     6    23    24   ar
     7    25    27    1
     8    25    20   ar
     9    26    27    1
    10    28    32    1
    11    28    29    1
    12    29    33    1
    13    30    33    1
    14    30    31    1
    15    31    32    1
    16    34    33    1
    17    34    35    1
    18     2     9   ar
    19     3     4   ar
    20     3     8   ar
    21     5     6   ar
    22     7     2   ar
    23     8    12    1
    24    10    14    1
    25    14    18   ar
    26    15    16   ar
    27    17    18   ar
    28    12    10   am
    29    20    21   ar
    30    22    23   ar
    31    24    25   ar
    32     2     3   ar
    33     4     5   ar
    34     6     7   ar
    35     8     1   ar
    36    10    11    2
    37    14    15   ar
    38    16    17   ar
    39    12    13    1
@<TRIPOS>MOLECULE
MolPort-007-711-014 ChemDiv-D485-0051 MCULE-7455843918 PubChem-20899128
 35 39 0 0 0
SMALL
GASTEIGER

@<TRIPOS>ATOM
      1 C          10.4312   40.5609    7.8031 C.ar    1  UNL1        0.1548
      2 C           9.6978   39.4397    6.1531 C.ar    1  UNL1        0.1462
      3 C          10.6188   40.3119    5.6227 C.ar    1  UNL1        0.0507
      4 C          10.8617   40.3779    4.2516 C.ar    1  UNL1        0.0044
      5 C          10.1571   39.4886    3.4210 C.ar    1  UNL1        0.0002
      6 C           9.2295   38.5765    3.9693 C.ar    1  UNL1        0.0031
      7 C           8.9864   38.5479    5.3544 C.ar    1  UNL1        0.0375
      8 C          11.1097   41.0362    6.6904 C.ar    1  UNL1        0.0860
      9 O           9.5966   39.5978    7.4524 O.2     1  UNL1       -0.4548
     10 C          13.4475   42.0457    6.8689 C.2     1  UNL1        0.2843
     11 O          13.9764   40.9894    7.3078 O.2     1  UNL1       -0.2665
     12 N          12.0311   42.1340    6.6862 N.am    1  UNL1       -0.2756
     13 H          11.6544   43.0324    6.5445 H       1  UNL1        0.1553
     14 C          14.2808   43.2218    6.5964 C.ar    1  UNL1        0.1988
     15 C          15.5911   43.3867    6.9944 C.ar    1  UNL1        0.0455
     16 C          15.9506   44.6352    6.5157 C.ar    1  UNL1        0.0440
     17 C          14.8410   45.1441    5.8621 C.ar    1  UNL1        0.1798
     18 O          13.8655   44.2708    5.9326 O.2     1  UNL1       -0.4458
     19 C          10.6030   41.0686    9.2080 C.3     1  UNL1        0.1426
     20 C           9.2487   41.2895    9.8374 C.ar    1  UNL1        0.0335
     21 C           8.1359   41.3521    8.9905 C.ar    1  UNL1        0.0005
     22 C           6.8567   41.5501    9.5141 C.ar    1  UNL1       -0.0001
     23 C           6.6800   41.6875   10.8920 C.ar    1  UNL1        0.0031
     24 C           7.7821   41.6259   11.7469 C.ar    1  UNL1        0.0366
     25 C           9.0743   41.4261   11.2326 C.ar    1  UNL1        0.1364
     26 C          10.0697   41.2130   13.4919 C.3     1  UNL1        0.2525
     27 O          10.1845   41.3693   12.0838 O.3     1  UNL1       -0.4717
     28 C          11.5559   38.8803    9.3475 C.3     1  UNL1        0.0902
     29 C          12.4980   37.9321   10.1051 C.3     1  UNL1        0.0897
     30 C          13.7976   39.8144   10.7877 C.3     1  UNL1        0.0897
     31 C          12.8265   40.7463   10.0428 C.3     1  UNL1        0.0902
     32 N          11.4681   40.1873   10.0113 N.3     1  UNL1       -0.2617
     33 N          13.1235   38.5997   11.2512 N.3     1  UNL1       -0.2703
     34 C          14.1596   37.7117   11.7515 C.3     1  UNL1        0.0722
     35 C          15.4694   38.4669   11.8821 C.3     1  UNL1        0.0188
@<TRIPOS>BOND
     1     1     9   ar
     2    19     1    1
     3    19    20    1
     4    19    32    1
     5    21    22   ar
     6    23    24   ar
     7    25    27    1
     8    25    20   ar
     9    26    27    1
    10    28    32    1
    11    28    29    1
    12    29    33    1
    13    30    33    1
    14    30    31    1
    15    31    32    1
    16    34    33    1
    17    34    35    1
    18     2     9   ar
    19     3     4   ar
    20     3     8   ar
    21     5     6   ar
    22     7     2   ar
    23     8    12    1
    24    10    14    1
    25    14    18   ar
    26    15    16   ar
    27    17    18   ar
    28    12    10   am
    29    20    21   ar
    30    22    23   ar
    31    24    25   ar
    32     2     3   ar
    33     4     5   ar
    34     6     7   ar
    35     8     1   ar
    36    10    11    2
    37    14    15   ar
    38    16    17   ar
    39    12    13    1
@<TRIPOS>MOLECULE
MolPort-007-711-014 ChemDiv-D485-0051 MCULE-7455843918 PubChem-20899128
 35 39 0 0 0
SMALL
GASTEIGER

@<TRIPOS>ATOM
      1 C          12.5654   42.0410    7.3385 C.ar    1  UNL1        0.1548
      2 C          13.8766   43.4937    6.5092 C.ar    1  UNL1        0.1462
      3 C          14.6870   42.6128    7.1857 C.ar    1  UNL1        0.0507
      4 C          16.0643   42.8063    7.2786 C.ar    1  UNL1        0.0044
      5 C          16.6122   43.9210    6.6194 C.ar    1  UNL1        0.0002
      6 C          15.7822   44.8114    5.9044 C.ar    1  UNL1        0.0031
      7 C          14.3921   44.6052    5.8472 C.ar    1  UNL1        0.0375
      8 C          13.8437   41.6580    7.7175 C.ar    1  UNL1        0.0860
      9 O          12.6159   43.1409    6.6073 O.2     1  UNL1       -0.4548
     10 C          15.4010   40.3510    9.2611 C.2     1  UNL1        0.2843
     11 O          16.4276   41.0094    8.9437 O.2     1  UNL1       -0.2665
     12 N          14.1590   40.5590    8.5818 N.am    1  UNL1       -0.2756
     13 H          13.4555   39.8845    8.7211 H       1  UNL1        0.1553
     14 C          15.4877   39.3161   10.2971 C.ar    1  UNL1        0.1988
     15 C          14.4668   38.9432   11.1464 C.ar    1  UNL1        0.0455
     16 C          15.0127   37.9467   11.9378 C.ar    1  UNL1        0.0440
     17 C          16.3222   37.7807   11.5195 C.ar    1  UNL1        0.1798
     18 O          16.5670   38.6162   10.5390 O.2     1  UNL1       -0.4458
     19 C          11.2973   41.3234    7.7099 C.3     1  UNL1        0.1426
     20 C          10.4259   42.2309    8.5442 C.ar    1  UNL1        0.0335
     21 C          10.9562   42.7291    9.7402 C.ar    1  UNL1        0.0005
     22 C          10.1999   43.5765   10.5523 C.ar    1  UNL1       -0.0001
     23 C           8.9042   43.9330   10.1741 C.ar    1  UNL1        0.0031
     24 C           8.3648   43.4432    8.9831 C.ar    1  UNL1        0.0366
     25 C           9.1159   42.5905    8.1566 C.ar    1  UNL1        0.1364
     26 C           7.4305   42.6511    6.3410 C.3     1  UNL1        0.2525
     27 O           8.5788   42.0911    6.9640 O.3     1  UNL1       -0.4717
     28 C          11.5468   40.7253    5.4086 C.3     1  UNL1        0.0902
     29 C          10.8934   40.1165    4.1583 C.3     1  UNL1        0.0897
     30 C           9.5136   38.7728    5.5684 C.3     1  UNL1        0.0897
     31 C          10.1647   39.4145    6.8054 C.3     1  UNL1        0.0902
     32 N          10.5981   40.7906    6.5277 N.3     1  UNL1       -0.2617
     33 N           9.5164   39.6896    4.4263 N.3     1  UNL1       -0.2703
     34 C           9.0731   38.9230    3.2738 C.3     1  UNL1        0.0722
     35 C           9.8344   37.6122    3.2005 C.3     1  UNL1        0.0188
@<TRIPOS>BOND
     1     1     9   ar
     2    19     1    1
     3    19    20    1
     4    19    32    1
     5    21    22   ar
     6    23    24   ar
     7    25    27    1
     8    25    20   ar
     9    26    27    1
    10    28    32    1
    11    28    29    1
    12    29    33    1
    13    30    33    1
    14    30    31    1
    15    31    32    1
    16    34    33    1
    17    34    35    1
    18     2     9   ar
    19     3     4   ar
    20     3     8   ar
    21     5     6   ar
    22     7     2   ar
    23     8    12    1
    24    10    14    1
    25    14    18   ar
    26    15    16   ar
    27    17    18   ar
    28    12    10   am
    29    20    21   ar
    30    22    23   ar
    31    24    25   ar
    32     2     3   ar
    33     4     5   ar
    34     6     7   ar
    35     8     1   ar
    36    10    11    2
    37    14    15   ar
    38    16    17   ar
    39    12    13    1
@<TRIPOS>MOLECULE
MolPort-007-711-014 ChemDiv-D485-0051 MCULE-7455843918 PubChem-20899128
 35 39 0 0 0
SMALL
GASTEIGER

@<TRIPOS>ATOM
      1 C          13.3603   41.5178    7.6052 C.ar    1  UNL1        0.1548
      2 C          14.1602   43.1934    6.5709 C.ar    1  UNL1        0.1462
      3 C          15.1911   42.7143    7.3444 C.ar    1  UNL1        0.0507
      4 C          16.4312   43.3494    7.3889 C.ar    1  UNL1        0.0044
      5 C          16.6115   44.4853    6.5799 C.ar    1  UNL1        0.0002
      6 C          15.5602   44.9620    5.7673 C.ar    1  UNL1        0.0031
      7 C          14.3110   44.3156    5.7601 C.ar    1  UNL1        0.0375
      8 C          14.6832   41.6172    8.0108 C.ar    1  UNL1        0.0860
      9 O          13.0763   42.4712    6.7349 O.2     1  UNL1       -0.4548
     10 C          15.2184   39.3749    9.1071 C.2     1  UNL1        0.2843
     11 O          14.3511   38.7370    8.4522 O.2     1  UNL1       -0.2665
     12 N          15.3097   40.7994    9.0070 N.am    1  UNL1       -0.2756
     13 H          15.8536   41.2606    9.6858 H       1  UNL1        0.1553
     14 C          16.1085   38.6619   10.0296 C.ar    1  UNL1        0.1988
     15 C          15.7323   38.0911   11.2276 C.ar    1  UNL1        0.0455
     16 C          16.8969   37.5431   11.7382 C.ar    1  UNL1        0.0440
     17 C          17.8985   37.8156   10.8219 C.ar    1  UNL1        0.1798
     18 O          17.3878   38.4848    9.8166 O.2     1  UNL1       -0.4458
     19 C          12.3787   40.4863    8.0882 C.3     1  UNL1        0.1426
     20 C          11.5552   41.0582    9.2169 C.ar    1  UNL1        0.0335
     21 C          11.0552   42.3574    9.0691 C.ar    1  UNL1        0.0005
     22 C          10.2833   42.9389   10.0768 C.ar    1  UNL1       -0.0001
     23 C          10.0047   42.2242   11.2432 C.ar    1  UNL1        0.0031
     24 C          10.4969   40.9273   11.4017 C.ar    1  UNL1        0.0366
     25 C          11.2741   40.3305   10.3946 C.ar    1  UNL1        0.1364
     26 C          11.1551   37.8915    9.9727 C.3     1  UNL1        0.2525
     27 O          11.7757   39.0326   10.5498 O.3     1  UNL1       -0.4717
     28 C          10.1357   40.1095    7.3510 C.3     1  UNL1        0.0902
     29 C           9.2164   39.6307    6.2168 C.3     1  UNL1        0.0897
     30 C          10.8650   40.3129    4.6310 C.3     1  UNL1        0.0897
     31 C          11.7785   40.7621    5.7842 C.3     1  UNL1        0.0902
     32 N          11.5511   39.9555    6.9910 N.3     1  UNL1       -0.2617
     33 N           9.9872   39.2145    5.0408 N.3     1  UNL1       -0.2703
     34 C           9.0399   39.0102    3.9576 C.3     1  UNL1        0.0722
     35 C           9.6437   38.0955    2.9080 C.3     1  UNL1        0.0188
@<TRIPOS>BOND
     1     1     9   ar
     2    19     1    1
     3    19    20    1
     4    19    32    1
     5    21    22   ar
     6    23    24   ar
     7    25    27    1
     8    25    20   ar
     9    26    27    1
    10    28    32    1
    11    28    29    1
    12    29    33    1
    13    30    33    1
    14    30    31    1
    15    31    32    1
    16    34    33    1
    17    34    35    1
    18     2     9   ar
    19     3     4   ar
    20     3     8   ar
    21     5     6   ar
    22     7     2   ar
    23     8    12    1
    24    10    14    1
    25    14    18   ar
    26    15    16   ar
    27    17    18   ar
    28    12    10   am
    29    20    21   ar
    30    22    23   ar
    31    24    25   ar
    32     2     3   ar
    33     4     5   ar
    34     6     7   ar
    35     8     1   ar
    36    10    11    2
    37    14    15   ar
    38    16    17   ar
    39    12    13    1
@<TRIPOS>MOLECULE
MolPort-007-711-014 ChemDiv-D485-0051 MCULE-7455843918 PubChem-20899128
 35 39 0 0 0
SMALL
GASTEIGER

@<TRIPOS>ATOM
      1 C          13.2625   41.5507    7.0351 C.ar    1  UNL1        0.1548
      2 C          14.0239   43.3839    6.2753 C.ar    1  UNL1        0.1462
      3 C          15.0452   42.8443    7.0212 C.ar    1  UNL1        0.0507
      4 C          16.2523   43.5164    7.2068 C.ar    1  UNL1        0.0044
      5 C          16.4113   44.7594    6.5690 C.ar    1  UNL1        0.0002
      6 C          15.3711   45.3012    5.7832 C.ar    1  UNL1        0.0031
      7 C          14.1541   44.6124    5.6326 C.ar    1  UNL1        0.0375
      8 C          14.5629   41.6462    7.5086 C.ar    1  UNL1        0.0860
      9 O          12.9687   42.6030    6.2911 O.2     1  UNL1       -0.4548
     10 C          16.5341   40.7957    8.8897 C.2     1  UNL1        0.2843
     11 O          17.3733   41.5600    8.3423 O.2     1  UNL1       -0.2665
     12 N          15.1876   40.7244    8.4109 N.am    1  UNL1       -0.2756
     13 H          14.6392   39.9720    8.7310 H       1  UNL1        0.1553
     14 C          16.9507   39.9226    9.9924 C.ar    1  UNL1        0.1988
     15 C          16.1164   39.3882   10.9521 C.ar    1  UNL1        0.0455
     16 C          16.9505   38.6445   11.7698 C.ar    1  UNL1        0.0440
     17 C          18.2296   38.7755   11.2560 C.ar    1  UNL1        0.1798
     18 O          18.1876   39.5460   10.1958 O.2     1  UNL1       -0.4458
     19 C          12.3114   40.4238    7.3290 C.3     1  UNL1        0.1426
     20 C          12.3295   40.1163    8.8069 C.ar    1  UNL1        0.0335
     21 C          11.7817   41.0642    9.6793 C.ar    1  UNL1        0.0005
     22 C          11.7657   40.8344   11.0565 C.ar    1  UNL1       -0.0001
     23 C          12.2987   39.6522   11.5733 C.ar    1  UNL1        0.0031
     24 C          12.8470   38.6989   10.7131 C.ar    1  UNL1        0.0366
     25 C          12.8684   38.9178    9.3253 C.ar    1  UNL1        0.1364
     26 C          13.9737   36.7391    8.9100 C.3     1  UNL1        0.2525
     27 O          13.4220   37.9685    8.4578 O.3     1  UNL1       -0.4717
     28 C          10.1864   39.4481    6.8304 C.3     1  UNL1        0.0902
     29 C           8.7393   39.6801    6.3693 C.3     1  UNL1        0.0897
     30 C           8.8229   41.8744    7.3055 C.3     1  UNL1        0.0897
     31 C          10.2791   41.6280    7.7353 C.3     1  UNL1        0.0902
     32 N          10.9562   40.6987    6.8206 N.3     1  UNL1       -0.2617
     33 N           8.4797   41.1001    6.1107 N.3     1  UNL1       -0.2703
     34 C           7.0467   41.2454    5.9158 C.3     1  UNL1        0.0722
     35 C           6.3290   40.0024    6.4084 C.3     1  UNL1        0.0188
@<TRIPOS>BOND
     1     1     9   ar
     2    19     1    1
     3    19    20    1
     4    19    32    1
     5    21    22   ar
     6    23    24   ar
     7    25    27    1
     8    25    20   ar
     9    26    27    1
    10    28    32    1
    11    28    29    1
    12    29    33    1
    13    30    33    1
    14    30    31    1
    15    31    32    1
    16    34    33    1
    17    34    35    1
    18     2     9   ar
    19     3     4   ar
    20     3     8   ar
    21     5     6   ar
    22     7     2   ar
    23     8    12    1
    24    10    14    1
    25    14    18   ar
    26    15    16   ar
    27    17    18   ar
    28    12    10   am
    29    20    21   ar
    30    22    23   ar
    31    24    25   ar
    32     2     3   ar
    33     4     5   ar
    34     6     7   ar
    35     8     1   ar
    36    10    11    2
    37    14    15   ar
    38    16    17   ar
    39    12    13    1
