@<TRIPOS>MOLECULE
MolPort-002-876-469 1396520 CHEMBL1601509 CSSS00025731023 MCULE-5509480574 PubChem-1483052 ZINC000001396520 ZINC01396520
 27 29 0 0 0
SMALL
GASTEIGER

@<TRIPOS>ATOM
      1 C          17.4738   43.5046    7.8781 C.3     1  UNL1        0.0727
      2 C          16.0980   43.0958    7.4707 C.ar    1  UNL1        0.1297
      3 C          15.4919   41.9275    7.9755 C.ar    1  UNL1        0.0708
      4 C          14.1719   41.6624    7.6093 C.ar    1  UNL1        0.0272
      5 C          13.4914   42.5227    6.7518 C.ar    1  UNL1        0.1278
      6 C          14.1854   43.6340    6.2371 C.ar    1  UNL1        0.3591
      7 O          13.6486   44.3945    5.3895 O.2     1  UNL1       -0.2431
      8 O          15.4340   43.8787    6.6246 O.2     1  UNL1       -0.4245
      9 C          11.4870   40.9481    6.6136 C.2     1  UNL1        0.2497
     10 N          12.1456   42.1995    6.3761 N.am    1  UNL1       -0.2753
     11 O          12.1582   39.9277    6.9289 O.2     1  UNL1       -0.2698
     12 H          11.6283   42.8984    5.9145 H       1  UNL1        0.1554
     13 C          10.0283   40.8411    6.4368 C.ar    1  UNL1        0.0545
     14 C           9.2151   41.9795    6.5407 C.ar    1  UNL1        0.0159
     15 C           7.8313   41.8773    6.3711 C.ar    1  UNL1        0.0578
     16 C           7.2504   40.6366    6.0959 C.ar    1  UNL1        0.0114
     17 C           8.0532   39.4977    5.9903 C.ar    1  UNL1        0.0010
     18 C           9.4371   39.5998    6.1599 C.ar    1  UNL1        0.0046
     19 CL          6.8265   43.3041    6.5032 Cl      1  UNL1       -0.0822
     20 C          16.1752   40.9984    8.9001 C.2     1  UNL1        0.1982
     21 O          17.4338   40.9258    8.8616 O.2     1  UNL1       -0.2865
     22 C          15.4334   40.1918    9.8944 C.ar    1  UNL1        0.0390
     23 C          16.1216   39.2900   10.7200 C.ar    1  UNL1        0.0032
     24 C          15.4339   38.5382   11.6771 C.ar    1  UNL1        0.0001
     25 C          14.0521   38.6867   11.8216 C.ar    1  UNL1        0.0000
     26 C          13.3584   39.5890   11.0113 C.ar    1  UNL1        0.0001
     27 C          14.0464   40.3405   10.0545 C.ar    1  UNL1        0.0032
@<TRIPOS>BOND
     1     1     2    1
     2     2     8   ar
     3     3     4   ar
     4     3    20    1
     5     5    10    1
     6     5     6   ar
     7     9    13    1
     8    14    15   ar
     9    15    19    1
    10    16    17   ar
    11    18    13   ar
    12     6     8   ar
    13    20    22    1
    14    23    24   ar
    15    25    26   ar
    16    27    22   ar
    17    10     9   am
    18     2     3   ar
    19     4     5   ar
    20     9    11    2
    21    13    14   ar
    22    15    16   ar
    23    17    18   ar
    24     6     7    2
    25    20    21    2
    26    22    23   ar
    27    24    25   ar
    28    26    27   ar
    29    10    12    1
@<TRIPOS>MOLECULE
MolPort-002-876-469 1396520 CHEMBL1601509 CSSS00025731023 MCULE-5509480574 PubChem-1483052 ZINC000001396520 ZINC01396520
 27 29 0 0 0
SMALL
GASTEIGER

@<TRIPOS>ATOM
      1 C          17.5250   42.6436    7.8798 C.3     1  UNL1        0.0727
      2 C          16.0544   42.4775    7.6906 C.ar    1  UNL1        0.1297
      3 C          15.3347   41.4536    8.3392 C.ar    1  UNL1        0.0708
      4 C          13.9495   41.4198    8.1749 C.ar    1  UNL1        0.0272
      5 C          13.3112   42.3623    7.3731 C.ar    1  UNL1        0.1278
      6 C          14.1051   43.3139    6.7057 C.ar    1  UNL1        0.3591
      7 O          13.5908   44.1326    5.8993 O.2     1  UNL1       -0.2431
      8 O          15.4203   43.3411    6.9021 O.2     1  UNL1       -0.4245
      9 C          11.0616   41.1823    7.6251 C.2     1  UNL1        0.2497
     10 N          11.8894   42.2758    7.2063 N.am    1  UNL1       -0.2753
     11 O          11.5806   40.0726    7.9257 O.2     1  UNL1       -0.2698
     12 H          11.4422   43.0340    6.7654 H       1  UNL1        0.1554
     13 C           9.5970   41.3392    7.6532 C.ar    1  UNL1        0.0545
     14 C           8.7733   40.4420    6.9571 C.ar    1  UNL1        0.0159
     15 C           7.3836   40.5906    6.9857 C.ar    1  UNL1        0.0578
     16 C           6.8072   41.6369    7.7107 C.ar    1  UNL1        0.0114
     17 C           7.6204   42.5348    8.4073 C.ar    1  UNL1        0.0010
     18 C           9.0102   42.3862    8.3787 C.ar    1  UNL1        0.0046
     19 CL          6.3658   39.4656    6.1134 Cl      1  UNL1       -0.0822
     20 C          15.9736   40.4452    9.2109 C.2     1  UNL1        0.1982
     21 O          17.2171   40.5193    9.4084 O.2     1  UNL1       -0.2865
     22 C          15.1943   39.3870    9.8909 C.ar    1  UNL1        0.0390
     23 C          14.2335   39.7323   10.8533 C.ar    1  UNL1        0.0032
     24 C          13.4768   38.7422   11.4868 C.ar    1  UNL1        0.0001
     25 C          13.6697   37.3979   11.1583 C.ar    1  UNL1        0.0000
     26 C          14.6170   37.0437   10.1944 C.ar    1  UNL1        0.0001
     27 C          15.3733   38.0339    9.5613 C.ar    1  UNL1        0.0032
@<TRIPOS>BOND
     1     1     2    1
     2     2     8   ar
     3     3     4   ar
     4     3    20    1
     5     5    10    1
     6     5     6   ar
     7     9    13    1
     8    14    15   ar
     9    15    19    1
    10    16    17   ar
    11    18    13   ar
    12     6     8   ar
    13    20    22    1
    14    23    24   ar
    15    25    26   ar
    16    27    22   ar
    17    10     9   am
    18     2     3   ar
    19     4     5   ar
    20     9    11    2
    21    13    14   ar
    22    15    16   ar
    23    17    18   ar
    24     6     7    2
    25    20    21    2
    26    22    23   ar
    27    24    25   ar
    28    26    27   ar
    29    10    12    1
@<TRIPOS>MOLECULE
MolPort-002-876-469 1396520 CHEMBL1601509 CSSS00025731023 MCULE-5509480574 PubChem-1483052 ZINC000001396520 ZINC01396520
 27 29 0 0 0
SMALL
GASTEIGER

@<TRIPOS>ATOM
      1 C          11.6963   35.8869   10.6340 C.3     1  UNL1        0.0727
      2 C          12.4224   37.1203   10.2129 C.ar    1  UNL1        0.1297
      3 C          13.6294   37.0586    9.4873 C.ar    1  UNL1        0.0708
      4 C          14.1999   38.2579    9.0594 C.ar    1  UNL1        0.0272
      5 C          13.5966   39.4748    9.3658 C.ar    1  UNL1        0.1278
      6 C          12.4280   39.4582   10.1503 C.ar    1  UNL1        0.3591
      7 O          11.8910   40.5311   10.5316 O.2     1  UNL1       -0.2431
      8 O          11.8899   38.2998   10.5212 O.2     1  UNL1       -0.4245
      9 C          15.6434   40.9238    8.8893 C.2     1  UNL1        0.2497
     10 N          14.2299   40.6865    8.9328 N.am    1  UNL1       -0.2753
     11 O          16.4342   40.1606    9.5084 O.2     1  UNL1       -0.2698
     12 H          13.6424   41.4200    8.6397 H       1  UNL1        0.1554
     13 C          16.1693   42.0931    8.1636 C.ar    1  UNL1        0.0545
     14 C          15.3526   42.7991    7.2677 C.ar    1  UNL1        0.0159
     15 C          15.8521   43.9094    6.5808 C.ar    1  UNL1        0.0578
     16 C          17.1713   44.3224    6.7848 C.ar    1  UNL1        0.0114
     17 C          17.9915   43.6251    7.6758 C.ar    1  UNL1        0.0010
     18 C          17.4921   42.5146    8.3627 C.ar    1  UNL1        0.0046
     19 CL         14.8243   44.7824    5.4654 Cl      1  UNL1       -0.0822
     20 C          14.2916   35.7866    9.1287 C.2     1  UNL1        0.1982
     21 O          13.6966   34.7040    9.3830 O.2     1  UNL1       -0.2865
     22 C          15.6021   35.7488    8.4426 C.ar    1  UNL1        0.0390
     23 C          15.6667   35.4724    7.0686 C.ar    1  UNL1        0.0032
     24 C          16.8974   35.4548    6.4059 C.ar    1  UNL1        0.0001
     25 C          18.0744   35.7204    7.1105 C.ar    1  UNL1        0.0000
     26 C          18.0205   36.0064    8.4770 C.ar    1  UNL1        0.0001
     27 C          16.7898   36.0239    9.1392 C.ar    1  UNL1        0.0032
@<TRIPOS>BOND
     1     1     2    1
     2     2     8   ar
     3     3     4   ar
     4     3    20    1
     5     5    10    1
     6     5     6   ar
     7     9    13    1
     8    14    15   ar
     9    15    19    1
    10    16    17   ar
    11    18    13   ar
    12     6     8   ar
    13    20    22    1
    14    23    24   ar
    15    25    26   ar
    16    27    22   ar
    17    10     9   am
    18     2     3   ar
    19     4     5   ar
    20     9    11    2
    21    13    14   ar
    22    15    16   ar
    23    17    18   ar
    24     6     7    2
    25    20    21    2
    26    22    23   ar
    27    24    25   ar
    28    26    27   ar
    29    10    12    1
@<TRIPOS>MOLECULE
MolPort-002-876-469 1396520 CHEMBL1601509 CSSS00025731023 MCULE-5509480574 PubChem-1483052 ZINC000001396520 ZINC01396520
 27 29 0 0 0
SMALL
GASTEIGER

@<TRIPOS>ATOM
      1 C           8.3444   44.7371    9.3578 C.3     1  UNL1        0.0727
      2 C           8.8455   43.3331    9.4172 C.ar    1  UNL1        0.1297
      3 C           8.2196   42.2918    8.7024 C.ar    1  UNL1        0.0708
      4 C           8.8015   41.0244    8.7452 C.ar    1  UNL1        0.0272
      5 C           9.9543   40.8025    9.4938 C.ar    1  UNL1        0.1278
      6 C          10.4834   41.8769   10.2334 C.ar    1  UNL1        0.3591
      7 O          11.4709   41.7112   10.9966 O.2     1  UNL1       -0.2431
      8 O           9.9253   43.0814   10.1525 O.2     1  UNL1       -0.4245
      9 C          11.7237   39.0582    8.9080 C.2     1  UNL1        0.2497
     10 N          10.5049   39.4789    9.5356 N.am    1  UNL1       -0.2753
     11 O          12.2622   39.7771    8.0223 O.2     1  UNL1       -0.2698
     12 H          10.0018   38.7992   10.0396 H       1  UNL1        0.1554
     13 C          12.3199   37.7579    9.2603 C.ar    1  UNL1        0.0545
     14 C          13.5913   37.4068    8.7823 C.ar    1  UNL1        0.0159
     15 C          14.1569   36.1735    9.1186 C.ar    1  UNL1        0.0578
     16 C          13.4561   35.2823    9.9354 C.ar    1  UNL1        0.0114
     17 C          12.1893   35.6244   10.4163 C.ar    1  UNL1        0.0010
     18 C          11.6236   36.8578   10.0800 C.ar    1  UNL1        0.0046
     19 CL         15.7435   35.7460    8.5163 Cl      1  UNL1       -0.0822
     20 C           7.0050   42.4910    7.8838 C.2     1  UNL1        0.1982
     21 O           7.1392   42.7189    6.6505 O.2     1  UNL1       -0.2865
     22 C           5.6448   42.3849    8.4567 C.ar    1  UNL1        0.0390
     23 C           5.1766   41.1490    8.9276 C.ar    1  UNL1        0.0032
     24 C           3.9013   41.0415    9.4900 C.ar    1  UNL1        0.0001
     25 C           3.0853   42.1711    9.5926 C.ar    1  UNL1        0.0000
     26 C           3.5454   43.4086    9.1356 C.ar    1  UNL1        0.0001
     27 C           4.8206   43.5156    8.5735 C.ar    1  UNL1        0.0032
@<TRIPOS>BOND
     1     1     2    1
     2     2     8   ar
     3     3     4   ar
     4     3    20    1
     5     5    10    1
     6     5     6   ar
     7     9    13    1
     8    14    15   ar
     9    15    19    1
    10    16    17   ar
    11    18    13   ar
    12     6     8   ar
    13    20    22    1
    14    23    24   ar
    15    25    26   ar
    16    27    22   ar
    17    10     9   am
    18     2     3   ar
    19     4     5   ar
    20     9    11    2
    21    13    14   ar
    22    15    16   ar
    23    17    18   ar
    24     6     7    2
    25    20    21    2
    26    22    23   ar
    27    24    25   ar
    28    26    27   ar
    29    10    12    1
@<TRIPOS>MOLECULE
MolPort-002-876-469 1396520 CHEMBL1601509 CSSS00025731023 MCULE-5509480574 PubChem-1483052 ZINC000001396520 ZINC01396520
 27 29 0 0 0
SMALL
GASTEIGER

@<TRIPOS>ATOM
      1 C          11.4539   43.1875    9.1915 C.3     1  UNL1        0.0727
      2 C          11.9203   41.8062    8.8749 C.ar    1  UNL1        0.1297
      3 C          12.8396   41.5541    7.8363 C.ar    1  UNL1        0.0708
      4 C          13.2886   40.2447    7.6610 C.ar    1  UNL1        0.0272
      5 C          12.8178   39.2220    8.4801 C.ar    1  UNL1        0.1278
      6 C          11.8513   39.5410    9.4525 C.ar    1  UNL1        0.3591
      7 O          11.3260   38.6419   10.1601 O.2     1  UNL1       -0.2431
      8 O          11.4616   40.8020    9.6171 O.2     1  UNL1       -0.4245
      9 C          14.5131   37.3299    8.7301 C.2     1  UNL1        0.2497
     10 N          13.2815   37.8847    8.2487 N.am    1  UNL1       -0.2753
     11 O          15.4227   38.0874    9.1659 O.2     1  UNL1       -0.2698
     12 H          12.7033   37.2957    7.7121 H       1  UNL1        0.1554
     13 C          14.7375   35.8753    8.6660 C.ar    1  UNL1        0.0545
     14 C          15.8589   35.3585    8.0002 C.ar    1  UNL1        0.0159
     15 C          16.0719   33.9781    7.9413 C.ar    1  UNL1        0.0578
     16 C          15.1657   33.1044    8.5480 C.ar    1  UNL1        0.0114
     17 C          14.0463   33.6109    9.2138 C.ar    1  UNL1        0.0010
     18 C          13.8333   34.9913    9.2726 C.ar    1  UNL1        0.0046
     19 CL         17.4741   33.3446    7.1077 Cl      1  UNL1       -0.0822
     20 C          13.3747   42.6147    6.9567 C.2     1  UNL1        0.1982
     21 O          12.5895   43.1817    6.1487 O.2     1  UNL1       -0.2865
     22 C          14.7842   43.0593    7.0294 C.ar    1  UNL1        0.0390
     23 C          15.6978   42.3653    7.8369 C.ar    1  UNL1        0.0032
     24 C          17.0363   42.7637    7.8969 C.ar    1  UNL1        0.0001
     25 C          17.4747   43.8562    7.1442 C.ar    1  UNL1        0.0000
     26 C          16.5754   44.5485    6.3292 C.ar    1  UNL1        0.0001
     27 C          15.2372   44.1497    6.2696 C.ar    1  UNL1        0.0032
@<TRIPOS>BOND
     1     1     2    1
     2     2     8   ar
     3     3     4   ar
     4     3    20    1
     5     5    10    1
     6     5     6   ar
     7     9    13    1
     8    14    15   ar
     9    15    19    1
    10    16    17   ar
    11    18    13   ar
    12     6     8   ar
    13    20    22    1
    14    23    24   ar
    15    25    26   ar
    16    27    22   ar
    17    10     9   am
    18     2     3   ar
    19     4     5   ar
    20     9    11    2
    21    13    14   ar
    22    15    16   ar
    23    17    18   ar
    24     6     7    2
    25    20    21    2
    26    22    23   ar
    27    24    25   ar
    28    26    27   ar
    29    10    12    1
@<TRIPOS>MOLECULE
MolPort-002-876-469 1396520 CHEMBL1601509 CSSS00025731023 MCULE-5509480574 PubChem-1483052 ZINC000001396520 ZINC01396520
 27 29 0 0 0
SMALL
GASTEIGER

@<TRIPOS>ATOM
      1 C          10.8653   36.2777   10.3646 C.3     1  UNL1        0.0727
      2 C          11.5468   37.3925    9.6445 C.ar    1  UNL1        0.1297
      3 C          12.9513   37.4615    9.5450 C.ar    1  UNL1        0.0708
      4 C          13.5053   38.4904    8.7825 C.ar    1  UNL1        0.0272
      5 C          12.6849   39.4284    8.1615 C.ar    1  UNL1        0.1278
      6 C          11.2950   39.3316    8.3615 C.ar    1  UNL1        0.3591
      7 O          10.5136   40.2030    7.8978 O.2     1  UNL1       -0.2431
      8 O          10.7915   38.3246    9.0697 O.2     1  UNL1       -0.4245
      9 C          13.2453   41.8827    7.7388 C.2     1  UNL1        0.2497
     10 N          13.2943   40.4876    7.4108 N.am    1  UNL1       -0.2753
     11 O          12.4060   42.3078    8.5790 O.2     1  UNL1       -0.2698
     12 H          13.7901   40.2346    6.5988 H       1  UNL1        0.1554
     13 C          14.1416   42.8298    7.0531 C.ar    1  UNL1        0.0545
     14 C          15.5337   42.6823    7.1434 C.ar    1  UNL1        0.0159
     15 C          16.3833   43.5805    6.4911 C.ar    1  UNL1        0.0578
     16 C          15.8476   44.6324    5.7434 C.ar    1  UNL1        0.0114
     17 C          14.4619   44.7864    5.6479 C.ar    1  UNL1        0.0010
     18 C          13.6122   43.8881    6.3003 C.ar    1  UNL1        0.0046
     19 CL         18.1185   43.3869    6.6109 Cl      1  UNL1       -0.0822
     20 C          13.8547   36.4761   10.1758 C.2     1  UNL1        0.1982
     21 O          14.0693   36.5615   11.4157 O.2     1  UNL1       -0.2865
     22 C          14.4729   35.3724    9.4082 C.ar    1  UNL1        0.0390
     23 C          15.7077   35.5668    8.7711 C.ar    1  UNL1        0.0032
     24 C          16.3109   34.5248    8.0609 C.ar    1  UNL1        0.0001
     25 C          15.6875   33.2765    7.9872 C.ar    1  UNL1        0.0000
     26 C          14.4624   33.0692    8.6260 C.ar    1  UNL1        0.0001
     27 C          13.8596   34.1113    9.3361 C.ar    1  UNL1        0.0032
@<TRIPOS>BOND
     1     1     2    1
     2     2     8   ar
     3     3     4   ar
     4     3    20    1
     5     5    10    1
     6     5     6   ar
     7     9    13    1
     8    14    15   ar
     9    15    19    1
    10    16    17   ar
    11    18    13   ar
    12     6     8   ar
    13    20    22    1
    14    23    24   ar
    15    25    26   ar
    16    27    22   ar
    17    10     9   am
    18     2     3   ar
    19     4     5   ar
    20     9    11    2
    21    13    14   ar
    22    15    16   ar
    23    17    18   ar
    24     6     7    2
    25    20    21    2
    26    22    23   ar
    27    24    25   ar
    28    26    27   ar
    29    10    12    1
@<TRIPOS>MOLECULE
MolPort-002-876-469 1396520 CHEMBL1601509 CSSS00025731023 MCULE-5509480574 PubChem-1483052 ZINC000001396520 ZINC01396520
 27 29 0 0 0
SMALL
GASTEIGER

@<TRIPOS>ATOM
      1 C          14.0331   41.0299    8.9375 C.3     1  UNL1        0.0727
      2 C          12.5824   41.3337    9.1076 C.ar    1  UNL1        0.1297
      3 C          11.6082   40.3149    9.1190 C.ar    1  UNL1        0.0708
      4 C          10.2837   40.6763    9.3678 C.ar    1  UNL1        0.0272
      5 C           9.9436   42.0105    9.5751 C.ar    1  UNL1        0.1278
      6 C          10.9621   42.9777    9.4834 C.ar    1  UNL1        0.3591
      7 O          10.6969   44.2052    9.5736 O.2     1  UNL1       -0.2431
      8 O          12.2209   42.6032    9.2730 O.2     1  UNL1       -0.4245
      9 C           7.6429   42.8008    8.8017 C.2     1  UNL1        0.2497
     10 N           8.5669   42.3442    9.7986 N.am    1  UNL1       -0.2753
     11 O           8.0652   43.2154    7.6877 O.2     1  UNL1       -0.2698
     12 H           8.2261   42.2517   10.7176 H       1  UNL1        0.1554
     13 C           6.2004   42.8357    9.0989 C.ar    1  UNL1        0.0545
     14 C           5.3732   43.7923    8.4916 C.ar    1  UNL1        0.0159
     15 C           4.0043   43.8236    8.7729 C.ar    1  UNL1        0.0578
     16 C           3.4521   42.8986    9.6629 C.ar    1  UNL1        0.0114
     17 C           4.2688   41.9421   10.2718 C.ar    1  UNL1        0.0010
     18 C           5.6379   41.9108    9.9906 C.ar    1  UNL1        0.0046
     19 CL          2.9820   45.0215    8.0097 Cl      1  UNL1       -0.0822
     20 C          11.9316   38.8864    8.9193 C.2     1  UNL1        0.1982
     21 O          11.2541   38.2251    8.0859 O.2     1  UNL1       -0.2865
     22 C          13.0494   38.2268    9.6298 C.ar    1  UNL1        0.0390
     23 C          13.2405   38.4543   11.0010 C.ar    1  UNL1        0.0032
     24 C          14.2805   37.8201   11.6868 C.ar    1  UNL1        0.0001
     25 C          15.1349   36.9471   11.0085 C.ar    1  UNL1        0.0000
     26 C          14.9476   36.7058    9.6451 C.ar    1  UNL1        0.0001
     27 C          13.9076   37.3401    8.9598 C.ar    1  UNL1        0.0032
@<TRIPOS>BOND
     1     1     2    1
     2     2     8   ar
     3     3     4   ar
     4     3    20    1
     5     5    10    1
     6     5     6   ar
     7     9    13    1
     8    14    15   ar
     9    15    19    1
    10    16    17   ar
    11    18    13   ar
    12     6     8   ar
    13    20    22    1
    14    23    24   ar
    15    25    26   ar
    16    27    22   ar
    17    10     9   am
    18     2     3   ar
    19     4     5   ar
    20     9    11    2
    21    13    14   ar
    22    15    16   ar
    23    17    18   ar
    24     6     7    2
    25    20    21    2
    26    22    23   ar
    27    24    25   ar
    28    26    27   ar
    29    10    12    1
@<TRIPOS>MOLECULE
MolPort-002-876-469 1396520 CHEMBL1601509 CSSS00025731023 MCULE-5509480574 PubChem-1483052 ZINC000001396520 ZINC01396520
 27 29 0 0 0
SMALL
GASTEIGER

@<TRIPOS>ATOM
      1 C          13.8380   41.4045    8.5683 C.3     1  UNL1        0.0727
      2 C          12.3812   41.5562    8.8524 C.ar    1  UNL1        0.1297
      3 C          11.4659   40.5123    8.6083 C.ar    1  UNL1        0.0708
      4 C          10.1352   40.7060    8.9806 C.ar    1  UNL1        0.0272
      5 C           9.7313   41.9083    9.5550 C.ar    1  UNL1        0.1278
      6 C          10.6902   42.9276    9.7065 C.ar    1  UNL1        0.3591
      7 O          10.3620   44.0641   10.1371 O.2     1  UNL1       -0.2431
      8 O          11.9577   42.7065    9.3692 O.2     1  UNL1       -0.4245
      9 C           7.3250   42.5746    9.0236 C.2     1  UNL1        0.2497
     10 N           8.3490   42.0790    9.8967 N.am    1  UNL1       -0.2753
     11 O           7.6353   43.1705    7.9560 O.2     1  UNL1       -0.2698
     12 H           8.0792   41.8344   10.8114 H       1  UNL1        0.1554
     13 C           5.9078   42.4345    9.4006 C.ar    1  UNL1        0.0545
     14 C           5.5032   41.4155   10.2758 C.ar    1  UNL1        0.0159
     15 C           4.1584   41.2844   10.6343 C.ar    1  UNL1        0.0578
     16 C           3.2084   42.1713   10.1210 C.ar    1  UNL1        0.0114
     17 C           3.6030   43.1895    9.2491 C.ar    1  UNL1        0.0010
     18 C           4.9478   43.3206    8.8905 C.ar    1  UNL1        0.0046
     19 CL          3.6651   40.0092   11.7266 Cl      1  UNL1       -0.0822
     20 C          11.8586   39.2162    8.0158 C.2     1  UNL1        0.1982
     21 O          11.8856   39.1107    6.7593 O.2     1  UNL1       -0.2865
     22 C          12.2632   38.0617    8.8483 C.ar    1  UNL1        0.0390
     23 C          13.6033   37.6467    8.8681 C.ar    1  UNL1        0.0032
     24 C          14.0005   36.5705    9.6670 C.ar    1  UNL1        0.0001
     25 C          13.0618   35.9039   10.4587 C.ar    1  UNL1        0.0000
     26 C          11.7266   36.3151   10.4539 C.ar    1  UNL1        0.0001
     27 C          11.3298   37.3912    9.6550 C.ar    1  UNL1        0.0032
@<TRIPOS>BOND
     1     1     2    1
     2     2     8   ar
     3     3     4   ar
     4     3    20    1
     5     5    10    1
     6     5     6   ar
     7     9    13    1
     8    14    15   ar
     9    15    19    1
    10    16    17   ar
    11    18    13   ar
    12     6     8   ar
    13    20    22    1
    14    23    24   ar
    15    25    26   ar
    16    27    22   ar
    17    10     9   am
    18     2     3   ar
    19     4     5   ar
    20     9    11    2
    21    13    14   ar
    22    15    16   ar
    23    17    18   ar
    24     6     7    2
    25    20    21    2
    26    22    23   ar
    27    24    25   ar
    28    26    27   ar
    29    10    12    1
@<TRIPOS>MOLECULE
MolPort-002-876-469 1396520 CHEMBL1601509 CSSS00025731023 MCULE-5509480574 PubChem-1483052 ZINC000001396520 ZINC01396520
 27 29 0 0 0
SMALL
GASTEIGER

@<TRIPOS>ATOM
      1 C          17.3345   42.5718    8.0271 C.3     1  UNL1        0.0727
      2 C          15.8778   42.2890    7.8731 C.ar    1  UNL1        0.1297
      3 C          15.2571   41.2131    8.5396 C.ar    1  UNL1        0.0708
      4 C          13.8754   41.0692    8.4083 C.ar    1  UNL1        0.0272
      5 C          13.1455   41.9558    7.6211 C.ar    1  UNL1        0.1278
      6 C          13.8454   42.9655    6.9341 C.ar    1  UNL1        0.3591
      7 O          13.2489   43.7386    6.1396 O.2     1  UNL1       -0.2431
      8 O          15.1586   43.0975    7.0992 O.2     1  UNL1       -0.4245
      9 C          10.7800   41.7626    8.5611 C.2     1  UNL1        0.2497
     10 N          11.7315   41.7564    7.4883 N.am    1  UNL1       -0.2753
     11 O          11.1710   41.6646    9.7564 O.2     1  UNL1       -0.2698
     12 H          11.3834   41.6015    6.5805 H       1  UNL1        0.1554
     13 C           9.3388   41.8299    8.2635 C.ar    1  UNL1        0.0545
     14 C           8.6275   43.0226    8.4627 C.ar    1  UNL1        0.0159
     15 C           7.2603   43.0860    8.1784 C.ar    1  UNL1        0.0578
     16 C           6.5942   41.9578    7.6925 C.ar    1  UNL1        0.0114
     17 C           7.2952   40.7659    7.4907 C.ar    1  UNL1        0.0010
     18 C           8.6626   40.7025    7.7750 C.ar    1  UNL1        0.0046
     19 CL          6.3831   44.5790    8.4311 Cl      1  UNL1       -0.0822
     20 C          15.9945   40.2609    9.3967 C.2     1  UNL1        0.1982
     21 O          17.2142   40.4800    9.6312 O.2     1  UNL1       -0.2865
     22 C          15.3356   39.0923   10.0209 C.ar    1  UNL1        0.0390
     23 C          15.2751   37.8709    9.3331 C.ar    1  UNL1        0.0032
     24 C          14.6736   36.7547    9.9216 C.ar    1  UNL1        0.0001
     25 C          14.1331   36.8483   11.2067 C.ar    1  UNL1        0.0000
     26 C          14.1965   38.0571   11.9044 C.ar    1  UNL1        0.0001
     27 C          14.7980   39.1729   11.3156 C.ar    1  UNL1        0.0032
@<TRIPOS>BOND
     1     1     2    1
     2     2     8   ar
     3     3     4   ar
     4     3    20    1
     5     5    10    1
     6     5     6   ar
     7     9    13    1
     8    14    15   ar
     9    15    19    1
    10    16    17   ar
    11    18    13   ar
    12     6     8   ar
    13    20    22    1
    14    23    24   ar
    15    25    26   ar
    16    27    22   ar
    17    10     9   am
    18     2     3   ar
    19     4     5   ar
    20     9    11    2
    21    13    14   ar
    22    15    16   ar
    23    17    18   ar
    24     6     7    2
    25    20    21    2
    26    22    23   ar
    27    24    25   ar
    28    26    27   ar
    29    10    12    1
@<TRIPOS>MOLECULE
MolPort-002-876-469 1396520 CHEMBL1601509 CSSS00025731023 MCULE-5509480574 PubChem-1483052 ZINC000001396520 ZINC01396520
 27 29 0 0 0
SMALL
GASTEIGER

@<TRIPOS>ATOM
      1 C          11.4555   35.7482   10.7514 C.3     1  UNL1        0.0727
      2 C          11.9081   37.0102   10.0970 C.ar    1  UNL1        0.1297
      3 C          13.1417   37.0929    9.4198 C.ar    1  UNL1        0.0708
      4 C          13.4511   38.2845    8.7631 C.ar    1  UNL1        0.0272
      5 C          12.5689   39.3609    8.8019 C.ar    1  UNL1        0.1278
      6 C          11.3866   39.2243    9.5535 C.ar    1  UNL1        0.3591
      7 O          10.5966   40.1941    9.6963 O.2     1  UNL1       -0.2431
      8 O          11.1029   38.0681   10.1464 O.2     1  UNL1       -0.4245
      9 C          14.2055   41.2386    8.2432 C.2     1  UNL1        0.2497
     10 N          12.9370   40.5781    8.1388 N.am    1  UNL1       -0.2753
     11 O          15.0062   40.9320    9.1684 O.2     1  UNL1       -0.2698
     12 H          12.2589   40.9972    7.5610 H       1  UNL1        0.1554
     13 C          14.5523   42.3153    7.2993 C.ar    1  UNL1        0.0545
     14 C          15.8822   42.7414    7.1658 C.ar    1  UNL1        0.0159
     15 C          16.2106   43.7620    6.2687 C.ar    1  UNL1        0.0578
     16 C          15.2121   44.3636    5.4982 C.ar    1  UNL1        0.0114
     17 C          13.8849   43.9447    5.6246 C.ar    1  UNL1        0.0010
     18 C          13.5565   42.9242    6.5218 C.ar    1  UNL1        0.0046
     19 CL         17.8729   44.2857    6.1106 Cl      1  UNL1       -0.0822
     20 C          14.0971   35.9676    9.3423 C.2     1  UNL1        0.1982
     21 O          13.6427   34.7915    9.3094 O.2     1  UNL1       -0.2865
     22 C          15.5586   36.1820    9.2556 C.ar    1  UNL1        0.0390
     23 C          16.2017   37.0144   10.1840 C.ar    1  UNL1        0.0032
     24 C          17.5849   37.2075   10.1243 C.ar    1  UNL1        0.0001
     25 C          18.3385   36.5640    9.1393 C.ar    1  UNL1        0.0000
     26 C          17.7096   35.7252    8.2158 C.ar    1  UNL1        0.0001
     27 C          16.3266   35.5324    8.2758 C.ar    1  UNL1        0.0032
@<TRIPOS>BOND
     1     1     2    1
     2     2     8   ar
     3     3     4   ar
     4     3    20    1
     5     5    10    1
     6     5     6   ar
     7     9    13    1
     8    14    15   ar
     9    15    19    1
    10    16    17   ar
    11    18    13   ar
    12     6     8   ar
    13    20    22    1
    14    23    24   ar
    15    25    26   ar
    16    27    22   ar
    17    10     9   am
    18     2     3   ar
    19     4     5   ar
    20     9    11    2
    21    13    14   ar
    22    15    16   ar
    23    17    18   ar
    24     6     7    2
    25    20    21    2
    26    22    23   ar
    27    24    25   ar
    28    26    27   ar
    29    10    12    1
