MolPort-002-455-707 ChemDiv-D039-0040 MCULE-7305721499 PubChem-959516 ZINC000000568499 ZINC00568499
     RDKit          3D

 23 24  0  0  0  0  0  0  0  0999 V2000
   12.7694   39.2243   11.8040 C   0  0  0  0  0  0  0  0  0  0  0  0
   13.9206   38.9179   10.8690 C   0  0  0  0  0  0  0  0  0  0  0  0
   15.0065   40.6857    9.5413 C   0  0  0  0  0  0  0  0  0  0  0  0
   14.9516   41.6399    8.4150 C   0  0  0  0  0  0  0  0  0  0  0  0
   15.9356   42.5383    8.0191 C   0  0  0  0  0  0  0  0  0  0  0  0
   17.2670   42.7223    8.6620 C   0  0  0  0  0  0  0  0  0  0  0  0
   14.3027   42.8136    6.6588 C   0  0  0  0  0  0  0  0  0  0  0  0
   13.9001   44.3349    4.6639 C   0  0  0  0  0  0  0  0  0  0  0  0
   13.2062   45.7299    2.6268 C   0  0  0  0  0  0  0  0  0  0  0  0
   14.4007   46.4634    2.5541 C   0  0  0  0  0  0  0  0  0  0  0  0
   14.5767   47.4315    1.5614 C   0  0  0  0  0  0  0  0  0  0  0  0
   13.5596   47.6732    0.6344 C   0  0  0  0  0  0  0  0  0  0  0  0
   12.3675   46.9470    0.7004 C   0  0  0  0  0  0  0  0  0  0  0  0
   12.1930   45.9789    1.6940 C   0  0  0  0  0  0  0  0  0  0  0  0
   13.9033   41.8252    7.5319 C   0  0  0  0  0  0  0  0  0  0  0  0
   12.5939   41.1115    7.5102 C   0  0  0  0  0  0  0  0  0  0  0  0
   13.9193   39.8469    9.7954 O   0  0  0  0  0  0  0  0  0  0  0  0
   16.0330   40.6292   10.2723 O   0  0  0  0  0  0  0  0  0  0  0  0
   15.0325   44.8794    4.7670 O   0  0  0  0  0  0  0  0  0  0  0  0
   15.5431   43.2566    6.9473 N   0  0  0  0  0  0  0  0  0  0  0  0
   13.5021   43.3098    5.5796 N   0  0  0  0  0  0  0  0  0  0  0  0
   12.9885   44.7288    3.6305 N   0  0  0  0  0  0  0  0  0  0  0  0
   13.7784   48.8850   -0.6091 Cl  0  0  0  0  0  0  0  0  0  0  0  0
  1  2  1  0
  2 17  1  0
  3 17  1  0
  3  4  1  0
  5 20  1  0
  6  5  1  0
  7 21  1  0
  8 22  1  0
 10 11  2  0
 12 23  1  0
 12 13  2  0
 14  9  2  0
 15  4  1  0
 16 15  1  0
 20  7  1  0
 21  8  1  0
 22  9  1  0
  3 18  2  0
  4  5  2  0
  7 15  2  0
  8 19  2  0
  9 10  1  0
 11 12  1  0
 13 14  1  0
M  END
>  <rmsd>  (1) 
0.205554381

$$$$
MolPort-002-854-086 CSSS00138418082 MCULE-7243128000
     RDKit          3D

 24 26  0  0  0  0  0  0  0  0999 V2000
   16.6923   46.4908    4.0212 C   0  0  0  0  0  0  0  0  0  0  0  0
   13.9013   44.3162    4.6741 C   0  0  0  0  0  0  0  0  0  0  0  0
   14.2439   42.7811    6.6778 C   0  0  0  0  0  0  0  0  0  0  0  0
   15.7526   42.4476    8.0708 C   0  0  0  0  0  0  0  0  0  0  0  0
   17.0114   41.6086    9.8545 C   0  0  0  0  0  0  0  0  0  0  0  0
   15.9648   40.7230   10.1780 C   0  0  0  0  0  0  0  0  0  0  0  0
   14.7928   40.7412    9.3997 C   0  0  0  0  0  0  0  0  0  0  0  0
   13.6433   39.8023    9.6548 C   0  0  2  0  0  0  0  0  0  0  0  0
   13.5219   39.3361   11.1007 C   0  0  0  0  0  0  0  0  0  0  0  0
   14.5760   37.6818    8.6646 C   0  0  0  0  0  0  0  0  0  0  0  0
   14.4464   36.7127    7.6637 C   0  0  0  0  0  0  0  0  0  0  0  0
   15.3724   35.6701    7.5630 C   0  0  0  0  0  0  0  0  0  0  0  0
   16.4358   35.5902    8.4660 C   0  0  0  0  0  0  0  0  0  0  0  0
   16.5729   36.5521    9.4701 C   0  0  0  0  0  0  0  0  0  0  0  0
   15.6465   37.5937    9.5697 C   0  0  0  0  0  0  0  0  0  0  0  0
   15.4268   45.8681    3.8988 O   0  0  0  0  0  0  0  0  0  0  0  0
   13.6248   38.7110    8.7303 O   0  0  0  0  0  0  0  0  0  0  0  0
   15.0559   44.8857    4.7851 N   0  0  0  0  0  0  0  0  0  0  0  0
   13.4793   43.2893    5.5789 N   0  0  0  0  0  0  0  0  0  0  0  0
   13.7780   41.8049    7.4937 N   0  0  0  0  0  0  0  0  0  0  0  0
   14.7509   41.6160    8.3628 N   0  0  0  0  0  0  0  0  0  0  0  0
   15.4908   43.2197    7.0029 N   0  0  0  0  0  0  0  0  0  0  0  0
   16.8949   42.4669    8.7992 N   0  0  0  0  0  0  0  0  0  0  0  0
   17.3331   34.5804    8.3685 F   0  0  0  0  0  0  0  0  0  0  0  0
  1 16  1  0
  2 19  1  0
  3 22  1  0
  4 23  1  0
  5  6  1  0
  7 21  1  0
  8  7  1  0
  8  9  1  1
  8 17  1  0
 10 17  1  0
 11 12  2  0
 13 24  1  0
 13 14  2  0
 15 10  2  0
 16 18  1  0
 19  3  1  0
 21 20  1  0
 21  4  1  0
  2 18  2  0
  3 20  2  0
  4 22  2  0
  5 23  2  0
  6  7  2  0
 10 11  1  0
 12 13  1  0
 14 15  1  0
M  END
>  <rmsd>  (2) 
0.193519562

$$$$
MolPort-006-609-966 ChemDiv-V013-5734 MCULE-3113320894 PubChem-46070050 ZINC000034735461 ZINC34735461
     RDKit          3D

 33 36  0  0  0  0  0  0  0  0999 V2000
   13.2347   32.5040    6.8160 C   0  0  0  0  0  0  0  0  0  0  0  0
   12.4175   34.1148    8.5091 C   0  0  0  0  0  0  0  0  0  0  0  0
   12.0626   35.0624    7.5352 C   0  0  0  0  0  0  0  0  0  0  0  0
   11.5014   36.2855    7.9143 C   0  0  0  0  0  0  0  0  0  0  0  0
   11.2873   36.5695    9.2667 C   0  0  0  0  0  0  0  0  0  0  0  0
   10.7142   37.8893    9.6676 C   0  0  0  0  0  0  0  0  0  0  0  0
   12.1895   38.9231   11.4191 C   0  0  0  0  0  0  0  0  0  0  0  0
   13.7038   38.8568   11.4940 C   0  0  0  0  0  0  0  0  0  0  0  0
   14.3092   40.0394   10.7367 C   0  0  0  0  0  0  0  0  0  0  0  0
   12.5206   39.5313    9.0243 C   0  0  0  0  0  0  0  0  0  0  0  0
   14.3623   41.1975    8.5195 C   0  0  0  0  0  0  0  0  0  0  0  0
   15.6935   41.5914    8.7408 C   0  0  0  0  0  0  0  0  0  0  0  0
   16.3075   42.5346    7.9132 C   0  0  0  0  0  0  0  0  0  0  0  0
   15.5942   43.1035    6.8575 C   0  0  0  0  0  0  0  0  0  0  0  0
   14.2609   42.7370    6.6259 C   0  0  0  0  0  0  0  0  0  0  0  0
   13.9009   44.3542    4.6698 C   0  0  0  0  0  0  0  0  0  0  0  0
   12.9740   44.7917    3.5876 C   0  0  0  0  0  0  0  0  0  0  0  0
   13.3526   44.1677    2.2870 C   0  0  0  0  0  0  0  0  0  0  0  0
   12.9394   42.8642    1.9832 C   0  0  0  0  0  0  0  0  0  0  0  0
   13.3111   42.2792    0.7684 C   0  0  0  0  0  0  0  0  0  0  0  0
   14.0976   42.9932   -0.1424 C   0  0  0  0  0  0  0  0  0  0  0  0
   14.5103   44.2954    0.1605 C   0  0  0  0  0  0  0  0  0  0  0  0
   14.1400   44.8814    1.3750 C   0  0  0  0  0  0  0  0  0  0  0  0
   13.6571   41.7888    7.4579 C   0  0  0  0  0  0  0  0  0  0  0  0
   11.6439   35.6310   10.2402 C   0  0  0  0  0  0  0  0  0  0  0  0
   12.2050   34.4072    9.8611 C   0  0  0  0  0  0  0  0  0  0  0  0
   12.9794   32.8820    8.1635 O   0  0  0  0  0  0  0  0  0  0  0  0
   12.1334   39.5030    7.8230 O   0  0  0  0  0  0  0  0  0  0  0  0
   15.0358   44.8923    4.7728 O   0  0  0  0  0  0  0  0  0  0  0  0
   11.7796   38.8193   10.0267 N   0  0  0  0  0  0  0  0  0  0  0  0
   13.7300   40.2358    9.3962 N   0  0  0  0  0  0  0  0  0  0  0  0
   13.4890   43.3113    5.5630 N   0  0  0  0  0  0  0  0  0  0  0  0
   14.4562   42.4248   -1.3188 F   0  0  0  0  0  0  0  0  0  0  0  0
  1 27  1  0
  2 27  1  0
  3  4  2  0
  5 25  2  0
  6  5  1  0
  6 30  1  0
  7 30  1  0
  7  8  1  0
  8  9  1  0
  9 31  1  0
 10 30  1  0
 12 13  2  0
 14 15  2  0
 15 32  1  0
 17 16  1  0
 17 18  1  0
 19 20  2  0
 21 33  1  0
 21 22  2  0
 23 18  2  0
 24 11  2  0
 26  2  2  0
 31 10  1  0
 31 11  1  0
 32 16  1  0
  2  3  1  0
  4  5  1  0
 10 28  2  0
 11 12  1  0
 13 14  1  0
 15 24  1  0
 16 29  2  0
 18 19  1  0
 20 21  1  0
 22 23  1  0
 25 26  1  0
M  END
>  <rmsd>  (3) 
0.234198317

$$$$
MolPort-035-706-964 CSSS03437789218 MCULE-3222529105 PubChem-91938289
     RDKit          3D

 27 29  0  0  0  0  0  0  0  0999 V2000
   15.0190   36.3610    6.2441 C   0  0  0  0  0  0  0  0  0  0  0  0
   14.9618   36.3036    7.7557 C   0  0  0  0  0  0  0  0  0  0  0  0
   14.6479   37.8557    9.6411 C   0  0  0  0  0  0  0  0  0  0  0  0
   14.4276   39.2632   10.1253 C   0  0  1  0  0  0  0  0  0  0  0  0
   13.4952   39.2592   11.3284 C   0  0  0  0  0  0  0  0  0  0  0  0
   14.3597   41.0773    8.3835 C   0  0  0  0  0  0  0  0  0  0  0  0
   13.6629   41.6711    7.3272 C   0  0  0  0  0  0  0  0  0  0  0  0
   14.2262   42.7352    6.6139 C   0  0  0  0  0  0  0  0  0  0  0  0
   13.8967   44.3838    4.6740 C   0  0  0  0  0  0  0  0  0  0  0  0
   12.9776   44.8885    3.6387 C   0  0  0  0  0  0  0  0  0  0  0  0
   11.6896   44.3485    3.5103 C   0  0  0  0  0  0  0  0  0  0  0  0
   10.8165   44.8268    2.5287 C   0  0  0  0  0  0  0  0  0  0  0  0
   11.2251   45.8490    1.6682 C   0  0  0  0  0  0  0  0  0  0  0  0
   12.5063   46.3935    1.7895 C   0  0  0  0  0  0  0  0  0  0  0  0
   12.9415   47.4796    0.8737 C   0  0  0  0  0  0  0  0  0  0  0  0
   13.3793   45.9153    2.7710 C   0  0  0  0  0  0  0  0  0  0  0  0
   15.4991   43.2051    6.9733 C   0  0  0  0  0  0  0  0  0  0  0  0
   16.1969   42.6167    8.0315 C   0  0  0  0  0  0  0  0  0  0  0  0
   15.6265   41.5533    8.7349 C   0  0  0  0  0  0  0  0  0  0  0  0
   15.7584   39.8591   10.5383 C   0  0  0  0  0  0  0  0  0  0  0  0
   14.7348   37.6068    8.2693 O   0  0  0  0  0  0  0  0  0  0  0  0
   14.8087   36.9157   10.4693 O   0  0  0  0  0  0  0  0  0  0  0  0
   13.7815   40.0135    9.0844 O   0  0  0  0  0  0  0  0  0  0  0  0
   15.0464   44.8892    4.7896 O   0  0  0  0  0  0  0  0  0  0  0  0
   16.3939   39.3710   11.5114 O   0  0  0  0  0  0  0  0  0  0  0  0
   13.4764   43.3180    5.5395 N   0  0  0  0  0  0  0  0  0  0  0  0
   16.3231   40.9576    9.8226 N   0  0  0  0  0  0  0  0  0  0  0  0
  1  2  1  0
  2 21  1  0
  3 21  1  0
  4  3  1  0
  4  5  1  1
  4 23  1  0
  4 20  1  0
  6 23  1  0
  7  8  2  0
  8 26  1  0
  9 10  1  0
 11 12  2  0
 13 14  2  0
 15 14  1  0
 16 10  2  0
 17 18  2  0
 19 27  1  0
 19  6  2  0
 26  9  1  0
 27 20  1  0
  3 22  2  0
  6  7  1  0
  8 17  1  0
  9 24  2  0
 10 11  1  0
 12 13  1  0
 14 16  1  0
 18 19  1  0
 20 25  2  0
M  END
>  <rmsd>  (4) 
0.230580032

$$$$
MolPort-007-713-434 ChemDiv-E002-0303 MCULE-4203030002 PubChem-22509878 ZINC000006768035
     RDKit          3D

 25 27  0  0  0  0  0  0  0  0999 V2000
   15.1319   41.6023    8.5173 C   0  0  0  0  0  0  0  0  0  0  0  0
   16.9003   40.5596    9.9257 C   0  0  0  0  0  0  0  0  0  0  0  0
   17.5119   39.5036    9.0232 C   0  0  0  0  0  0  0  0  0  0  0  0
   14.4984   40.0249   10.3906 C   0  0  0  0  0  0  0  0  0  0  0  0
   13.2208   40.5691   10.6022 C   0  0  0  0  0  0  0  0  0  0  0  0
   12.2786   39.8931   11.3823 C   0  0  0  0  0  0  0  0  0  0  0  0
   12.6064   38.6682   11.9677 C   0  0  0  0  0  0  0  0  0  0  0  0
   13.8772   38.1212   11.7762 C   0  0  0  0  0  0  0  0  0  0  0  0
   14.8189   38.7978   10.9957 C   0  0  0  0  0  0  0  0  0  0  0  0
   14.2327   42.7736    6.6289 C   0  0  0  0  0  0  0  0  0  0  0  0
   13.9122   44.3490    4.6635 C   0  0  0  0  0  0  0  0  0  0  0  0
   13.2992   45.8049    2.6429 C   0  0  0  0  0  0  0  0  0  0  0  0
   14.5089   46.5167    2.6193 C   0  0  0  0  0  0  0  0  0  0  0  0
   14.7293   47.5044    1.6550 C   0  0  0  0  0  0  0  0  0  0  0  0
   13.7419   47.7875    0.7077 C   0  0  0  0  0  0  0  0  0  0  0  0
   12.5353   47.0831    0.7250 C   0  0  0  0  0  0  0  0  0  0  0  0
   12.3161   46.0953    1.6901 C   0  0  0  0  0  0  0  0  0  0  0  0
   15.4845   40.7326    9.6104 N   0  0  0  0  0  0  0  0  0  0  0  0
   15.9811   42.5222    8.0032 N   0  0  0  0  0  0  0  0  0  0  0  0
   15.4794   43.1781    6.9582 N   0  0  0  0  0  0  0  0  0  0  0  0
   13.4707   43.3104    5.5433 N   0  0  0  0  0  0  0  0  0  0  0  0
   13.0361   44.7848    3.6162 N   0  0  0  0  0  0  0  0  0  0  0  0
   15.0512   44.8692    4.8097 O   0  0  0  0  0  0  0  0  0  0  0  0
   13.9545   48.7444   -0.2271 F   0  0  0  0  0  0  0  0  0  0  0  0
   13.6851   41.5492    7.6426 S   0  0  0  0  0  0  0  0  0  0  0  0
  1 18  1  0
  1 25  1  0
  2 18  1  0
  2  3  1  0
  5  6  2  0
  7  8  2  0
  9  4  2  0
 10 21  1  0
 10 25  1  0
 11 22  1  0
 13 14  2  0
 15 16  2  0
 15 24  1  0
 17 12  2  0
 18  4  1  0
 19 20  1  0
 21 11  1  0
 22 12  1  0
  1 19  2  0
  4  5  1  0
  6  7  1  0
  8  9  1  0
 10 20  2  0
 11 23  2  0
 12 13  1  0
 14 15  1  0
 16 17  1  0
M  END
>  <rmsd>  (5) 
0.209795982

$$$$
MolPort-007-723-734 9405089 ChemDiv-E157-8413 MCULE-2668155408 PubChem-22518212 ZINC000009405089 ZINC09405089
     RDKit          3D

 27 29  0  0  0  0  0  0  0  0999 V2000
   13.5442   39.3454   11.2927 C   0  0  0  0  0  0  0  0  0  0  0  0
   13.9067   41.8178   11.5882 C   0  0  0  0  0  0  0  0  0  0  0  0
   12.8452   41.8782   12.5077 C   0  0  0  0  0  0  0  0  0  0  0  0
   12.4911   43.0890   13.1091 C   0  0  0  0  0  0  0  0  0  0  0  0
   13.1948   44.2545   12.7986 C   0  0  0  0  0  0  0  0  0  0  0  0
   14.2529   44.2095   11.8884 C   0  0  0  0  0  0  0  0  0  0  0  0
   14.6060   42.9983   11.2874 C   0  0  0  0  0  0  0  0  0  0  0  0
   15.1606   41.5123    8.4254 C   0  0  0  0  0  0  0  0  0  0  0  0
   14.2442   42.7397    6.5944 C   0  0  0  0  0  0  0  0  0  0  0  0
   13.9030   44.3749    4.6788 C   0  0  0  0  0  0  0  0  0  0  0  0
   13.0009   44.8862    3.6318 C   0  0  0  0  0  0  0  0  0  0  0  0
   11.7124   44.3523    3.4840 C   0  0  0  0  0  0  0  0  0  0  0  0
   10.8546   44.8390    2.4932 C   0  0  0  0  0  0  0  0  0  0  0  0
   11.2793   45.8627    1.6424 C   0  0  0  0  0  0  0  0  0  0  0  0
   10.3685   46.3780    0.5873 C   0  0  0  0  0  0  0  0  0  0  0  0
   12.5619   46.3987    1.7808 C   0  0  0  0  0  0  0  0  0  0  0  0
   13.4195   45.9126    2.7720 C   0  0  0  0  0  0  0  0  0  0  0  0
   14.2650   40.5679   10.9645 N   0  0  0  0  0  0  0  0  0  0  0  0
   15.9984   42.4615    7.9541 N   0  0  0  0  0  0  0  0  0  0  0  0
   15.4889   43.1457    6.9318 N   0  0  0  0  0  0  0  0  0  0  0  0
   13.4688   43.3109    5.5363 N   0  0  0  0  0  0  0  0  0  0  0  0
   12.7519   45.7710   13.5513 Cl  0  0  0  0  0  0  0  0  0  0  0  0
   15.5369   40.4714    9.7830 S   0  0  0  0  0  0  0  0  0  0  0  0
   13.7065   41.4834    7.5759 S   0  0  0  0  0  0  0  0  0  0  0  0
   15.6788   39.0591    9.2877 O   0  0  0  0  0  0  0  0  0  0  0  0
   16.8337   40.8980   10.4121 O   0  0  0  0  0  0  0  0  0  0  0  0
   15.0529   44.8755    4.8156 O   0  0  0  0  0  0  0  0  0  0  0  0
  1 18  1  0
  3  4  2  0
  5 22  1  0
  5  6  2  0
  7  2  2  0
  8 24  1  0
  9 21  1  0
  9 24  1  0
 10 11  1  0
 12 13  2  0
 14 16  2  0
 15 14  1  0
 17 11  2  0
 18  2  1  0
 19 20  1  0
 21 10  1  0
 23 18  1  0
 23  8  1  0
  2  3  1  0
  4  5  1  0
  6  7  1  0
  8 19  2  0
  9 20  2  0
 10 27  2  0
 11 12  1  0
 13 14  1  0
 16 17  1  0
 23 25  2  0
 23 26  2  0
M  END
>  <rmsd>  (6) 
0.196167588

$$$$
MolPort-007-723-513 6818335 ChemDiv-E157-6081 MCULE-5170926731 PubChem-22518058 ZINC000006818335 ZINC06818335
     RDKit          3D

 27 29  0  0  0  0  0  0  0  0999 V2000
   13.5366   39.3474   11.2816 C   0  0  0  0  0  0  0  0  0  0  0  0
   13.8809   41.8213   11.5903 C   0  0  0  0  0  0  0  0  0  0  0  0
   12.8101   41.8720   12.4994 C   0  0  0  0  0  0  0  0  0  0  0  0
   12.4475   43.0773   13.1075 C   0  0  0  0  0  0  0  0  0  0  0  0
   11.3116   43.1137   14.0651 C   0  0  0  0  0  0  0  0  0  0  0  0
   13.1502   44.2476   12.8122 C   0  0  0  0  0  0  0  0  0  0  0  0
   14.2169   44.2122   11.9112 C   0  0  0  0  0  0  0  0  0  0  0  0
   14.5797   43.0062   11.3052 C   0  0  0  0  0  0  0  0  0  0  0  0
   15.1631   41.5226    8.4323 C   0  0  0  0  0  0  0  0  0  0  0  0
   14.2469   42.7406    6.5953 C   0  0  0  0  0  0  0  0  0  0  0  0
   13.9046   44.3693    4.6744 C   0  0  0  0  0  0  0  0  0  0  0  0
   13.0062   44.8692    3.6190 C   0  0  0  0  0  0  0  0  0  0  0  0
   11.7288   44.3141    3.4543 C   0  0  0  0  0  0  0  0  0  0  0  0
   10.8757   44.7878    2.4533 C   0  0  0  0  0  0  0  0  0  0  0  0
    9.5240   44.1935    2.2870 C   0  0  0  0  0  0  0  0  0  0  0  0
   11.2939   45.8202    1.6095 C   0  0  0  0  0  0  0  0  0  0  0  0
   12.5654   46.3783    1.7653 C   0  0  0  0  0  0  0  0  0  0  0  0
   13.4181   45.9049    2.7667 C   0  0  0  0  0  0  0  0  0  0  0  0
   14.2524   40.5762   10.9651 N   0  0  0  0  0  0  0  0  0  0  0  0
   16.0078   42.4568    7.9445 N   0  0  0  0  0  0  0  0  0  0  0  0
   15.4979   43.1365    6.9194 N   0  0  0  0  0  0  0  0  0  0  0  0
   13.4697   43.3105    5.5381 N   0  0  0  0  0  0  0  0  0  0  0  0
   15.5382   40.4918    9.7979 S   0  0  0  0  0  0  0  0  0  0  0  0
   13.7028   41.5007    7.5938 S   0  0  0  0  0  0  0  0  0  0  0  0
   16.8219   40.9379   10.4398 O   0  0  0  0  0  0  0  0  0  0  0  0
   15.7048   39.0795    9.3102 O   0  0  0  0  0  0  0  0  0  0  0  0
   15.0513   44.8757    4.8137 O   0  0  0  0  0  0  0  0  0  0  0  0
  1 19  1  0
  3  4  2  0
  5  4  1  0
  6  7  2  0
  8  2  2  0
  9 24  1  0
 10 22  1  0
 10 24  1  0
 11 12  1  0
 13 14  2  0
 15 14  1  0
 16 17  2  0
 18 12  2  0
 19  2  1  0
 20 21  1  0
 22 11  1  0
 23 19  1  0
 23  9  1  0
  2  3  1  0
  4  6  1  0
  7  8  1  0
  9 20  2  0
 10 21  2  0
 11 27  2  0
 12 13  1  0
 14 16  1  0
 17 18  1  0
 23 25  2  0
 23 26  2  0
M  END
>  <rmsd>  (7) 
0.195551768

$$$$
MolPort-004-979-668 CSSS00160014156 MCULE-7658782327 PubChem-45159661
     RDKit          3D

 30 33  0  0  0  0  0  0  0  0999 V2000
   12.5698   38.0430    6.5906 C   0  0  0  0  0  0  0  0  0  0  0  0
   13.3446   40.3802    6.5581 C   0  0  0  0  0  0  0  0  0  0  0  0
   14.1992   41.4466    7.1253 C   0  0  0  0  0  0  0  0  0  0  0  0
   14.2882   42.7571    6.6451 C   0  0  0  0  0  0  0  0  0  0  0  0
   13.8561   44.4459    4.7813 C   0  0  0  0  0  0  0  0  0  0  0  0
   12.8275   45.0705    3.9103 C   0  0  0  0  0  0  0  0  0  0  0  0
   15.1651   43.4196    7.4861 C   0  0  0  0  0  0  0  0  0  0  0  0
   15.5691   44.7481    7.5670 C   0  0  0  0  0  0  0  0  0  0  0  0
   16.4497   45.1016    8.6091 C   0  0  0  0  0  0  0  0  0  0  0  0
   16.5282   47.5397    7.8803 C   0  0  0  0  0  0  0  0  0  0  0  0
   15.0764   47.9590    8.1771 C   0  0  0  0  0  0  0  0  0  0  0  0
   14.9568   49.2456    9.0014 C   0  0  0  0  0  0  0  0  0  0  0  0
   16.0529   49.3113   10.0581 C   0  0  0  0  0  0  0  0  0  0  0  0
   17.4468   49.3549    9.4191 C   0  0  0  0  0  0  0  0  0  0  0  0
   17.5073   48.7079    8.0268 C   0  0  0  0  0  0  0  0  0  0  0  0
   16.8680   44.1159    9.5296 C   0  0  0  0  0  0  0  0  0  0  0  0
   15.5860   42.5002    8.4076 C   0  0  0  0  0  0  0  0  0  0  0  0
   15.1873   40.1179    9.0431 C   0  0  0  0  0  0  0  0  0  0  0  0
   14.3286   40.2266   10.2937 C   0  0  2  0  0  0  0  0  0  0  0  0
   14.6077   39.0549   11.2041 C   0  0  0  0  0  0  0  0  0  0  0  0
   13.2557   38.6731   11.7258 C   0  0  0  0  0  0  0  0  0  0  0  0
   12.3197   39.6604   11.0702 C   0  0  0  0  0  0  0  0  0  0  0  0
   13.3791   39.0931    7.0978 O   0  0  0  0  0  0  0  0  0  0  0  0
   12.5873   40.6342    5.5817 O   0  0  0  0  0  0  0  0  0  0  0  0
   15.0336   44.8907    4.7651 O   0  0  0  0  0  0  0  0  0  0  0  0
   12.9671   40.2106    9.9551 O   0  0  0  0  0  0  0  0  0  0  0  0
   13.5069   43.3091    5.5760 N   0  0  0  0  0  0  0  0  0  0  0  0
   16.9279   46.4420    8.7536 N   0  0  0  0  0  0  0  0  0  0  0  0
   16.4253   42.8277    9.4230 N   0  0  0  0  0  0  0  0  0  0  0  0
   15.0174   41.2980    8.2023 N   0  0  0  0  0  0  0  0  0  0  0  0
  1 23  1  0
  2 23  1  0
  2  3  1  0
  4 27  1  0
  4  7  1  0
  6  5  1  0
  8  9  2  0
  9 28  1  0
 10 28  1  0
 10 11  1  0
 11 12  1  0
 12 13  1  0
 13 14  1  0
 14 15  1  0
 15 10  1  0
 16 29  2  0
 17 30  1  0
 17  7  2  0
 18 30  1  0
 19 18  1  6
 19 20  1  0
 19 26  1  0
 20 21  1  0
 21 22  1  0
 22 26  1  0
 27  5  1  0
 30  3  1  0
  2 24  2  0
  3  4  2  0
  5 25  2  0
  7  8  1  0
  9 16  1  0
 17 29  1  0
M  END
>  <rmsd>  (8) 
0.164276347

$$$$
MolPort-004-979-229 CSSS00159754183 MCULE-9377558138 PubChem-45159487
     RDKit          3D

 28 30  0  0  0  0  0  0  0  0999 V2000
   18.0942   47.6971   12.0366 C   0  0  0  0  0  0  0  0  0  0  0  0
   17.3497   46.7915   11.0761 C   0  0  0  0  0  0  0  0  0  0  0  0
   17.9096   46.9345    9.6674 C   0  0  1  0  0  0  0  0  0  0  0  0
   19.2606   46.2482    9.5336 C   0  0  0  0  0  0  0  0  0  0  0  0
   16.5090   45.0647    8.5762 C   0  0  0  0  0  0  0  0  0  0  0  0
   16.9375   44.0667    9.4856 C   0  0  0  0  0  0  0  0  0  0  0  0
   15.6290   42.4681    8.3735 C   0  0  0  0  0  0  0  0  0  0  0  0
   15.2098   40.0891    9.0099 C   0  0  0  0  0  0  0  0  0  0  0  0
   14.3257   40.1928   10.2441 C   0  0  2  0  0  0  0  0  0  0  0  0
   14.5654   39.0116   11.1432 C   0  0  0  0  0  0  0  0  0  0  0  0
   13.2416   38.8247   11.8151 C   0  0  0  0  0  0  0  0  0  0  0  0
   12.2819   39.6499   10.9801 C   0  0  0  0  0  0  0  0  0  0  0  0
   14.2151   41.4322    7.1064 C   0  0  0  0  0  0  0  0  0  0  0  0
   13.3481   40.3738    6.5444 C   0  0  0  0  0  0  0  0  0  0  0  0
   12.6146   38.0236    6.5277 C   0  0  0  0  0  0  0  0  0  0  0  0
   14.3026   42.7458    6.6355 C   0  0  0  0  0  0  0  0  0  0  0  0
   13.8527   44.4458    4.7855 C   0  0  0  0  0  0  0  0  0  0  0  0
   12.8214   45.0676    3.9158 C   0  0  0  0  0  0  0  0  0  0  0  0
   15.1981   43.3971    7.4667 C   0  0  0  0  0  0  0  0  0  0  0  0
   15.6098   44.7233    7.5523 C   0  0  0  0  0  0  0  0  0  0  0  0
   16.9667   46.4198    8.6764 N   0  0  0  0  0  0  0  0  0  0  0  0
   16.4855   42.7825    9.3776 N   0  0  0  0  0  0  0  0  0  0  0  0
   15.0497   41.2708    8.1683 N   0  0  0  0  0  0  0  0  0  0  0  0
   13.5087   43.3082    5.5808 N   0  0  0  0  0  0  0  0  0  0  0  0
   12.9716   40.1911    9.8781 O   0  0  0  0  0  0  0  0  0  0  0  0
   12.5312   40.6516    5.6249 O   0  0  0  0  0  0  0  0  0  0  0  0
   13.4353   39.0680    7.0287 O   0  0  0  0  0  0  0  0  0  0  0  0
   15.0300   44.8910    4.7632 O   0  0  0  0  0  0  0  0  0  0  0  0
  1  2  1  0
  3  2  1  0
  3  4  1  1
  3 21  1  0
  6 22  2  0
  7 23  1  0
  8 23  1  0
  9  8  1  6
  9 10  1  0
  9 25  1  0
 10 11  1  0
 11 12  1  0
 12 25  1  0
 13 14  1  0
 14 27  1  0
 15 27  1  0
 16 24  1  0
 16 19  1  0
 18 17  1  0
 19  7  2  0
 20  5  2  0
 21  5  1  0
 23 13  1  0
 24 17  1  0
  5  6  1  0
  7 22  1  0
 13 16  2  0
 14 26  2  0
 17 28  2  0
 19 20  1  0
M  END
>  <rmsd>  (9) 
0.155582905

$$$$
MolPort-002-612-738 2416901 PubChem-1623914 ZINC000002416901 ZINC02416901
     RDKit          3D

 32 35  0  0  0  0  0  0  0  0999 V2000
   12.8228   39.0255   11.4860 C   0  0  0  0  0  0  0  0  0  0  0  0
   14.3150   39.2211   11.2941 C   0  0  0  0  0  0  0  0  0  0  0  0
   14.5994   39.8234    9.9302 C   0  0  0  0  0  0  0  0  0  0  0  0
   14.2535   41.3040    9.9211 C   0  0  0  0  0  0  0  0  0  0  0  0
   14.2061   42.8071    6.6792 C   0  0  0  0  0  0  0  0  0  0  0  0
   14.0047   44.2157    4.5594 C   0  0  0  0  0  0  0  0  0  0  0  0
   13.2765   44.4097    3.2936 C   0  0  0  0  0  0  0  0  0  0  0  0
   13.7532   45.3027    2.3314 C   0  0  0  0  0  0  0  0  0  0  0  0
   13.0679   45.4919    1.1227 C   0  0  0  0  0  0  0  0  0  0  0  0
   14.7324   47.1490    0.3350 C   0  0  0  0  0  0  0  0  0  0  0  0
   11.8847   44.7784    0.8653 C   0  0  0  0  0  0  0  0  0  0  0  0
   10.0457   44.3855   -0.7930 C   0  0  0  0  0  0  0  0  0  0  0  0
   11.3946   43.8691    1.8372 C   0  0  0  0  0  0  0  0  0  0  0  0
    9.6836   42.2201    2.5474 C   0  0  0  0  0  0  0  0  0  0  0  0
   12.1013   43.6996    3.0384 C   0  0  0  0  0  0  0  0  0  0  0  0
   15.5735   42.6148    6.8004 C   0  0  0  0  0  0  0  0  0  0  0  0
   16.6611   42.8218    5.9578 C   0  0  0  0  0  0  0  0  0  0  0  0
   17.9248   42.4451    6.4443 C   0  0  0  0  0  0  0  0  0  0  0  0
   19.0663   42.6342    5.6621 C   0  0  0  0  0  0  0  0  0  0  0  0
   20.3196   42.2554    6.1529 C   0  0  0  0  0  0  0  0  0  0  0  0
   20.4374   41.6855    7.4254 C   0  0  0  0  0  0  0  0  0  0  0  0
   19.3032   41.4884    8.2192 C   0  0  0  0  0  0  0  0  0  0  0  0
   18.0439   41.8626    7.7442 C   0  0  0  0  0  0  0  0  0  0  0  0
   15.7262   42.0412    8.0287 C   0  0  0  0  0  0  0  0  0  0  0  0
   14.5271   41.8776    8.6120 N   0  0  0  0  0  0  0  0  0  0  0  0
   13.5890   42.3377    7.7917 N   0  0  0  0  0  0  0  0  0  0  0  0
   13.4891   43.3147    5.5474 N   0  0  0  0  0  0  0  0  0  0  0  0
   16.9343   41.6618    8.5165 N   0  0  0  0  0  0  0  0  0  0  0  0
   15.0526   44.8787    4.7878 O   0  0  0  0  0  0  0  0  0  0  0  0
   13.5456   46.3871    0.1587 O   0  0  0  0  0  0  0  0  0  0  0  0
   11.2454   45.0130   -0.3640 O   0  0  0  0  0  0  0  0  0  0  0  0
   10.2193   43.1439    1.6089 O   0  0  0  0  0  0  0  0  0  0  0  0
  1  2  1  0
  2  3  1  0
  3  4  1  0
  4 25  1  0
  5 27  1  0
  5 16  1  0
  6  7  1  0
  8  9  2  0
  9 30  1  0
 10 30  1  0
 11 31  1  0
 11 13  2  0
 12 31  1  0
 13 32  1  0
 14 32  1  0
 15  7  2  0
 17 18  2  0
 19 20  2  0
 21 22  2  0
 23 28  2  0
 23 18  1  0
 24 25  1  0
 24 16  2  0
 25 26  1  0
 27  6  1  0
  5 26  2  0
  6 29  2  0
  7  8  1  0
  9 11  1  0
 13 15  1  0
 16 17  1  0
 18 19  1  0
 20 21  1  0
 22 23  1  0
 24 28  1  0
M  END
>  <rmsd>  (10) 
0.197687969

$$$$
MolPort-006-609-944 ChemDiv-V008-9224 MCULE-2105279459 PubChem-46070028 ZINC000034735436 ZINC34735436
     RDKit          3D

 36 39  0  0  0  0  0  0  0  0999 V2000
   13.3010   40.0613   -0.5016 C   0  0  0  0  0  0  0  0  0  0  0  0
   13.3395   42.1176    0.8703 C   0  0  0  0  0  0  0  0  0  0  0  0
   12.9698   42.7616    2.0566 C   0  0  0  0  0  0  0  0  0  0  0  0
   13.3550   44.0876    2.2911 C   0  0  0  0  0  0  0  0  0  0  0  0
   12.9879   44.7635    3.5677 C   0  0  0  0  0  0  0  0  0  0  0  0
   13.9064   44.3413    4.6634 C   0  0  0  0  0  0  0  0  0  0  0  0
   14.2743   42.7155    6.6068 C   0  0  0  0  0  0  0  0  0  0  0  0
   13.6809   41.7488    7.4246 C   0  0  0  0  0  0  0  0  0  0  0  0
   14.4033   41.1211    8.4526 C   0  0  0  0  0  0  0  0  0  0  0  0
   15.7440   41.4953    8.6546 C   0  0  0  0  0  0  0  0  0  0  0  0
   16.3472   42.4581    7.8420 C   0  0  0  0  0  0  0  0  0  0  0  0
   15.6151   43.0641    6.8200 C   0  0  0  0  0  0  0  0  0  0  0  0
   14.4167   39.7870   10.5783 C   0  0  0  0  0  0  0  0  0  0  0  0
   13.3700   39.6937   11.6754 C   0  0  0  0  0  0  0  0  0  0  0  0
   12.3651   38.5935   11.3453 C   0  0  0  0  0  0  0  0  0  0  0  0
   10.7028   37.8880    9.6127 C   0  0  0  0  0  0  0  0  0  0  0  0
   11.1228   36.5300    9.1590 C   0  0  0  0  0  0  0  0  0  0  0  0
   11.2796   35.4990   10.0899 C   0  0  0  0  0  0  0  0  0  0  0  0
   11.6992   34.2267    9.6706 C   0  0  0  0  0  0  0  0  0  0  0  0
   11.6104   33.3069   11.9633 C   0  0  0  0  0  0  0  0  0  0  0  0
   11.9637   34.0022    8.3147 C   0  0  0  0  0  0  0  0  0  0  0  0
   11.8143   35.0350    7.3758 C   0  0  0  0  0  0  0  0  0  0  0  0
   12.4851   33.5781    5.4945 C   0  0  0  0  0  0  0  0  0  0  0  0
   11.3949   36.2965    7.8066 C   0  0  0  0  0  0  0  0  0  0  0  0
   12.5577   39.4523    8.9680 C   0  0  0  0  0  0  0  0  0  0  0  0
   14.1204   44.7709    1.3407 C   0  0  0  0  0  0  0  0  0  0  0  0
   14.4894   44.1360    0.1522 C   0  0  0  0  0  0  0  0  0  0  0  0
   14.1014   42.8139   -0.0830 C   0  0  0  0  0  0  0  0  0  0  0  0
   12.9465   40.7913    0.6666 O   0  0  0  0  0  0  0  0  0  0  0  0
   15.0327   44.8959    4.7788 O   0  0  0  0  0  0  0  0  0  0  0  0
   11.8639   33.1747   10.5724 O   0  0  0  0  0  0  0  0  0  0  0  0
   12.0732   34.8342    6.0174 O   0  0  0  0  0  0  0  0  0  0  0  0
   12.0950   39.5073    7.7950 O   0  0  0  0  0  0  0  0  0  0  0  0
   13.4904   43.3092    5.5645 N   0  0  0  0  0  0  0  0  0  0  0  0
   13.7785   40.1413    9.3122 N   0  0  0  0  0  0  0  0  0  0  0  0
   11.8662   38.6877    9.9708 N   0  0  0  0  0  0  0  0  0  0  0  0
  1 29  1  0
  2 29  1  0
  3  4  2  0
  5  4  1  0
  5  6  1  0
  6 34  1  0
  8  9  2  0
  9 35  1  0
 10 11  2  0
 12  7  2  0
 13 35  1  0
 13 14  1  0
 14 15  1  0
 15 36  1  0
 16 36  1  0
 16 17  1  0
 18 19  2  0
 19 31  1  0
 20 31  1  0
 21 22  2  0
 22 32  1  0
 23 32  1  0
 24 17  2  0
 25 35  1  0
 26 27  2  0
 28  2  2  0
 34  7  1  0
 36 25  1  0
  2  3  1  0
  4 26  1  0
  6 30  2  0
  7  8  1  0
  9 10  1  0
 11 12  1  0
 17 18  1  0
 19 21  1  0
 22 24  1  0
 25 33  2  0
 27 28  1  0
M  END
>  <rmsd>  (11) 
0.241512328

$$$$
MolPort-016-948-775 ChemDiv-V004-5146 MCULE-2022708689 PubChem-46124577 ZINC000040372377 ZINC40372377
     RDKit          3D

 34 37  0  0  0  0  0  0  0  0999 V2000
   21.1250   36.3426   10.7647 C   0  0  0  0  0  0  0  0  0  0  0  0
   20.8290   38.2064   11.9049 C   0  0  0  0  0  0  0  0  0  0  0  0
   19.8641   39.2812   12.3681 C   0  0  0  0  0  0  0  0  0  0  0  0
   18.1823   40.2444   10.8598 C   0  0  0  0  0  0  0  0  0  0  0  0
   16.1006   40.0481   10.7084 C   0  0  0  0  0  0  0  0  0  0  0  0
   14.7083   39.6705   11.0126 C   0  0  0  0  0  0  0  0  0  0  0  0
   13.7336   40.6252   11.3777 C   0  0  0  0  0  0  0  0  0  0  0  0
   14.0581   42.0768   11.4962 C   0  0  0  0  0  0  0  0  0  0  0  0
   12.4313   40.2090   11.6734 C   0  0  0  0  0  0  0  0  0  0  0  0
   12.0936   38.8545   11.6204 C   0  0  0  0  0  0  0  0  0  0  0  0
   13.0606   37.9065   11.2800 C   0  0  0  0  0  0  0  0  0  0  0  0
   14.3638   38.3133   10.9837 C   0  0  0  0  0  0  0  0  0  0  0  0
   15.7282   41.5161    8.6862 C   0  0  0  0  0  0  0  0  0  0  0  0
   16.2457   42.6263    8.0036 C   0  0  0  0  0  0  0  0  0  0  0  0
   15.5198   43.2256    6.9711 C   0  0  0  0  0  0  0  0  0  0  0  0
   14.2667   42.7187    6.5984 C   0  0  0  0  0  0  0  0  0  0  0  0
   13.8769   44.4043    4.7029 C   0  0  0  0  0  0  0  0  0  0  0  0
   12.9174   44.9470    3.7248 C   0  0  0  0  0  0  0  0  0  0  0  0
   11.6137   44.4360    3.6526 C   0  0  0  0  0  0  0  0  0  0  0  0
   10.7016   44.9518    2.7275 C   0  0  0  0  0  0  0  0  0  0  0  0
   11.0795   45.9839    1.8630 C   0  0  0  0  0  0  0  0  0  0  0  0
   10.4427   47.5251    0.0359 C   0  0  0  0  0  0  0  0  0  0  0  0
   12.3842   46.4980    1.9326 C   0  0  0  0  0  0  0  0  0  0  0  0
   13.2958   45.9826    2.8580 C   0  0  0  0  0  0  0  0  0  0  0  0
   13.7532   41.6053    7.2698 C   0  0  0  0  0  0  0  0  0  0  0  0
   14.4800   41.0045    8.3009 C   0  0  0  0  0  0  0  0  0  0  0  0
   20.1859   37.3397   11.0208 O   0  0  0  0  0  0  0  0  0  0  0  0
   19.5067   40.1141   11.2749 O   0  0  0  0  0  0  0  0  0  0  0  0
   15.0363   44.8950    4.7800 O   0  0  0  0  0  0  0  0  0  0  0  0
   10.1442   46.4783    0.9497 O   0  0  0  0  0  0  0  0  0  0  0  0
   17.8141   41.0243    9.8278 N   0  0  0  0  0  0  0  0  0  0  0  0
   16.5019   40.8955    9.7301 N   0  0  0  0  0  0  0  0  0  0  0  0
   17.1428   39.6077   11.4417 N   0  0  0  0  0  0  0  0  0  0  0  0
   13.4867   43.3148    5.5530 N   0  0  0  0  0  0  0  0  0  0  0  0
  1 27  1  0
  2 27  1  0
  2  3  1  0
  3 28  1  0
  4 28  1  0
  4 33  1  0
  5  6  1  0
  7  9  2  0
  8  7  1  0
 10 11  2  0
 12  6  2  0
 14 15  2  0
 16 34  1  0
 16 25  2  0
 17 18  1  0
 19 20  2  0
 21 30  1  0
 21 23  2  0
 22 30  1  0
 24 18  2  0
 26 13  2  0
 32 31  1  0
 32  5  1  0
 32 13  1  0
 34 17  1  0
  4 31  2  0
  5 33  2  0
  6  7  1  0
  9 10  1  0
 11 12  1  0
 13 14  1  0
 15 16  1  0
 17 29  2  0
 18 19  1  0
 20 21  1  0
 23 24  1  0
 25 26  1  0
M  END
>  <rmsd>  (12) 
0.230688542

$$$$
MolPort-007-723-351 6818230 ChemDiv-E157-4633 MCULE-6806045684 PubChem-22517937 ZINC000006818230 ZINC06818230
     RDKit          3D

 24 26  0  0  0  0  0  0  0  0999 V2000
   14.0548   39.0195   11.9588 C   0  0  0  0  0  0  0  0  0  0  0  0
   13.1121   39.6102   10.9274 C   0  0  0  0  0  0  0  0  0  0  0  0
   13.6491   39.3852    9.5233 C   0  0  0  0  0  0  0  0  0  0  0  0
   14.7012   40.3891    9.1829 C   0  0  0  0  0  0  0  0  0  0  0  0
   15.7426   41.9533    8.2451 C   0  0  0  0  0  0  0  0  0  0  0  0
   14.2239   42.6975    6.5836 C   0  0  0  0  0  0  0  0  0  0  0  0
   13.9063   44.3910    4.6942 C   0  0  0  0  0  0  0  0  0  0  0  0
   12.9665   44.9516    3.6829 C   0  0  0  0  0  0  0  0  0  0  0  0
   11.3562   46.2359    5.0739 C   0  0  0  0  0  0  0  0  0  0  0  0
   10.7196   45.0767    5.5454 C   0  0  0  0  0  0  0  0  0  0  0  0
    9.6721   45.1727    6.4648 C   0  0  0  0  0  0  0  0  0  0  0  0
    9.2465   46.4297    6.9233 C   0  0  0  0  0  0  0  0  0  0  0  0
    7.5050   45.4426    8.3760 C   0  0  0  0  0  0  0  0  0  0  0  0
    9.8800   47.5831    6.4497 C   0  0  0  0  0  0  0  0  0  0  0  0
   10.9284   47.4866    5.5299 C   0  0  0  0  0  0  0  0  0  0  0  0
   15.9142   40.5037    9.7894 N   0  0  0  0  0  0  0  0  0  0  0  0
   16.5799   41.5022    9.1944 N   0  0  0  0  0  0  0  0  0  0  0  0
   13.4738   43.3112    5.5290 N   0  0  0  0  0  0  0  0  0  0  0  0
   13.7166   41.6640    7.3138 N   0  0  0  0  0  0  0  0  0  0  0  0
   14.6129   41.3020    8.2165 N   0  0  0  0  0  0  0  0  0  0  0  0
   15.8177   43.1576    7.0847 S   0  0  0  0  0  0  0  0  0  0  0  0
   15.0561   44.8902    4.8127 O   0  0  0  0  0  0  0  0  0  0  0  0
   12.4079   46.1746    4.1527 O   0  0  0  0  0  0  0  0  0  0  0  0
    8.2026   46.5602    7.8431 O   0  0  0  0  0  0  0  0  0  0  0  0
  1  2  1  0
  2  3  1  0
  3  4  1  0
  5 21  1  0
  6 21  1  0
  6 18  1  0
  8  7  1  0
  8 23  1  0
  9 23  1  0
 10 11  2  0
 12 24  1  0
 12 14  2  0
 13 24  1  0
 15  9  2  0
 16 17  1  0
 18  7  1  0
 20 19  1  0
 20  4  1  0
 20  5  1  0
  4 16  2  0
  5 17  2  0
  6 19  2  0
  7 22  2  0
  9 10  1  0
 11 12  1  0
 14 15  1  0
M  END
>  <rmsd>  (13) 
0.198953524

$$$$
MolPort-002-849-484 8715574 LN01241864 MCULE-7102647929 PubChem-11842440 ZINC000008715574 ZINC08715574
     RDKit          3D

 25 27  0  0  0  0  0  0  0  0999 V2000
   12.2433   46.2735    1.9343 C   0  0  0  0  0  0  0  0  0  0  0  0
   13.3940   45.9584    2.8664 C   0  0  0  0  0  0  0  0  0  0  0  0
   13.8997   44.3889    4.6923 C   0  0  0  0  0  0  0  0  0  0  0  0
   14.2506   42.6987    6.5534 C   0  0  0  0  0  0  0  0  0  0  0  0
   16.0312   42.3184    7.8788 C   0  0  0  0  0  0  0  0  0  0  0  0
   15.1537   41.3391    8.3811 C   0  0  0  0  0  0  0  0  0  0  0  0
   15.4567   40.2732    9.3594 C   0  0  0  0  0  0  0  0  0  0  0  0
   14.4707   39.8378   10.3729 C   0  0  0  0  0  0  0  0  0  0  0  0
   14.7071   38.6874   11.1379 C   0  0  0  0  0  0  0  0  0  0  0  0
   12.6727   38.9934   12.3228 C   0  0  0  0  0  0  0  0  0  0  0  0
   12.3966   40.1499   11.5923 C   0  0  0  0  0  0  0  0  0  0  0  0
   13.3019   40.5711   10.6177 C   0  0  0  0  0  0  0  0  0  0  0  0
   17.3871   42.6046    8.3972 C   0  0  0  0  0  0  0  0  0  0  0  0
   18.3308   43.2212    7.5621 C   0  0  0  0  0  0  0  0  0  0  0  0
   19.6055   43.5358    8.0422 C   0  0  0  0  0  0  0  0  0  0  0  0
   19.9444   43.2463    9.3662 C   0  0  0  0  0  0  0  0  0  0  0  0
   19.0072   42.6470   10.2112 C   0  0  0  0  0  0  0  0  0  0  0  0
   17.7329   42.3331    9.7300 C   0  0  0  0  0  0  0  0  0  0  0  0
   13.0274   44.8899    3.7263 O   0  0  0  0  0  0  0  0  0  0  0  0
   15.0537   44.8814    4.8271 O   0  0  0  0  0  0  0  0  0  0  0  0
   16.5791   39.7007    9.3073 O   0  0  0  0  0  0  0  0  0  0  0  0
   13.4648   43.3100    5.5258 N   0  0  0  0  0  0  0  0  0  0  0  0
   15.5127   43.0641    6.8628 N   0  0  0  0  0  0  0  0  0  0  0  0
   13.8129   38.2924   12.0838 N   0  0  0  0  0  0  0  0  0  0  0  0
   13.7119   41.4338    7.5097 S   0  0  0  0  0  0  0  0  0  0  0  0
  1  2  1  0
  2 19  1  0
  3 19  1  0
  3 22  1  0
  4 25  1  0
  5 23  1  0
  5 13  1  0
  6 25  1  0
  6  7  1  0
  7  8  1  0
  9 24  2  0
 10 11  2  0
 12  8  2  0
 14 15  2  0
 16 17  2  0
 18 13  2  0
 22  4  1  0
  3 20  2  0
  4 23  2  0
  5  6  2  0
  7 21  2  0
  8  9  1  0
 10 24  1  0
 11 12  1  0
 13 14  1  0
 15 16  1  0
 17 18  1  0
M  END
>  <rmsd>  (14) 
0.217149824

$$$$
MolPort-002-849-494 8715584 LN01241865 MCULE-3229897286 PubChem-11842450 ZINC000008715584 ZINC08715584
     RDKit          3D

 24 26  0  0  0  0  0  0  0  0999 V2000
   13.3935   45.9587    2.8671 C   0  0  0  0  0  0  0  0  0  0  0  0
   13.8994   44.3890    4.6930 C   0  0  0  0  0  0  0  0  0  0  0  0
   14.2503   42.6988    6.5541 C   0  0  0  0  0  0  0  0  0  0  0  0
   16.0312   42.3177    7.8790 C   0  0  0  0  0  0  0  0  0  0  0  0
   15.1534   41.3388    8.3816 C   0  0  0  0  0  0  0  0  0  0  0  0
   15.4564   40.2727    9.3598 C   0  0  0  0  0  0  0  0  0  0  0  0
   14.4705   39.8378   10.3737 C   0  0  0  0  0  0  0  0  0  0  0  0
   14.7068   38.6872   11.1386 C   0  0  0  0  0  0  0  0  0  0  0  0
   12.6729   38.9941   12.3242 C   0  0  0  0  0  0  0  0  0  0  0  0
   12.3970   40.1506   11.5937 C   0  0  0  0  0  0  0  0  0  0  0  0
   13.3022   40.5716   10.6189 C   0  0  0  0  0  0  0  0  0  0  0  0
   17.3874   42.6035    8.3970 C   0  0  0  0  0  0  0  0  0  0  0  0
   17.7335   42.3320    9.7297 C   0  0  0  0  0  0  0  0  0  0  0  0
   19.0079   42.6453   10.2105 C   0  0  0  0  0  0  0  0  0  0  0  0
   19.9452   43.2442    9.3652 C   0  0  0  0  0  0  0  0  0  0  0  0
   19.6060   43.5339    8.0413 C   0  0  0  0  0  0  0  0  0  0  0  0
   18.3312   43.2197    7.5617 C   0  0  0  0  0  0  0  0  0  0  0  0
   13.0270   44.8903    3.7272 O   0  0  0  0  0  0  0  0  0  0  0  0
   15.0536   44.8810    4.8274 O   0  0  0  0  0  0  0  0  0  0  0  0
   16.5786   39.7000    9.3074 O   0  0  0  0  0  0  0  0  0  0  0  0
   13.4644   43.3103    5.5267 N   0  0  0  0  0  0  0  0  0  0  0  0
   15.5126   43.0636    6.8632 N   0  0  0  0  0  0  0  0  0  0  0  0
   13.8127   38.2926   12.0848 N   0  0  0  0  0  0  0  0  0  0  0  0
   13.7115   41.4341    7.5106 S   0  0  0  0  0  0  0  0  0  0  0  0
  1 18  1  0
  2 18  1  0
  2 21  1  0
  3 24  1  0
  4 22  1  0
  4 12  1  0
  5 24  1  0
  5  6  1  0
  6  7  1  0
  8 23  2  0
  9 10  2  0
 11  7  2  0
 13 14  2  0
 15 16  2  0
 17 12  2  0
 21  3  1  0
  2 19  2  0
  3 22  2  0
  4  5  2  0
  6 20  2  0
  7  8  1  0
  9 23  1  0
 10 11  1  0
 12 13  1  0
 14 15  1  0
 16 17  1  0
M  END
>  <rmsd>  (15) 
0.217100158

$$$$
MolPort-007-723-649 8588140 CHEMBL1592321 ChemDiv-E157-6989 MCULE-7455272593 PubChem-16017538 ZINC000008588140 ZINC08588140
     RDKit          3D

 30 32  0  0  0  0  0  0  0  0999 V2000
   13.5327   39.3298   11.3043 C   0  0  0  0  0  0  0  0  0  0  0  0
   13.7578   41.8260   11.5320 C   0  0  0  0  0  0  0  0  0  0  0  0
   12.6516   41.8631   12.3980 C   0  0  0  0  0  0  0  0  0  0  0  0
   12.2167   43.0725   12.9473 C   0  0  0  0  0  0  0  0  0  0  0  0
   11.0457   43.0942   13.8616 C   0  0  0  0  0  0  0  0  0  0  0  0
   12.8821   44.2604   12.6360 C   0  0  0  0  0  0  0  0  0  0  0  0
   13.9833   44.2382   11.7772 C   0  0  0  0  0  0  0  0  0  0  0  0
   14.6910   45.5009   11.4423 C   0  0  0  0  0  0  0  0  0  0  0  0
   14.4184   43.0285   11.2305 C   0  0  0  0  0  0  0  0  0  0  0  0
   15.1522   41.5266    8.4435 C   0  0  0  0  0  0  0  0  0  0  0  0
   14.2434   42.7392    6.5990 C   0  0  0  0  0  0  0  0  0  0  0  0
   13.9140   44.3574    4.6725 C   0  0  0  0  0  0  0  0  0  0  0  0
   13.0190   44.8357    3.5813 C   0  0  0  0  0  0  0  0  0  0  0  0
   13.8565   43.5763    1.6093 C   0  0  0  0  0  0  0  0  0  0  0  0
   15.0267   44.3482    1.5168 C   0  0  0  0  0  0  0  0  0  0  0  0
   15.9810   44.0665    0.5352 C   0  0  0  0  0  0  0  0  0  0  0  0
   15.7719   43.0140   -0.3600 C   0  0  0  0  0  0  0  0  0  0  0  0
   14.6085   42.2443   -0.2745 C   0  0  0  0  0  0  0  0  0  0  0  0
   13.6540   42.5259    0.7076 C   0  0  0  0  0  0  0  0  0  0  0  0
   14.2000   40.5782   10.9605 N   0  0  0  0  0  0  0  0  0  0  0  0
   16.0146   42.4301    7.9294 N   0  0  0  0  0  0  0  0  0  0  0  0
   15.5092   43.1056    6.8992 N   0  0  0  0  0  0  0  0  0  0  0  0
   13.4694   43.3089    5.5394 N   0  0  0  0  0  0  0  0  0  0  0  0
   15.5158   40.5137    9.8257 S   0  0  0  0  0  0  0  0  0  0  0  0
   13.6810   41.5294    7.6237 S   0  0  0  0  0  0  0  0  0  0  0  0
   15.7243   39.1021    9.3529 O   0  0  0  0  0  0  0  0  0  0  0  0
   16.7718   40.9943   10.4966 O   0  0  0  0  0  0  0  0  0  0  0  0
   15.0529   44.8772    4.8117 O   0  0  0  0  0  0  0  0  0  0  0  0
   12.8811   43.8331    2.5793 O   0  0  0  0  0  0  0  0  0  0  0  0
   16.9666   42.6609   -1.5892 Cl  0  0  0  0  0  0  0  0  0  0  0  0
  1 20  1  0
  3  4  2  0
  5  4  1  0
  6  7  2  0
  8  7  1  0
  9  2  2  0
 10 25  1  0
 11 23  1  0
 11 25  1  0
 13 12  1  0
 13 29  1  0
 14 29  1  0
 15 16  2  0
 17 30  1  0
 17 18  2  0
 19 14  2  0
 20  2  1  0
 21 22  1  0
 23 12  1  0
 24 20  1  0
 24 10  1  0
  2  3  1  0
  4  6  1  0
  7  9  1  0
 10 21  2  0
 11 22  2  0
 12 28  2  0
 14 15  1  0
 16 17  1  0
 18 19  1  0
 24 26  2  0
 24 27  2  0
M  END
>  <rmsd>  (16) 
0.191857189

$$$$
MolPort-006-579-633 ChemDiv-V012-7707 MCULE-4229415263 PubChem-46040595 ZINC000037544351 ZINC37544351
     RDKit          3D

 27 29  0  0  0  0  0  0  0  0999 V2000
   12.6275   46.1909    3.6468 C   0  0  0  0  0  0  0  0  0  0  0  0
   13.0123   44.7293    3.5246 C   0  0  0  0  0  0  0  0  0  0  0  0
   13.6807   44.4829    2.1860 C   0  0  0  0  0  0  0  0  0  0  0  0
   13.9179   44.3301    4.6430 C   0  0  0  0  0  0  0  0  0  0  0  0
   14.2411   42.7546    6.6389 C   0  0  0  0  0  0  0  0  0  0  0  0
   15.5763   43.1098    6.8728 C   0  0  0  0  0  0  0  0  0  0  0  0
   16.2819   42.5401    7.9343 C   0  0  0  0  0  0  0  0  0  0  0  0
   15.6566   41.6120    8.7692 C   0  0  0  0  0  0  0  0  0  0  0  0
   14.3208   41.2369    8.5502 C   0  0  0  0  0  0  0  0  0  0  0  0
   13.6247   41.8224    7.4793 C   0  0  0  0  0  0  0  0  0  0  0  0
   14.1425   40.2385   10.8311 C   0  0  0  0  0  0  0  0  0  0  0  0
   13.8407   38.8901   11.4744 C   0  0  0  0  0  0  0  0  0  0  0  0
   12.3452   38.6349   11.3912 C   0  0  0  0  0  0  0  0  0  0  0  0
   12.5276   39.5095    9.0477 C   0  0  0  0  0  0  0  0  0  0  0  0
   10.8644   37.6906    9.6071 C   0  0  0  0  0  0  0  0  0  0  0  0
   11.4319   36.5192    8.8771 C   0  0  0  0  0  0  0  0  0  0  0  0
   12.0822   35.5006    9.5837 C   0  0  0  0  0  0  0  0  0  0  0  0
   12.6246   34.4090    8.8986 C   0  0  0  0  0  0  0  0  0  0  0  0
   12.5183   34.3347    7.5064 C   0  0  0  0  0  0  0  0  0  0  0  0
   11.8722   35.3533    6.7987 C   0  0  0  0  0  0  0  0  0  0  0  0
   11.3303   36.4455    7.4836 C   0  0  0  0  0  0  0  0  0  0  0  0
   15.0411   44.8893    4.7768 O   0  0  0  0  0  0  0  0  0  0  0  0
   12.0757   39.5694    7.8712 O   0  0  0  0  0  0  0  0  0  0  0  0
   13.4843   43.3138    5.5563 N   0  0  0  0  0  0  0  0  0  0  0  0
   13.6780   40.2962    9.4390 N   0  0  0  0  0  0  0  0  0  0  0  0
   11.9254   38.6115    9.9962 N   0  0  0  0  0  0  0  0  0  0  0  0
   13.0417   33.2751    6.8439 F   0  0  0  0  0  0  0  0  0  0  0  0
  1  2  1  0
  2  3  1  0
  2  4  1  0
  4 24  1  0
  6  7  2  0
  8  9  2  0
  9 25  1  0
 10  5  2  0
 11 25  1  0
 11 12  1  0
 12 13  1  0
 13 26  1  0
 14 25  1  0
 15 26  1  0
 15 16  1  0
 17 18  2  0
 19 20  2  0
 19 27  1  0
 21 16  2  0
 24  5  1  0
 26 14  1  0
  4 22  2  0
  5  6  1  0
  7  8  1  0
  9 10  1  0
 14 23  2  0
 16 17  1  0
 18 19  1  0
 20 21  1  0
M  END
>  <rmsd>  (17) 
0.234564155

$$$$
MolPort-006-579-642 ChemDiv-V021-6494 MCULE-5835425492 PubChem-46040606 ZINC000037543375 ZINC37543375
     RDKit          3D

 27 30  0  0  0  0  0  0  0  0999 V2000
   13.9311   32.6061    8.7593 C   0  0  0  0  0  0  0  0  0  0  0  0
   13.1772   33.8753    8.9294 C   0  0  0  0  0  0  0  0  0  0  0  0
   13.0407   34.7570    7.8527 C   0  0  0  0  0  0  0  0  0  0  0  0
   12.3315   35.9512    8.0126 C   0  0  0  0  0  0  0  0  0  0  0  0
   11.7539   36.2629    9.2485 C   0  0  0  0  0  0  0  0  0  0  0  0
   11.8972   35.3832   10.3271 C   0  0  0  0  0  0  0  0  0  0  0  0
   12.6065   34.1889   10.1668 C   0  0  0  0  0  0  0  0  0  0  0  0
   11.0217   37.5502    9.4273 C   0  0  0  0  0  0  0  0  0  0  0  0
   12.2206   38.7411   11.2860 C   0  0  0  0  0  0  0  0  0  0  0  0
   13.7213   38.8535   11.4828 C   0  0  0  0  0  0  0  0  0  0  0  0
   14.2400   40.1023   10.7695 C   0  0  0  0  0  0  0  0  0  0  0  0
   12.6718   39.3864    8.9204 C   0  0  0  0  0  0  0  0  0  0  0  0
   14.3745   41.2163    8.5350 C   0  0  0  0  0  0  0  0  0  0  0  0
   15.6830   41.6579    8.7927 C   0  0  0  0  0  0  0  0  0  0  0  0
   16.2753   42.6364    7.9914 C   0  0  0  0  0  0  0  0  0  0  0  0
   15.5638   43.1893    6.9251 C   0  0  0  0  0  0  0  0  0  0  0  0
   14.2541   42.7696    6.6546 C   0  0  0  0  0  0  0  0  0  0  0  0
   13.6700   41.7890    7.4624 C   0  0  0  0  0  0  0  0  0  0  0  0
   13.9107   44.3299    4.6479 C   0  0  0  0  0  0  0  0  0  0  0  0
   12.9799   44.7706    3.5653 C   0  0  0  0  0  0  0  0  0  0  0  0
   12.5842   43.5827    2.7069 C   0  0  0  0  0  0  0  0  0  0  0  0
   13.6263   44.5575    2.2082 C   0  0  0  0  0  0  0  0  0  0  0  0
   11.9360   38.5969    9.8662 N   0  0  0  0  0  0  0  0  0  0  0  0
   13.7641   40.2164    9.3803 N   0  0  0  0  0  0  0  0  0  0  0  0
   13.4909   43.3130    5.5691 N   0  0  0  0  0  0  0  0  0  0  0  0
   12.3889   39.3168    7.6929 O   0  0  0  0  0  0  0  0  0  0  0  0
   15.0347   44.8886    4.7653 O   0  0  0  0  0  0  0  0  0  0  0  0
  1  2  1  0
  3  4  2  0
  5  6  2  0
  7  2  2  0
  8  5  1  0
  8 23  1  0
  9 23  1  0
  9 10  1  0
 10 11  1  0
 11 24  1  0
 12 23  1  0
 14 15  2  0
 16 17  2  0
 17 25  1  0
 18 13  2  0
 20 19  1  0
 20 21  1  0
 21 22  1  0
 22 20  1  0
 24 12  1  0
 24 13  1  0
 25 19  1  0
  2  3  1  0
  4  5  1  0
  6  7  1  0
 12 26  2  0
 13 14  1  0
 15 16  1  0
 17 18  1  0
 19 27  2  0
M  END
>  <rmsd>  (18) 
0.244973928

$$$$
MolPort-002-876-469 1396520 CHEMBL1601509 CSSS00025731023 MCULE-5509480574 PubChem-1483052 ZINC000001396520 ZINC01396520
     RDKit          3D

 26 28  0  0  0  0  0  0  0  0999 V2000
   16.4802   41.1093    9.8262 C   0  0  0  0  0  0  0  0  0  0  0  0
   15.6416   41.6423    8.7133 C   0  0  0  0  0  0  0  0  0  0  0  0
   14.2760   41.9426    8.8925 C   0  0  0  0  0  0  0  0  0  0  0  0
   13.5848   42.5165    7.8249 C   0  0  0  0  0  0  0  0  0  0  0  0
   14.2307   42.7599    6.6157 C   0  0  0  0  0  0  0  0  0  0  0  0
   13.9707   44.2659    4.5710 C   0  0  0  0  0  0  0  0  0  0  0  0
   13.1910   44.5472    3.3531 C   0  0  0  0  0  0  0  0  0  0  0  0
   13.6511   45.4844    2.4161 C   0  0  0  0  0  0  0  0  0  0  0  0
   12.9114   45.7494    1.2599 C   0  0  0  0  0  0  0  0  0  0  0  0
   11.7067   45.0792    1.0317 C   0  0  0  0  0  0  0  0  0  0  0  0
   11.2414   44.1437    1.9597 C   0  0  0  0  0  0  0  0  0  0  0  0
   11.9811   43.8787    3.1160 C   0  0  0  0  0  0  0  0  0  0  0  0
   15.5782   42.3722    6.4923 C   0  0  0  0  0  0  0  0  0  0  0  0
   13.5594   41.7142   10.1650 C   0  0  0  0  0  0  0  0  0  0  0  0
   13.5351   40.3910   10.8269 C   0  0  0  0  0  0  0  0  0  0  0  0
   13.0853   40.2773   12.1510 C   0  0  0  0  0  0  0  0  0  0  0  0
   13.0383   39.0294   12.7792 C   0  0  0  0  0  0  0  0  0  0  0  0
   13.4345   37.8827   12.0861 C   0  0  0  0  0  0  0  0  0  0  0  0
   13.8749   37.9833   10.7640 C   0  0  0  0  0  0  0  0  0  0  0  0
   13.9217   39.2312   10.1363 C   0  0  0  0  0  0  0  0  0  0  0  0
   13.4777   43.3240    5.5333 N   0  0  0  0  0  0  0  0  0  0  0  0
   15.0469   44.8879    4.7858 O   0  0  0  0  0  0  0  0  0  0  0  0
   16.1852   42.4867    5.3953 O   0  0  0  0  0  0  0  0  0  0  0  0
   16.2211   41.8530    7.5345 O   0  0  0  0  0  0  0  0  0  0  0  0
   12.9176   42.6720   10.6764 O   0  0  0  0  0  0  0  0  0  0  0  0
   13.4949   46.9208    0.0980 Cl  0  0  0  0  0  0  0  0  0  0  0  0
  1  2  1  0
  2 24  1  0
  3  4  1  0
  3 14  1  0
  5 21  1  0
  5 13  1  0
  6  7  1  0
  8  9  2  0
  9 26  1  0
 10 11  2  0
 12  7  2  0
 13 24  1  0
 14 15  1  0
 16 17  2  0
 18 19  2  0
 20 15  2  0
 21  6  1  0
  2  3  2  0
  4  5  2  0
  6 22  2  0
  7  8  1  0
  9 10  1  0
 11 12  1  0
 13 23  2  0
 14 25  2  0
 15 16  1  0
 17 18  1  0
 19 20  1  0
M  END
>  <rmsd>  (19) 
0.248531267

$$$$
MolPort-002-599-406 2422375 CSSS00160675833 MCULE-5566734325 PubChem-2019102 ZINC000002422375 ZINC02422375
     RDKit          3D

 26 29  0  0  0  0  0  0  0  0999 V2000
   14.2912   38.7783   11.6927 C   0  0  0  0  0  0  0  0  0  0  0  0
   13.0454   39.4445   11.1397 C   0  0  0  0  0  0  0  0  0  0  0  0
   13.3330   40.0627    9.7835 C   0  0  0  0  0  0  0  0  0  0  0  0
   14.1303   41.3464    9.9445 C   0  0  0  0  0  0  0  0  0  0  0  0
   14.1611   42.8256    6.6891 C   0  0  0  0  0  0  0  0  0  0  0  0
   14.0224   44.2093    4.5479 C   0  0  0  0  0  0  0  0  0  0  0  0
   13.3303   44.3912    3.2600 C   0  0  0  0  0  0  0  0  0  0  0  0
   12.1568   43.6762    2.9789 C   0  0  0  0  0  0  0  0  0  0  0  0
   11.5006   43.8465    1.7563 C   0  0  0  0  0  0  0  0  0  0  0  0
   12.0134   44.7329    0.8054 C   0  0  0  0  0  0  0  0  0  0  0  0
   13.1824   45.4490    1.0768 C   0  0  0  0  0  0  0  0  0  0  0  0
   13.8387   45.2786    2.2994 C   0  0  0  0  0  0  0  0  0  0  0  0
   15.5246   42.6355    6.8535 C   0  0  0  0  0  0  0  0  0  0  0  0
   16.6364   42.8294    6.0398 C   0  0  0  0  0  0  0  0  0  0  0  0
   17.8842   42.4528    6.5659 C   0  0  0  0  0  0  0  0  0  0  0  0
   19.0482   42.6299    5.8146 C   0  0  0  0  0  0  0  0  0  0  0  0
   20.2854   42.2500    6.3440 C   0  0  0  0  0  0  0  0  0  0  0  0
   20.3647   41.6907    7.6241 C   0  0  0  0  0  0  0  0  0  0  0  0
   19.2075   41.5055    8.3872 C   0  0  0  0  0  0  0  0  0  0  0  0
   17.9638   41.8811    7.8736 C   0  0  0  0  0  0  0  0  0  0  0  0
   15.6405   42.0743    8.0916 C   0  0  0  0  0  0  0  0  0  0  0  0
   14.4261   41.9167    8.6396 N   0  0  0  0  0  0  0  0  0  0  0  0
   13.5111   42.3661    7.7869 N   0  0  0  0  0  0  0  0  0  0  0  0
   13.4781   43.3190    5.5303 N   0  0  0  0  0  0  0  0  0  0  0  0
   16.8319   41.6919    8.6160 N   0  0  0  0  0  0  0  0  0  0  0  0
   15.0641   44.8738    4.7989 O   0  0  0  0  0  0  0  0  0  0  0  0
  1  2  1  0
  2  3  1  0
  3  4  1  0
  4 22  1  0
  5 24  1  0
  5 13  1  0
  6  7  1  0
  8  9  2  0
 10 11  2  0
 12  7  2  0
 14 15  2  0
 16 17  2  0
 18 19  2  0
 20 25  2  0
 20 15  1  0
 21 22  1  0
 21 13  2  0
 22 23  1  0
 24  6  1  0
  5 23  2  0
  6 26  2  0
  7  8  1  0
  9 10  1  0
 11 12  1  0
 13 14  1  0
 15 16  1  0
 17 18  1  0
 19 20  1  0
 21 25  1  0
M  END
>  <rmsd>  (20) 
0.247371808

$$$$
MolPort-006-609-926 ChemDiv-V020-0066 MCULE-2014378284 PubChem-46070010 ZINC000034735415 ZINC34735415
     RDKit          3D

 34 37  0  0  0  0  0  0  0  0999 V2000
    8.2978   44.4879    5.9993 C   0  0  0  0  0  0  0  0  0  0  0  0
    9.8891   46.2724    5.3661 C   0  0  0  0  0  0  0  0  0  0  0  0
   10.7891   45.3587    4.7936 C   0  0  0  0  0  0  0  0  0  0  0  0
   11.9826   45.8087    4.2186 C   0  0  0  0  0  0  0  0  0  0  0  0
   12.9441   44.8307    3.6340 C   0  0  0  0  0  0  0  0  0  0  0  0
   13.8977   44.3521    4.6746 C   0  0  0  0  0  0  0  0  0  0  0  0
   14.2663   42.7493    6.6410 C   0  0  0  0  0  0  0  0  0  0  0  0
   13.6961   41.7434    7.4272 C   0  0  0  0  0  0  0  0  0  0  0  0
   14.4093   41.1544    8.4848 C   0  0  0  0  0  0  0  0  0  0  0  0
   15.7120   41.6082    8.7510 C   0  0  0  0  0  0  0  0  0  0  0  0
   16.2903   42.6129    7.9722 C   0  0  0  0  0  0  0  0  0  0  0  0
   15.5701   43.1810    6.9201 C   0  0  0  0  0  0  0  0  0  0  0  0
   14.3894   39.8431   10.6224 C   0  0  0  0  0  0  0  0  0  0  0  0
   13.2797   39.6074   11.6327 C   0  0  0  0  0  0  0  0  0  0  0  0
   12.4575   38.3868   11.2285 C   0  0  0  0  0  0  0  0  0  0  0  0
   11.0405   37.4796    9.3812 C   0  0  0  0  0  0  0  0  0  0  0  0
   11.6283   36.3373    8.6073 C   0  0  0  0  0  0  0  0  0  0  0  0
   12.1701   35.2039    9.2492 C   0  0  0  0  0  0  0  0  0  0  0  0
   12.7201   34.1700    8.4839 C   0  0  0  0  0  0  0  0  0  0  0  0
   12.7351   34.2546    7.0894 C   0  0  0  0  0  0  0  0  0  0  0  0
   12.1975   35.3747    6.4523 C   0  0  0  0  0  0  0  0  0  0  0  0
   11.6463   36.4113    7.2093 C   0  0  0  0  0  0  0  0  0  0  0  0
   12.1625   35.0702   10.6834 C   0  0  0  0  0  0  0  0  0  0  0  0
   12.7024   39.3125    8.8798 C   0  0  0  0  0  0  0  0  0  0  0  0
   12.2860   47.1742    4.2221 C   0  0  0  0  0  0  0  0  0  0  0  0
   11.3935   48.0875    4.7901 C   0  0  0  0  0  0  0  0  0  0  0  0
   10.1986   47.6369    5.3593 C   0  0  0  0  0  0  0  0  0  0  0  0
    8.6884   45.8533    5.9457 O   0  0  0  0  0  0  0  0  0  0  0  0
   15.0325   44.8907    4.7669 O   0  0  0  0  0  0  0  0  0  0  0  0
   12.2795   39.3773    7.6932 O   0  0  0  0  0  0  0  0  0  0  0  0
   13.4928   43.3100    5.5719 N   0  0  0  0  0  0  0  0  0  0  0  0
   13.8114   40.1297    9.3105 N   0  0  0  0  0  0  0  0  0  0  0  0
   12.0815   38.4066    9.8129 N   0  0  0  0  0  0  0  0  0  0  0  0
   12.1564   34.9618   11.8355 N   0  0  0  0  0  0  0  0  0  0  0  0
  1 28  1  0
  2 28  1  0
  3  4  2  0
  5  4  1  0
  5  6  1  0
  6 31  1  0
  8  9  2  0
  9 32  1  0
 10 11  2  0
 12  7  2  0
 13 32  1  0
 13 14  1  0
 14 15  1  0
 15 33  1  0
 16 33  1  0
 16 17  1  0
 18 19  2  0
 18 23  1  0
 20 21  2  0
 22 17  2  0
 24 32  1  0
 25 26  2  0
 27  2  2  0
 31  7  1  0
 33 24  1  0
  2  3  1  0
  4 25  1  0
  6 29  2  0
  7  8  1  0
  9 10  1  0
 11 12  1  0
 17 18  1  0
 19 20  1  0
 21 22  1  0
 24 30  2  0
 26 27  1  0
 23 34  3  0
M  END
>  <rmsd>  (21) 
0.244469389

$$$$
MolPort-020-292-464 MCULE-7546997450 PubChem-110264932
     RDKit          3D

 31 34  0  0  0  0  0  0  0  0999 V2000
   17.6247   42.9913    8.2745 C   0  0  0  0  0  0  0  0  0  0  0  0
   16.2397   42.5466    7.9698 C   0  0  0  0  0  0  0  0  0  0  0  0
   15.5344   43.1357    6.9194 C   0  0  0  0  0  0  0  0  0  0  0  0
   14.2265   42.7169    6.6427 C   0  0  0  0  0  0  0  0  0  0  0  0
   13.6531   41.7137    7.4279 C   0  0  0  0  0  0  0  0  0  0  0  0
   14.3877   41.1459    8.4720 C   0  0  0  0  0  0  0  0  0  0  0  0
   13.7699   40.0756    9.3086 C   0  0  2  0  0  0  0  0  0  0  0  0
   13.6544   40.5236   10.7669 C   0  0  0  0  0  0  0  0  0  0  0  0
   13.0967   39.3997   11.6445 C   0  0  0  0  0  0  0  0  0  0  0  0
   13.6033   38.0166   11.2149 C   0  0  0  0  0  0  0  0  0  0  0  0
   14.5453   38.7529    9.1603 C   0  0  0  0  0  0  0  0  0  0  0  0
   15.2996   36.7783   10.1713 C   0  0  0  0  0  0  0  0  0  0  0  0
   16.4086   36.3718   11.0910 C   0  0  0  0  0  0  0  0  0  0  0  0
   17.9475   37.0394   13.0356 C   0  0  0  0  0  0  0  0  0  0  0  0
   18.5156   35.7648   13.1890 C   0  0  0  0  0  0  0  0  0  0  0  0
   19.5039   35.5405   14.1507 C   0  0  0  0  0  0  0  0  0  0  0  0
   19.9311   36.5883   14.9697 C   0  0  0  0  0  0  0  0  0  0  0  0
   19.3685   37.8590   14.8270 C   0  0  0  0  0  0  0  0  0  0  0  0
   18.3799   38.0859   13.8644 C   0  0  0  0  0  0  0  0  0  0  0  0
   13.8526   44.3180    4.6666 C   0  0  0  0  0  0  0  0  0  0  0  0
   15.4402   45.9059    3.9010 C   0  0  0  0  0  0  0  0  0  0  0  0
   14.5578   46.3051    2.8962 C   0  0  0  0  0  0  0  0  0  0  0  0
   12.9722   44.7200    3.6594 C   0  0  0  0  0  0  0  0  0  0  0  0
   15.6580   41.5725    8.7188 N   0  0  0  0  0  0  0  0  0  0  0  0
   14.8460   38.1315   10.4532 N   0  0  0  0  0  0  0  0  0  0  0  0
   16.9268   37.2966   12.0599 N   0  0  0  0  0  0  0  0  0  0  0  0
   13.4549   43.2804    5.5726 N   0  0  0  0  0  0  0  0  0  0  0  0
   15.0689   44.9228    4.7627 N   0  0  0  0  0  0  0  0  0  0  0  0
   13.3431   45.7030    2.7971 N   0  0  0  0  0  0  0  0  0  0  0  0
   16.8814   35.2093   10.9894 O   0  0  0  0  0  0  0  0  0  0  0  0
   17.8459   39.3261   13.7377 F   0  0  0  0  0  0  0  0  0  0  0  0
  1  2  1  0
  2 24  2  0
  3  4  2  0
  4 27  1  0
  5  6  2  0
  7  6  1  6
  7  8  1  0
  8  9  1  0
  9 10  1  0
 10 25  1  0
 11 25  1  0
 11  7  1  0
 12 25  1  0
 12 13  1  0
 13 26  1  0
 15 16  2  0
 17 18  2  0
 19 31  1  0
 19 14  2  0
 21 28  2  0
 22 29  2  0
 23 20  2  0
 26 14  1  0
 27 20  1  0
  2  3  1  0
  4  5  1  0
  6 24  1  0
 13 30  2  0
 14 15  1  0
 16 17  1  0
 18 19  1  0
 20 28  1  0
 21 22  1  0
 23 29  1  0
M  END
>  <rmsd>  (22) 
0.244966507

$$$$
MolPort-047-072-557 PubChem-132766378
     RDKit          3D

 31 34  0  0  0  0  0  0  0  0999 V2000
   17.5768   43.0378    8.3379 C   0  0  0  0  0  0  0  0  0  0  0  0
   16.2041   42.5762    8.0058 C   0  0  0  0  0  0  0  0  0  0  0  0
   15.5088   43.1619    6.9465 C   0  0  0  0  0  0  0  0  0  0  0  0
   14.2151   42.7211    6.6393 C   0  0  0  0  0  0  0  0  0  0  0  0
   13.8478   44.3321    4.6638 C   0  0  0  0  0  0  0  0  0  0  0  0
   15.4714   45.9134    3.9307 C   0  0  0  0  0  0  0  0  0  0  0  0
   14.6175   46.3624    2.9231 C   0  0  0  0  0  0  0  0  0  0  0  0
   13.3573   45.7798    2.7908 C   0  0  0  0  0  0  0  0  0  0  0  0
   12.9633   44.7606    3.6598 C   0  0  0  0  0  0  0  0  0  0  0  0
   11.6125   44.1512    3.5015 C   0  0  0  0  0  0  0  0  0  0  0  0
   13.6454   41.6999    7.4034 C   0  0  0  0  0  0  0  0  0  0  0  0
   14.3695   41.1359    8.4572 C   0  0  0  0  0  0  0  0  0  0  0  0
   13.7552   40.0441    9.2686 C   0  0  2  0  0  0  0  0  0  0  0  0
   13.6281   40.4654   10.7341 C   0  0  0  0  0  0  0  0  0  0  0  0
   12.9967   39.3445   11.5571 C   0  0  0  0  0  0  0  0  0  0  0  0
   13.8364   38.0762   11.4402 C   0  0  0  0  0  0  0  0  0  0  0  0
   14.5741   38.7587    9.1475 C   0  0  0  0  0  0  0  0  0  0  0  0
   13.6269   36.4571    9.5121 C   0  0  0  0  0  0  0  0  0  0  0  0
   13.0450   35.4397   10.4021 C   0  0  0  0  0  0  0  0  0  0  0  0
   12.6731   34.2418    9.9570 C   0  0  0  0  0  0  0  0  0  0  0  0
   12.0907   33.2169   10.8334 C   0  0  0  0  0  0  0  0  0  0  0  0
   11.7263   31.9834   10.2890 C   0  0  0  0  0  0  0  0  0  0  0  0
   11.1709   30.9952   11.1038 C   0  0  0  0  0  0  0  0  0  0  0  0
   10.9864   31.2565   12.4631 C   0  0  0  0  0  0  0  0  0  0  0  0
   11.8879   33.4373   12.2037 C   0  0  0  0  0  0  0  0  0  0  0  0
   13.4516   43.2839    5.5631 N   0  0  0  0  0  0  0  0  0  0  0  0
   15.0731   44.9200    4.7692 N   0  0  0  0  0  0  0  0  0  0  0  0
   15.6262   41.5839    8.7334 N   0  0  0  0  0  0  0  0  0  0  0  0
   14.0138   37.7390   10.0296 N   0  0  0  0  0  0  0  0  0  0  0  0
   11.3454   32.4617   12.9810 N   0  0  0  0  0  0  0  0  0  0  0  0
   13.7856   36.2010    8.2865 O   0  0  0  0  0  0  0  0  0  0  0  0
  1  2  1  0
  2 28  2  0
  3  4  2  0
  4 26  1  0
  6 27  2  0
  7  8  2  0
  9  5  2  0
 10  9  1  0
 11 12  2  0
 13 12  1  6
 13 14  1  0
 14 15  1  0
 15 16  1  0
 16 29  1  0
 17 29  1  0
 17 13  1  0
 18 19  1  0
 20 21  1  0
 22 23  2  0
 24 30  2  0
 25 21  2  0
 26  5  1  0
 29 18  1  0
  2  3  1  0
  4 11  1  0
  5 27  1  0
  6  7  1  0
  8  9  1  0
 12 28  1  0
 18 31  2  0
 19 20  2  0
 21 22  1  0
 23 24  1  0
 25 30  1  0
M  END
>  <rmsd>  (23) 
0.242637753

$$$$
MolPort-035-706-980 CSSS03437789235 MCULE-4626765719 PubChem-91938305
     RDKit          3D

 22 23  0  0  0  0  0  0  0  0999 V2000
   16.2475   35.8636    7.9219 C   0  0  0  0  0  0  0  0  0  0  0  0
   14.7930   36.2612    7.7492 C   0  0  0  0  0  0  0  0  0  0  0  0
   14.5506   37.8324    9.6476 C   0  0  0  0  0  0  0  0  0  0  0  0
   14.3960   39.2516   10.1227 C   0  0  1  0  0  0  0  0  0  0  0  0
   13.4952   39.2933   11.3490 C   0  0  0  0  0  0  0  0  0  0  0  0
   14.3488   41.0580    8.3718 C   0  0  0  0  0  0  0  0  0  0  0  0
   13.6472   41.6710    7.3295 C   0  0  0  0  0  0  0  0  0  0  0  0
   14.2281   42.7141    6.5994 C   0  0  0  0  0  0  0  0  0  0  0  0
   13.9016   44.3828    4.6809 C   0  0  0  0  0  0  0  0  0  0  0  0
   12.9843   44.8752    3.6184 C   0  0  0  0  0  0  0  0  0  0  0  0
   13.1612   44.0479    2.3608 C   0  0  0  0  0  0  0  0  0  0  0  0
   15.5243   43.1422    6.9262 C   0  0  0  0  0  0  0  0  0  0  0  0
   16.2275   42.5339    7.9697 C   0  0  0  0  0  0  0  0  0  0  0  0
   15.6392   41.4924    8.6906 C   0  0  0  0  0  0  0  0  0  0  0  0
   15.7587   39.7999   10.4966 C   0  0  0  0  0  0  0  0  0  0  0  0
   14.5705   37.5644    8.2745 O   0  0  0  0  0  0  0  0  0  0  0  0
   14.7115   36.8972   10.4811 O   0  0  0  0  0  0  0  0  0  0  0  0
   13.7523   40.0167    9.0910 O   0  0  0  0  0  0  0  0  0  0  0  0
   15.0476   44.8935    4.7934 O   0  0  0  0  0  0  0  0  0  0  0  0
   16.4030   39.2918   11.4535 O   0  0  0  0  0  0  0  0  0  0  0  0
   13.4751   43.3149    5.5372 N   0  0  0  0  0  0  0  0  0  0  0  0
   16.3424   40.8760    9.7624 N   0  0  0  0  0  0  0  0  0  0  0  0
  1  2  1  0
  2 16  1  0
  3 16  1  0
  4  3  1  0
  4  5  1  1
  4 18  1  0
  4 15  1  0
  6 18  1  0
  7  8  2  0
  8 21  1  0
 10  9  1  0
 10 11  1  0
 12 13  2  0
 14 22  1  0
 14  6  2  0
 21  9  1  0
 22 15  1  0
  3 17  2  0
  6  7  1  0
  8 12  1  0
  9 19  2  0
 13 14  1  0
 15 20  2  0
M  END
>  <rmsd>  (24) 
0.231322765

$$$$
MolPort-010-852-262 41076407 ChemDiv-G952-1684 MCULE-9578582837 PubChem-52095939 ZINC000041076407 ZINC41076407
     RDKit          3D

 23 25  0  0  0  0  0  0  0  0999 V2000
   12.6758   38.7506   11.5857 C   0  0  0  0  0  0  0  0  0  0  0  0
   13.7267   39.7297   11.1075 C   0  0  0  0  0  0  0  0  0  0  0  0
   14.0355   39.4656    9.6474 C   0  0  0  0  0  0  0  0  0  0  0  0
   15.0676   40.4247    9.1621 C   0  0  0  0  0  0  0  0  0  0  0  0
   16.0391   41.9357    8.0749 C   0  0  0  0  0  0  0  0  0  0  0  0
   14.3604   42.6973    6.5835 C   0  0  0  0  0  0  0  0  0  0  0  0
   13.8775   44.3663    4.7078 C   0  0  0  0  0  0  0  0  0  0  0  0
   12.8902   44.8410    3.6977 C   0  0  0  0  0  0  0  0  0  0  0  0
   13.5056   43.5020    1.6934 C   0  0  0  0  0  0  0  0  0  0  0  0
   13.2054   42.4258    0.8427 C   0  0  0  0  0  0  0  0  0  0  0  0
   14.0686   42.0999   -0.2083 C   0  0  0  0  0  0  0  0  0  0  0  0
   15.2325   42.8433   -0.4189 C   0  0  0  0  0  0  0  0  0  0  0  0
   15.5370   43.9163    0.4215 C   0  0  0  0  0  0  0  0  0  0  0  0
   14.6776   44.2451    1.4729 C   0  0  0  0  0  0  0  0  0  0  0  0
   16.3484   40.5036    9.6143 N   0  0  0  0  0  0  0  0  0  0  0  0
   16.9707   41.4672    8.9225 N   0  0  0  0  0  0  0  0  0  0  0  0
   13.5177   43.3017    5.5954 N   0  0  0  0  0  0  0  0  0  0  0  0
   13.9091   41.6985    7.3943 N   0  0  0  0  0  0  0  0  0  0  0  0
   14.8921   41.3269    8.1975 N   0  0  0  0  0  0  0  0  0  0  0  0
   16.0184   43.1068    6.8787 S   0  0  0  0  0  0  0  0  0  0  0  0
   15.0135   44.9061    4.7598 O   0  0  0  0  0  0  0  0  0  0  0  0
   12.6310   43.8178    2.7415 O   0  0  0  0  0  0  0  0  0  0  0  0
   11.7535   41.4700    1.0804 Cl  0  0  0  0  0  0  0  0  0  0  0  0
  1  2  1  0
  2  3  1  0
  3  4  1  0
  5 20  1  0
  6 20  1  0
  6 17  1  0
  8  7  1  0
  8 22  1  0
  9 22  1  0
 10 23  1  0
 10 11  2  0
 12 13  2  0
 14  9  2  0
 15 16  1  0
 17  7  1  0
 19 18  1  0
 19  4  1  0
 19  5  1  0
  4 15  2  0
  5 16  2  0
  6 18  2  0
  7 21  2  0
  9 10  1  0
 11 12  1  0
 13 14  1  0
M  END
>  <rmsd>  (25) 
0.21481438

$$$$
MolPort-007-671-450 ChemDiv-C795-0043 MCULE-6412679810 PubChem-20885894 ZINC000005135296 ZINC05135296
     RDKit          3D

 25 26  0  0  0  0  0  0  0  0999 V2000
   12.8650   40.4893   10.9446 C   0  0  0  0  0  0  0  0  0  0  0  0
   14.0309   39.5279   11.0709 C   0  0  0  0  0  0  0  0  0  0  0  0
   13.5037   38.1466   11.3955 C   0  0  0  0  0  0  0  0  0  0  0  0
   14.8178   39.4726    9.7715 C   0  0  0  0  0  0  0  0  0  0  0  0
   16.8941   40.8156   10.1802 C   0  0  0  0  0  0  0  0  0  0  0  0
   16.9361   41.8369   11.3220 C   0  0  0  0  0  0  0  0  0  0  0  0
   16.5117   43.2276   10.8898 C   0  0  0  0  0  0  0  0  0  0  0  0
   16.1241   41.3834   12.5183 C   0  0  0  0  0  0  0  0  0  0  0  0
   15.2228   41.5566    8.4585 C   0  0  0  0  0  0  0  0  0  0  0  0
   14.2721   42.7536    6.6160 C   0  0  0  0  0  0  0  0  0  0  0  0
   13.8970   44.3562    4.6824 C   0  0  0  0  0  0  0  0  0  0  0  0
   13.2274   45.8410    2.7011 C   0  0  0  0  0  0  0  0  0  0  0  0
   12.2178   46.1451    1.7810 C   0  0  0  0  0  0  0  0  0  0  0  0
   12.4100   47.1464    0.8242 C   0  0  0  0  0  0  0  0  0  0  0  0
   13.6163   47.8507    0.7824 C   0  0  0  0  0  0  0  0  0  0  0  0
   14.6300   47.5539    1.6972 C   0  0  0  0  0  0  0  0  0  0  0  0
   14.4364   46.5526    2.6531 C   0  0  0  0  0  0  0  0  0  0  0  0
   15.5742   40.7021    9.5586 N   0  0  0  0  0  0  0  0  0  0  0  0
   16.0556   42.4895    7.9418 N   0  0  0  0  0  0  0  0  0  0  0  0
   15.5263   43.1567    6.9180 N   0  0  0  0  0  0  0  0  0  0  0  0
   13.4800   43.3056    5.5600 N   0  0  0  0  0  0  0  0  0  0  0  0
   12.9916   44.8071    3.6671 N   0  0  0  0  0  0  0  0  0  0  0  0
   15.0405   44.8734    4.8028 O   0  0  0  0  0  0  0  0  0  0  0  0
   13.8027   48.8207   -0.1443 F   0  0  0  0  0  0  0  0  0  0  0  0
   13.7499   41.5179    7.6306 S   0  0  0  0  0  0  0  0  0  0  0  0
  1  2  1  0
  2  3  1  0
  2  4  1  0
  4 18  1  0
  5 18  1  0
  5  6  1  0
  6  7  1  0
  6  8  1  0
  9 25  1  0
 10 21  1  0
 10 25  1  0
 11 22  1  0
 13 14  2  0
 15 24  1  0
 15 16  2  0
 17 12  2  0
 18  9  1  0
 19 20  1  0
 21 11  1  0
 22 12  1  0
  9 19  2  0
 10 20  2  0
 11 23  2  0
 12 13  1  0
 14 15  1  0
 16 17  1  0
M  END
>  <rmsd>  (26) 
0.21289295

$$$$
MolPort-007-713-435 ChemDiv-E002-0304 MCULE-6186887416 PubChem-22509879 ZINC000006768036
     RDKit          3D

 26 28  0  0  0  0  0  0  0  0999 V2000
   15.1367   41.5849    8.5041 C   0  0  0  0  0  0  0  0  0  0  0  0
   16.9051   40.5183    9.8947 C   0  0  0  0  0  0  0  0  0  0  0  0
   17.4899   39.4512    8.9876 C   0  0  0  0  0  0  0  0  0  0  0  0
   14.5007   40.0216   10.3884 C   0  0  0  0  0  0  0  0  0  0  0  0
   13.2340   40.5858   10.6131 C   0  0  0  0  0  0  0  0  0  0  0  0
   12.2906   39.9260   11.4056 C   0  0  0  0  0  0  0  0  0  0  0  0
   12.6063   38.6975   11.9902 C   0  0  0  0  0  0  0  0  0  0  0  0
   13.8664   38.1308   11.7856 C   0  0  0  0  0  0  0  0  0  0  0  0
   14.8093   38.7911   10.9928 C   0  0  0  0  0  0  0  0  0  0  0  0
   14.2342   42.7655    6.6233 C   0  0  0  0  0  0  0  0  0  0  0  0
   13.9170   44.3413    4.6594 C   0  0  0  0  0  0  0  0  0  0  0  0
   13.4303   45.7183    2.5954 C   0  0  0  0  0  0  0  0  0  0  0  0
   12.6263   46.8493    2.4143 C   0  0  0  0  0  0  0  0  0  0  0  0
   12.9957   47.8475    1.5110 C   0  0  0  0  0  0  0  0  0  0  0  0
   14.1781   47.7237    0.7814 C   0  0  0  0  0  0  0  0  0  0  0  0
   14.9754   46.5877    0.9325 C   0  0  0  0  0  0  0  0  0  0  0  0
   14.6026   45.5633    1.8105 C   0  0  0  0  0  0  0  0  0  0  0  0
   14.8878   43.1085    2.0219 C   0  0  0  0  0  0  0  0  0  0  0  0
   15.4886   40.7122    9.5951 N   0  0  0  0  0  0  0  0  0  0  0  0
   15.9941   42.4903    7.9780 N   0  0  0  0  0  0  0  0  0  0  0  0
   15.4907   43.1511    6.9370 N   0  0  0  0  0  0  0  0  0  0  0  0
   13.4695   43.3090    5.5432 N   0  0  0  0  0  0  0  0  0  0  0  0
   13.0500   44.7816    3.6097 N   0  0  0  0  0  0  0  0  0  0  0  0
   15.0516   44.8712    4.8109 O   0  0  0  0  0  0  0  0  0  0  0  0
   15.4076   44.4189    1.8460 O   0  0  0  0  0  0  0  0  0  0  0  0
   13.6795   41.5517    7.6460 S   0  0  0  0  0  0  0  0  0  0  0  0
  1 19  1  0
  1 26  1  0
  2 19  1  0
  2  3  1  0
  5  6  2  0
  7  8  2  0
  9  4  2  0
 10 22  1  0
 10 26  1  0
 11 23  1  0
 13 14  2  0
 15 16  2  0
 17 25  1  0
 17 12  2  0
 18 25  1  0
 19  4  1  0
 20 21  1  0
 22 11  1  0
 23 12  1  0
  1 20  2  0
  4  5  1  0
  6  7  1  0
  8  9  1  0
 10 21  2  0
 11 24  2  0
 12 13  1  0
 14 15  1  0
 16 17  1  0
M  END
>  <rmsd>  (27) 
0.208220318

$$$$
MolPort-005-165-194 11753843 CHEMBL1715566 CSSS00159587229 MCULE-6731775529 PubChem-24791274 ZINC000011753843
     RDKit          3D

 30 33  0  0  0  0  0  0  0  0999 V2000
   13.0702   47.3167    0.8680 F   0  0  0  0  0  0  0  0  0  0  0  0
   12.6502   46.3223    1.6860 C   0  0  0  0  0  0  0  0  0  0  0  0
   11.3888   45.7504    1.4997 C   0  0  0  0  0  0  0  0  0  0  0  0
   10.9551   44.7254    2.3446 C   0  0  0  0  0  0  0  0  0  0  0  0
   11.7830   44.2722    3.3759 C   0  0  0  0  0  0  0  0  0  0  0  0
   13.0503   44.8409    3.5705 C   0  0  0  0  0  0  0  0  0  0  0  0
   13.4775   45.8700    2.7179 C   0  0  0  0  0  0  0  0  0  0  0  0
   13.9221   44.3623    4.6578 C   0  0  0  0  0  0  0  0  0  0  0  0
   14.2121   42.7498    6.6134 C   0  0  0  0  0  0  0  0  0  0  0  0
   15.4848   43.1091    7.0156 C   0  0  0  0  0  0  0  0  0  0  0  0
   15.7265   42.2745    8.1016 C   0  0  0  0  0  0  0  0  0  0  0  0
   12.4274   41.1487    7.3046 C   0  0  0  0  0  0  0  0  0  0  0  0
   12.5452   39.6289    7.1105 C   0  0  0  0  0  0  0  0  0  0  0  0
   12.7192   38.8419    8.4226 C   0  0  0  0  0  0  0  0  0  0  0  0
   12.6245   38.8279   10.7636 C   0  0  0  0  0  0  0  0  0  0  0  0
   13.4090   39.4296   11.9235 C   0  0  0  0  0  0  0  0  0  0  0  0
   14.8962   39.5286   11.5997 C   0  0  0  0  0  0  0  0  0  0  0  0
   15.5394   38.1821   11.5474 C   0  0  0  0  0  0  0  0  0  0  0  0
   15.6524   37.4019   12.7054 C   0  0  0  0  0  0  0  0  0  0  0  0
   16.2681   36.1476   12.6476 C   0  0  0  0  0  0  0  0  0  0  0  0
   16.7735   35.6724   11.4336 C   0  0  0  0  0  0  0  0  0  0  0  0
   16.6654   36.4519   10.2777 C   0  0  0  0  0  0  0  0  0  0  0  0
   16.0508   37.7068   10.3349 C   0  0  0  0  0  0  0  0  0  0  0  0
   11.4512   40.4739    9.5696 C   0  0  0  0  0  0  0  0  0  0  0  0
   11.5355   41.5533    8.4887 C   0  0  0  0  0  0  0  0  0  0  0  0
   15.0625   44.8767    4.8196 O   0  0  0  0  0  0  0  0  0  0  0  0
   13.4690   43.3131    5.5243 N   0  0  0  0  0  0  0  0  0  0  0  0
   14.6553   41.4813    8.3139 N   0  0  0  0  0  0  0  0  0  0  0  0
   13.7435   41.7745    7.4040 N   0  0  0  0  0  0  0  0  0  0  0  0
   12.6883   39.7030    9.6046 N   0  0  0  0  0  0  0  0  0  0  0  0
  2  1  1  0
  3  4  2  0
  5  6  2  0
  6  8  1  0
  7  2  2  0
  8 27  1  0
 10 11  1  0
 12 29  1  0
 12 13  1  0
 13 14  1  0
 14 30  1  0
 15 30  1  0
 15 16  1  0
 16 17  1  0
 17 18  1  0
 19 20  2  0
 21 22  2  0
 23 18  2  0
 24 30  1  0
 24 25  1  0
 25 12  1  0
 27  9  1  0
 29 28  1  0
 29  9  1  0
  2  3  1  0
  4  5  1  0
  6  7  1  0
  8 26  2  0
  9 10  2  0
 11 28  2  0
 18 19  1  0
 20 21  1  0
 22 23  1  0
M  END
>  <rmsd>  (28) 
0.204183966

$$$$
MolPort-007-723-580 ChemDiv-E157-6420 MCULE-8433436354 PubChem-22518105 ZINC000006818372 ZINC06818372
     RDKit          3D

 22 23  0  0  0  0  0  0  0  0999 V2000
   13.5872   45.8892    2.7067 C   0  0  0  0  0  0  0  0  0  0  0  0
   12.9900   44.7869    3.5668 C   0  0  0  0  0  0  0  0  0  0  0  0
   13.9119   44.3446    4.6614 C   0  0  0  0  0  0  0  0  0  0  0  0
   14.2376   42.7829    6.6365 C   0  0  0  0  0  0  0  0  0  0  0  0
   15.1362   41.6298    8.5242 C   0  0  0  0  0  0  0  0  0  0  0  0
   13.5228   39.2711   11.2337 C   0  0  0  0  0  0  0  0  0  0  0  0
   13.5631   41.7661   11.5594 C   0  0  0  0  0  0  0  0  0  0  0  0
   14.1521   43.0217   11.3347 C   0  0  0  0  0  0  0  0  0  0  0  0
   13.6063   44.1772   11.9000 C   0  0  0  0  0  0  0  0  0  0  0  0
   12.4637   44.0910   12.6985 C   0  0  0  0  0  0  0  0  0  0  0  0
   11.8829   45.3195   13.2996 C   0  0  0  0  0  0  0  0  0  0  0  0
   11.8676   42.8498   12.9318 C   0  0  0  0  0  0  0  0  0  0  0  0
   12.4141   41.6945   12.3657 C   0  0  0  0  0  0  0  0  0  0  0  0
   15.0504   44.8709    4.8013 O   0  0  0  0  0  0  0  0  0  0  0  0
   16.6704   41.2186   10.6687 O   0  0  0  0  0  0  0  0  0  0  0  0
   15.8638   39.2547    9.4530 O   0  0  0  0  0  0  0  0  0  0  0  0
   13.4735   43.3102    5.5477 N   0  0  0  0  0  0  0  0  0  0  0  0
   15.4804   43.1991    6.9670 N   0  0  0  0  0  0  0  0  0  0  0  0
   15.9803   42.5560    8.0204 N   0  0  0  0  0  0  0  0  0  0  0  0
   14.1222   40.5730   10.9734 N   0  0  0  0  0  0  0  0  0  0  0  0
   13.6900   41.5675    7.6630 S   0  0  0  0  0  0  0  0  0  0  0  0
   15.5040   40.6375    9.9201 S   0  0  0  0  0  0  0  0  0  0  0  0
  1  2  1  0
  2  3  1  0
  3 17  1  0
  4 21  1  0
  5 21  1  0
  6 20  1  0
  8  9  2  0
 10 12  2  0
 11 10  1  0
 13  7  2  0
 17  4  1  0
 18 19  1  0
 20  7  1  0
 22  5  1  0
 22 20  1  0
  3 14  2  0
  4 18  2  0
  5 19  2  0
  7  8  1  0
  9 10  1  0
 12 13  1  0
 22 15  2  0
 22 16  2  0
M  END
>  <rmsd>  (29) 
0.200207293

$$$$
MolPort-007-723-581 6818374 ChemDiv-E157-6421 MCULE-1653935554 PubChem-22518106 ZINC000006818374 ZINC06818374
     RDKit          3D

 23 24  0  0  0  0  0  0  0  0999 V2000
   13.4058   47.2485    3.4672 C   0  0  0  0  0  0  0  0  0  0  0  0
   13.5491   45.9316    2.7278 C   0  0  0  0  0  0  0  0  0  0  0  0
   12.9890   44.7896    3.5663 C   0  0  0  0  0  0  0  0  0  0  0  0
   13.9115   44.3469    4.6631 C   0  0  0  0  0  0  0  0  0  0  0  0
   14.2377   42.7838    6.6369 C   0  0  0  0  0  0  0  0  0  0  0  0
   15.1357   41.6314    8.5251 C   0  0  0  0  0  0  0  0  0  0  0  0
   13.5232   39.2689   11.2322 C   0  0  0  0  0  0  0  0  0  0  0  0
   13.5578   41.7640   11.5575 C   0  0  0  0  0  0  0  0  0  0  0  0
   12.4076   41.6904   12.3618 C   0  0  0  0  0  0  0  0  0  0  0  0
   11.8579   42.8447   12.9268 C   0  0  0  0  0  0  0  0  0  0  0  0
   12.4521   44.0870   12.6943 C   0  0  0  0  0  0  0  0  0  0  0  0
   11.8677   45.3144   13.2945 C   0  0  0  0  0  0  0  0  0  0  0  0
   13.5959   44.1753   11.8979 C   0  0  0  0  0  0  0  0  0  0  0  0
   14.1448   43.0207   11.3337 C   0  0  0  0  0  0  0  0  0  0  0  0
   15.0512   44.8706    4.8009 O   0  0  0  0  0  0  0  0  0  0  0  0
   15.8659   39.2571    9.4538 O   0  0  0  0  0  0  0  0  0  0  0  0
   16.6679   41.2218   10.6715 O   0  0  0  0  0  0  0  0  0  0  0  0
   13.4740   43.3106    5.5475 N   0  0  0  0  0  0  0  0  0  0  0  0
   15.4784   43.2035    6.9705 N   0  0  0  0  0  0  0  0  0  0  0  0
   15.9780   42.5608    8.0243 N   0  0  0  0  0  0  0  0  0  0  0  0
   14.1201   40.5720   10.9726 N   0  0  0  0  0  0  0  0  0  0  0  0
   13.6914   41.5658    7.6608 S   0  0  0  0  0  0  0  0  0  0  0  0
   15.5032   40.6391    9.9210 S   0  0  0  0  0  0  0  0  0  0  0  0
  1  2  1  0
  2  3  1  0
  3  4  1  0
  4 18  1  0
  5 22  1  0
  6 22  1  0
  7 21  1  0
  9 10  2  0
 11 13  2  0
 12 11  1  0
 14  8  2  0
 18  5  1  0
 19 20  1  0
 21  8  1  0
 23  6  1  0
 23 21  1  0
  4 15  2  0
  5 19  2  0
  6 20  2  0
  8  9  1  0
 10 11  1  0
 13 14  1  0
 23 16  2  0
 23 17  2  0
M  END
>  <rmsd>  (30) 
0.200395226

$$$$
MolPort-007-723-442 6818294 ChemDiv-E157-5468 MCULE-5967525956 PubChem-22518006 ZINC000006818294 ZINC06818294
     RDKit          3D

 22 23  0  0  0  0  0  0  0  0999 V2000
   11.6213   44.2660    3.6330 C   0  0  0  0  0  0  0  0  0  0  0  0
   13.0226   44.8495    3.5598 C   0  0  0  0  0  0  0  0  0  0  0  0
   13.6318   44.5241    2.2097 C   0  0  0  0  0  0  0  0  0  0  0  0
   13.9115   44.3524    4.6623 C   0  0  0  0  0  0  0  0  0  0  0  0
   14.2420   42.7640    6.6196 C   0  0  0  0  0  0  0  0  0  0  0  0
   15.1481   41.5831    8.4860 C   0  0  0  0  0  0  0  0  0  0  0  0
   13.5262   39.3025   11.2595 C   0  0  0  0  0  0  0  0  0  0  0  0
   13.6810   41.7955   11.5649 C   0  0  0  0  0  0  0  0  0  0  0  0
   12.5481   41.7793   12.3965 C   0  0  0  0  0  0  0  0  0  0  0  0
   12.0685   42.9600   12.9707 C   0  0  0  0  0  0  0  0  0  0  0  0
   12.7158   44.1719   12.7197 C   0  0  0  0  0  0  0  0  0  0  0  0
   13.8429   44.2030   11.8955 C   0  0  0  0  0  0  0  0  0  0  0  0
   14.3220   43.0221   11.3226 C   0  0  0  0  0  0  0  0  0  0  0  0
   15.0504   44.8728    4.8070 O   0  0  0  0  0  0  0  0  0  0  0  0
   16.7346   41.1044   10.5781 O   0  0  0  0  0  0  0  0  0  0  0  0
   15.7983   39.1786    9.3952 O   0  0  0  0  0  0  0  0  0  0  0  0
   13.4722   43.3093    5.5439 N   0  0  0  0  0  0  0  0  0  0  0  0
   15.4968   43.1560    6.9335 N   0  0  0  0  0  0  0  0  0  0  0  0
   16.0010   42.4974    7.9753 N   0  0  0  0  0  0  0  0  0  0  0  0
   14.1708   40.5764   10.9705 N   0  0  0  0  0  0  0  0  0  0  0  0
   13.6887   41.5513    7.6459 S   0  0  0  0  0  0  0  0  0  0  0  0
   15.5178   40.5766    9.8711 S   0  0  0  0  0  0  0  0  0  0  0  0
  1  2  1  0
  2  3  1  0
  2  4  1  0
  4 17  1  0
  5 21  1  0
  6 21  1  0
  7 20  1  0
  9 10  2  0
 11 12  2  0
 13  8  2  0
 17  5  1  0
 18 19  1  0
 20  8  1  0
 22  6  1  0
 22 20  1  0
  4 14  2  0
  5 18  2  0
  6 19  2  0
  8  9  1  0
 10 11  1  0
 12 13  1  0
 22 15  2  0
 22 16  2  0
M  END
>  <rmsd>  (31) 
0.194089219

$$$$
MolPort-007-723-449 6818300 CHEMBL1322076 ChemDiv-E157-5479 MCULE-2754668881 PubChem-16017379 ZINC000006818300 ZINC06818300
     RDKit          3D

 27 29  0  0  0  0  0  0  0  0999 V2000
   13.5261   39.3083   11.2666 C   0  0  0  0  0  0  0  0  0  0  0  0
   13.7436   41.7962   11.5762 C   0  0  0  0  0  0  0  0  0  0  0  0
   14.3948   43.0119   11.3082 C   0  0  0  0  0  0  0  0  0  0  0  0
   13.9560   44.2012   11.8965 C   0  0  0  0  0  0  0  0  0  0  0  0
   12.8594   44.1892   12.7613 C   0  0  0  0  0  0  0  0  0  0  0  0
   12.2021   42.9883   13.0377 C   0  0  0  0  0  0  0  0  0  0  0  0
   12.6418   41.7993   12.4491 C   0  0  0  0  0  0  0  0  0  0  0  0
   15.1507   41.5588    8.4697 C   0  0  0  0  0  0  0  0  0  0  0  0
   14.2436   42.7529    6.6123 C   0  0  0  0  0  0  0  0  0  0  0  0
   13.9060   44.3684    4.6849 C   0  0  0  0  0  0  0  0  0  0  0  0
   12.9898   44.8786    3.6254 C   0  0  0  0  0  0  0  0  0  0  0  0
   11.6977   46.6045    4.8635 C   0  0  0  0  0  0  0  0  0  0  0  0
   10.4812   46.9732    5.4483 C   0  0  0  0  0  0  0  0  0  0  0  0
   10.3597   48.1967    6.1139 C   0  0  0  0  0  0  0  0  0  0  0  0
   11.4559   49.0598    6.1970 C   0  0  0  0  0  0  0  0  0  0  0  0
   12.6739   48.7003    5.6136 C   0  0  0  0  0  0  0  0  0  0  0  0
   12.7956   47.4769    4.9483 C   0  0  0  0  0  0  0  0  0  0  0  0
   14.1930   40.5684   10.9679 N   0  0  0  0  0  0  0  0  0  0  0  0
   15.9902   42.5001    7.9863 N   0  0  0  0  0  0  0  0  0  0  0  0
   15.4853   43.1667    6.9502 N   0  0  0  0  0  0  0  0  0  0  0  0
   13.4719   43.3090    5.5439 N   0  0  0  0  0  0  0  0  0  0  0  0
   15.5210   40.5408    9.8460 S   0  0  0  0  0  0  0  0  0  0  0  0
   13.7018   41.5131    7.6121 S   0  0  0  0  0  0  0  0  0  0  0  0
   15.7623   39.1381    9.3626 O   0  0  0  0  0  0  0  0  0  0  0  0
   16.7613   41.0388   10.5335 O   0  0  0  0  0  0  0  0  0  0  0  0
   15.0525   44.8751    4.8069 O   0  0  0  0  0  0  0  0  0  0  0  0
   11.7859   45.3731    4.2045 O   0  0  0  0  0  0  0  0  0  0  0  0
  1 18  1  0
  3  4  2  0
  5  6  2  0
  7  2  2  0
  8 23  1  0
  9 21  1  0
  9 23  1  0
 11 10  1  0
 11 27  1  0
 12 27  1  0
 13 14  2  0
 15 16  2  0
 17 12  2  0
 18  2  1  0
 19 20  1  0
 21 10  1  0
 22 18  1  0
 22  8  1  0
  2  3  1  0
  4  5  1  0
  6  7  1  0
  8 19  2  0
  9 20  2  0
 10 26  2  0
 12 13  1  0
 14 15  1  0
 16 17  1  0
 22 24  2  0
 22 25  2  0
M  END
>  <rmsd>  (32) 
0.192121625

$$$$
MolPort-002-631-803 2596191 PubChem-2006365 ZINC000002596191 ZINC02596191
     RDKit          3D

 28 31  0  0  0  0  0  0  0  0999 V2000
   12.8217   39.0250   11.4853 C   0  0  0  0  0  0  0  0  0  0  0  0
   14.3138   39.2219   11.2941 C   0  0  0  0  0  0  0  0  0  0  0  0
   14.5984   39.8243    9.9302 C   0  0  0  0  0  0  0  0  0  0  0  0
   14.2513   41.3047    9.9209 C   0  0  0  0  0  0  0  0  0  0  0  0
   14.2053   42.8080    6.6791 C   0  0  0  0  0  0  0  0  0  0  0  0
   14.0039   44.2176    4.5597 C   0  0  0  0  0  0  0  0  0  0  0  0
   13.2747   44.4142    3.2947 C   0  0  0  0  0  0  0  0  0  0  0  0
   12.0935   43.7021    3.0397 C   0  0  0  0  0  0  0  0  0  0  0  0
   11.4019   43.8863    1.8387 C   0  0  0  0  0  0  0  0  0  0  0  0
   11.8868   44.7839    0.8837 C   0  0  0  0  0  0  0  0  0  0  0  0
   13.0633   45.4971    1.1291 C   0  0  0  0  0  0  0  0  0  0  0  0
   13.7548   45.3128    2.3300 C   0  0  0  0  0  0  0  0  0  0  0  0
   15.5727   42.6164    6.8011 C   0  0  0  0  0  0  0  0  0  0  0  0
   16.6608   42.8237    5.9593 C   0  0  0  0  0  0  0  0  0  0  0  0
   17.9243   42.4476    6.4468 C   0  0  0  0  0  0  0  0  0  0  0  0
   19.0656   42.6375    5.6652 C   0  0  0  0  0  0  0  0  0  0  0  0
   20.3238   42.2622    6.1485 C   0  0  0  0  0  0  0  0  0  0  0  0
   22.7605   42.1179    5.7473 C   0  0  0  0  0  0  0  0  0  0  0  0
   20.4349   41.6899    7.4278 C   0  0  0  0  0  0  0  0  0  0  0  0
   19.3010   41.4920    8.2210 C   0  0  0  0  0  0  0  0  0  0  0  0
   18.0427   41.8652    7.7460 C   0  0  0  0  0  0  0  0  0  0  0  0
   15.7249   42.0426    8.0294 C   0  0  0  0  0  0  0  0  0  0  0  0
   14.5255   41.8784    8.6120 N   0  0  0  0  0  0  0  0  0  0  0  0
   13.5877   42.3383    7.7912 N   0  0  0  0  0  0  0  0  0  0  0  0
   13.4885   43.3157    5.5471 N   0  0  0  0  0  0  0  0  0  0  0  0
   16.9328   41.6638    8.5177 N   0  0  0  0  0  0  0  0  0  0  0  0
   15.0525   44.8795    4.7880 O   0  0  0  0  0  0  0  0  0  0  0  0
   21.4449   42.4678    5.3397 O   0  0  0  0  0  0  0  0  0  0  0  0
  1  2  1  0
  2  3  1  0
  3  4  1  0
  4 23  1  0
  5 25  1  0
  5 13  1  0
  6  7  1  0
  8  9  2  0
 10 11  2  0
 12  7  2  0
 14 15  2  0
 16 17  2  0
 17 28  1  0
 18 28  1  0
 19 20  2  0
 21 26  2  0
 21 15  1  0
 22 23  1  0
 22 13  2  0
 23 24  1  0
 25  6  1  0
  5 24  2  0
  6 27  2  0
  7  8  1  0
  9 10  1  0
 11 12  1  0
 13 14  1  0
 15 16  1  0
 17 19  1  0
 20 21  1  0
 22 26  1  0
M  END
>  <rmsd>  (33) 
0.19753395

$$$$
MolPort-007-723-506 6818331 ChemDiv-E157-6073 MCULE-1441973407 PubChem-22518052 ZINC000006818331 ZINC06818331
     RDKit          3D

 26 28  0  0  0  0  0  0  0  0999 V2000
   13.5320   39.2807   11.2654 C   0  0  0  0  0  0  0  0  0  0  0  0
   13.6000   41.7816   11.5369 C   0  0  0  0  0  0  0  0  0  0  0  0
   14.1951   43.0264   11.2730 C   0  0  0  0  0  0  0  0  0  0  0  0
   13.6696   44.1992   11.8210 C   0  0  0  0  0  0  0  0  0  0  0  0
   14.3108   45.5071   11.5279 C   0  0  0  0  0  0  0  0  0  0  0  0
   12.5417   44.1417   12.6425 C   0  0  0  0  0  0  0  0  0  0  0  0
   11.9397   42.9112   12.9155 C   0  0  0  0  0  0  0  0  0  0  0  0
   12.4657   41.7386   12.3657 C   0  0  0  0  0  0  0  0  0  0  0  0
   15.1382   41.6001    8.4995 C   0  0  0  0  0  0  0  0  0  0  0  0
   14.2378   42.7715    6.6244 C   0  0  0  0  0  0  0  0  0  0  0  0
   13.9095   44.3547    4.6635 C   0  0  0  0  0  0  0  0  0  0  0  0
   13.0205   44.8266    3.5871 C   0  0  0  0  0  0  0  0  0  0  0  0
   11.7483   44.2603    3.4196 C   0  0  0  0  0  0  0  0  0  0  0  0
   10.9040   44.7076    2.3989 C   0  0  0  0  0  0  0  0  0  0  0  0
   11.3258   45.7245    1.5383 C   0  0  0  0  0  0  0  0  0  0  0  0
   12.5917   46.2944    1.6980 C   0  0  0  0  0  0  0  0  0  0  0  0
   13.4361   45.8472    2.7186 C   0  0  0  0  0  0  0  0  0  0  0  0
   14.1374   40.5712   10.9665 N   0  0  0  0  0  0  0  0  0  0  0  0
   15.9825   42.5300    8.0029 N   0  0  0  0  0  0  0  0  0  0  0  0
   15.4817   43.1831    6.9562 N   0  0  0  0  0  0  0  0  0  0  0  0
   13.4716   43.3109    5.5433 N   0  0  0  0  0  0  0  0  0  0  0  0
   15.5036   40.6008    9.8911 S   0  0  0  0  0  0  0  0  0  0  0  0
   13.6900   41.5481    7.6411 S   0  0  0  0  0  0  0  0  0  0  0  0
   15.8227   39.2094    9.4205 O   0  0  0  0  0  0  0  0  0  0  0  0
   16.6952   41.1549   10.6205 O   0  0  0  0  0  0  0  0  0  0  0  0
   15.0514   44.8715    4.8057 O   0  0  0  0  0  0  0  0  0  0  0  0
  1 18  1  0
  3  4  2  0
  5  4  1  0
  6  7  2  0
  8  2  2  0
  9 23  1  0
 10 21  1  0
 10 23  1  0
 11 12  1  0
 13 14  2  0
 15 16  2  0
 17 12  2  0
 18  2  1  0
 19 20  1  0
 21 11  1  0
 22 18  1  0
 22  9  1  0
  2  3  1  0
  4  6  1  0
  7  8  1  0
  9 19  2  0
 10 20  2  0
 11 26  2  0
 12 13  1  0
 14 15  1  0
 16 17  1  0
 22 24  2  0
 22 25  2  0
M  END
>  <rmsd>  (34) 
0.195952058

$$$$
MolPort-019-787-623 628436 CSSS00121608801 LN01241672 MCULE-6214710365 PubChem-982687 ZINC000000628436 ZINC00628436
     RDKit          3D

 25 27  0  0  0  0  0  0  0  0999 V2000
   11.7509   36.9252   13.6438 C   0  0  0  0  0  0  0  0  0  0  0  0
   12.4941   38.6692   12.0548 C   0  0  0  0  0  0  0  0  0  0  0  0
   12.1660   39.7940   11.2931 C   0  0  0  0  0  0  0  0  0  0  0  0
   13.1333   40.4138   10.4974 C   0  0  0  0  0  0  0  0  0  0  0  0
   14.4431   39.9143   10.4443 C   0  0  0  0  0  0  0  0  0  0  0  0
   14.7713   38.7921   11.2197 C   0  0  0  0  0  0  0  0  0  0  0  0
   13.8056   38.1711   12.0162 C   0  0  0  0  0  0  0  0  0  0  0  0
   15.4900   40.5734    9.6287 C   0  0  0  0  0  0  0  0  0  0  0  0
   15.1741   41.5086    8.5211 C   0  0  0  0  0  0  0  0  0  0  0  0
   16.0298   42.4727    7.9715 C   0  0  0  0  0  0  0  0  0  0  0  0
   17.3983   42.7634    8.4840 C   0  0  0  0  0  0  0  0  0  0  0  0
   14.2669   42.7628    6.6151 C   0  0  0  0  0  0  0  0  0  0  0  0
   13.9009   44.3596    4.6719 C   0  0  0  0  0  0  0  0  0  0  0  0
   12.9931   44.8355    3.6133 C   0  0  0  0  0  0  0  0  0  0  0  0
   11.7196   44.2670    3.4632 C   0  0  0  0  0  0  0  0  0  0  0  0
   10.8577   44.7180    2.4592 C   0  0  0  0  0  0  0  0  0  0  0  0
   11.2629   45.7410    1.5976 C   0  0  0  0  0  0  0  0  0  0  0  0
   12.5298   46.3131    1.7399 C   0  0  0  0  0  0  0  0  0  0  0  0
   13.3918   45.8622    2.7439 C   0  0  0  0  0  0  0  0  0  0  0  0
   11.5044   38.0703   12.8390 O   0  0  0  0  0  0  0  0  0  0  0  0
   16.6995   40.3216    9.8821 O   0  0  0  0  0  0  0  0  0  0  0  0
   15.0440   44.8780    4.7980 O   0  0  0  0  0  0  0  0  0  0  0  0
   15.5183   43.1679    6.9205 N   0  0  0  0  0  0  0  0  0  0  0  0
   13.4798   43.3098    5.5530 N   0  0  0  0  0  0  0  0  0  0  0  0
   13.7418   41.5327    7.6260 S   0  0  0  0  0  0  0  0  0  0  0  0
  1 20  1  0
  2 20  1  0
  3  4  2  0
  5  6  2  0
  5  8  1  0
  7  2  2  0
  8  9  1  0
  9 25  1  0
 10 23  1  0
 11 10  1  0
 12 24  1  0
 12 25  1  0
 13 14  1  0
 15 16  2  0
 17 18  2  0
 19 14  2  0
 24 13  1  0
  2  3  1  0
  4  5  1  0
  6  7  1  0
  8 21  2  0
  9 10  2  0
 12 23  2  0
 13 22  2  0
 14 15  1  0
 16 17  1  0
 18 19  1  0
M  END
>  <rmsd>  (35) 
0.187604696

$$$$
MolPort-004-990-244 CSSS00159792933 MCULE-3452684691 PubChem-45164423
     RDKit          3D

 30 32  0  0  0  0  0  0  0  0999 V2000
   14.2084   41.4504    7.1185 C   0  0  0  0  0  0  0  0  0  0  0  0
   13.3755   40.3776    6.5330 C   0  0  0  0  0  0  0  0  0  0  0  0
   11.7325   39.6645    4.8428 C   0  0  0  0  0  0  0  0  0  0  0  0
   15.1945   40.1275    9.0420 C   0  0  0  0  0  0  0  0  0  0  0  0
   14.3324   40.2269   10.2909 C   0  0  2  0  0  0  0  0  0  0  0  0
   14.6239   39.0607   11.2040 C   0  0  0  0  0  0  0  0  0  0  0  0
   13.2769   38.6730   11.7343 C   0  0  0  0  0  0  0  0  0  0  0  0
   12.3294   39.6428   11.0683 C   0  0  0  0  0  0  0  0  0  0  0  0
   15.5655   42.5187    8.4201 C   0  0  0  0  0  0  0  0  0  0  0  0
   15.1403   43.4349    7.4980 C   0  0  0  0  0  0  0  0  0  0  0  0
   15.5204   44.7693    7.5889 C   0  0  0  0  0  0  0  0  0  0  0  0
   16.3847   45.1344    8.6408 C   0  0  0  0  0  0  0  0  0  0  0  0
   16.8072   44.1512    9.5627 C   0  0  0  0  0  0  0  0  0  0  0  0
   16.4968   47.6132    7.9393 C   0  0  0  0  0  0  0  0  0  0  0  0
   16.9877   47.3841    6.5215 C   0  0  0  0  0  0  0  0  0  0  0  0
   15.0023   47.8788    7.9537 C   0  0  0  0  0  0  0  0  0  0  0  0
   14.2833   42.7630    6.6451 C   0  0  0  0  0  0  0  0  0  0  0  0
   13.8533   44.4542    4.7837 C   0  0  0  0  0  0  0  0  0  0  0  0
   12.8281   45.1057    3.9176 C   0  0  1  0  0  0  0  0  0  0  0  0
   12.3343   44.1257    2.8664 C   0  0  0  0  0  0  0  0  0  0  0  0
   11.6712   45.6132    4.7641 C   0  0  0  0  0  0  0  0  0  0  0  0
   10.8479   46.6230    3.9869 C   0  0  0  0  0  0  0  0  0  0  0  0
   12.5501   40.6581    5.4421 O   0  0  0  0  0  0  0  0  0  0  0  0
   13.4135   39.2114    7.0119 O   0  0  0  0  0  0  0  0  0  0  0  0
   12.9719   40.1927    9.9502 O   0  0  0  0  0  0  0  0  0  0  0  0
   15.0351   44.8882    4.7659 O   0  0  0  0  0  0  0  0  0  0  0  0
   15.0172   41.3086    8.2041 N   0  0  0  0  0  0  0  0  0  0  0  0
   16.3871   42.8561    9.4464 N   0  0  0  0  0  0  0  0  0  0  0  0
   16.8394   46.4850    8.8034 N   0  0  0  0  0  0  0  0  0  0  0  0
   13.5043   43.3105    5.5732 N   0  0  0  0  0  0  0  0  0  0  0  0
  1  2  1  0
  1 27  1  0
  2 23  1  0
  3 23  1  0
  4 27  1  0
  5  4  1  6
  5  6  1  0
  5 25  1  0
  6  7  1  0
  7  8  1  0
  8 25  1  0
  9 28  2  0
 10 11  2  0
 10 17  1  0
 12 13  2  0
 12 29  1  0
 14 29  1  0
 14 15  1  0
 14 16  1  0
 17 30  1  0
 19 18  1  0
 19 20  1  6
 19 21  1  0
 21 22  1  0
 27  9  1  0
 30 18  1  0
  2 24  2  0
  9 10  1  0
 11 12  1  0
 13 28  1  0
 17  1  2  0
 18 26  2  0
M  END
>  <rmsd>  (36) 
0.16681996

$$$$
MolPort-002-626-017 2595778 LN00639015 PubChem-2047979 ZINC000002595778 ZINC02595778
     RDKit          3D

 22 24  0  0  0  0  0  0  0  0999 V2000
   12.7737   39.6648   11.7347 C   0  0  0  0  0  0  0  0  0  0  0  0
   13.7748   38.9491   10.8473 C   0  0  0  0  0  0  0  0  0  0  0  0
   13.9144   39.6688    9.5181 C   0  0  0  0  0  0  0  0  0  0  0  0
   14.7409   40.9332    9.6838 C   0  0  0  0  0  0  0  0  0  0  0  0
   14.3488   42.7016    6.6007 C   0  0  0  0  0  0  0  0  0  0  0  0
   13.9362   44.2702    4.6307 C   0  0  0  0  0  0  0  0  0  0  0  0
   13.0468   44.5849    3.4830 C   0  0  0  0  0  0  0  0  0  0  0  0
   15.7203   42.5007    6.5628 C   0  0  0  0  0  0  0  0  0  0  0  0
   16.7154   42.7714    5.6300 C   0  0  0  0  0  0  0  0  0  0  0  0
   18.0193   42.3528    5.9468 C   0  0  0  0  0  0  0  0  0  0  0  0
   19.0685   42.6052    5.0612 C   0  0  0  0  0  0  0  0  0  0  0  0
   20.3639   42.1869    5.3746 C   0  0  0  0  0  0  0  0  0  0  0  0
   20.6175   41.5134    6.5731 C   0  0  0  0  0  0  0  0  0  0  0  0
   19.5810   41.2485    7.4741 C   0  0  0  0  0  0  0  0  0  0  0  0
   19.8936   40.5255    8.7398 C   0  0  0  0  0  0  0  0  0  0  0  0
   18.2721   41.6634    7.1749 C   0  0  0  0  0  0  0  0  0  0  0  0
   15.9955   41.8295    7.7173 C   0  0  0  0  0  0  0  0  0  0  0  0
   14.8644   41.6193    8.4074 N   0  0  0  0  0  0  0  0  0  0  0  0
   13.8477   42.1426    7.7300 N   0  0  0  0  0  0  0  0  0  0  0  0
   13.5205   43.2994    5.5956 N   0  0  0  0  0  0  0  0  0  0  0  0
   17.2425   41.4053    8.0402 N   0  0  0  0  0  0  0  0  0  0  0  0
   15.0161   44.9022    4.7678 O   0  0  0  0  0  0  0  0  0  0  0  0
  1  2  1  0
  2  3  1  0
  3  4  1  0
  4 18  1  0
  5 20  1  0
  5  8  1  0
  7  6  1  0
  9 10  2  0
 11 12  2  0
 13 14  2  0
 15 14  1  0
 16 21  2  0
 16 10  1  0
 17 18  1  0
 17  8  2  0
 18 19  1  0
 20  6  1  0
  5 19  2  0
  6 22  2  0
  8  9  1  0
 10 11  1  0
 12 13  1  0
 14 16  1  0
 17 21  1  0
M  END
>  <rmsd>  (37) 
0.162369996

$$$$
MolPort-007-711-013 ChemDiv-D485-0047 MCULE-7198466673 PubChem-46269987
     RDKit          3D

 32 36  0  0  0  0  0  0  0  0999 V2000
   13.3434   39.2161   11.2121 C   0  0  0  0  0  0  0  0  0  0  0  0
   12.1700   39.8119    9.1128 C   0  0  0  0  0  0  0  0  0  0  0  0
   11.8424   40.7914    8.1496 C   0  0  0  0  0  0  0  0  0  0  0  0
   11.0453   40.4446    7.0525 C   0  0  0  0  0  0  0  0  0  0  0  0
   10.5643   39.1418    6.9085 C   0  0  0  0  0  0  0  0  0  0  0  0
   10.8809   38.1720    7.8606 C   0  0  0  0  0  0  0  0  0  0  0  0
   11.6798   38.5044    8.9564 C   0  0  0  0  0  0  0  0  0  0  0  0
   12.3468   42.2117    8.2329 C   0  0  2  0  0  0  0  0  0  0  0  0
   12.5561   44.2259    9.5166 C   0  0  0  0  0  0  0  0  0  0  0  0
   12.1327   44.9729   10.7928 C   0  0  0  0  0  0  0  0  0  0  0  0
   10.3303   43.6368   11.0820 C   0  0  0  0  0  0  0  0  0  0  0  0
   10.6581   42.8238    9.8182 C   0  0  0  0  0  0  0  0  0  0  0  0
   13.8001   42.2519    7.8478 C   0  0  0  0  0  0  0  0  0  0  0  0
   14.3030   42.7814    6.6686 C   0  0  0  0  0  0  0  0  0  0  0  0
   13.9635   44.2307    4.5961 C   0  0  0  0  0  0  0  0  0  0  0  0
   13.1443   44.4518    3.4004 C   0  0  0  0  0  0  0  0  0  0  0  0
   13.4394   45.3262    2.3757 C   0  0  0  0  0  0  0  0  0  0  0  0
   12.3910   45.1903    1.4826 C   0  0  0  0  0  0  0  0  0  0  0  0
   11.5323   44.2468    2.0206 C   0  0  0  0  0  0  0  0  0  0  0  0
   15.6668   42.5744    6.7240 C   0  0  0  0  0  0  0  0  0  0  0  0
   16.6924   42.8209    5.8129 C   0  0  0  0  0  0  0  0  0  0  0  0
   17.9973   42.4512    6.1842 C   0  0  0  0  0  0  0  0  0  0  0  0
   18.2426   41.8408    7.4332 C   0  0  0  0  0  0  0  0  0  0  0  0
   17.1852   41.5834    8.3240 C   0  0  0  0  0  0  0  0  0  0  0  0
   15.9032   41.9592    7.9302 C   0  0  0  0  0  0  0  0  0  0  0  0
   12.9728   40.1510   10.2084 O   0  0  0  0  0  0  0  0  0  0  0  0
   11.5042   44.1031   11.7046 O   0  0  0  0  0  0  0  0  0  0  0  0
   15.0248   44.8896    4.7604 O   0  0  0  0  0  0  0  0  0  0  0  0
   12.0171   43.8302    3.1653 O   0  0  0  0  0  0  0  0  0  0  0  0
   14.7836   41.7760    8.5906 O   0  0  0  0  0  0  0  0  0  0  0  0
   12.1042   42.8265    9.5496 N   0  0  0  0  0  0  0  0  0  0  0  0
   13.5156   43.3059    5.5919 N   0  0  0  0  0  0  0  0  0  0  0  0
  1 26  1  0
  2 26  1  0
  3  4  2  0
  5  6  2  0
  7  2  2  0
  8  3  1  0
  8 31  1  1
  8 13  1  0
  9 31  1  0
  9 10  1  0
 10 27  1  0
 11 27  1  0
 11 12  1  0
 12 31  1  0
 13 30  1  0
 14 32  1  0
 14 20  1  0
 15 16  1  0
 16 29  1  0
 17 18  1  0
 19 29  1  0
 21 22  2  0
 23 24  2  0
 25 30  1  0
 25 20  2  0
 32 15  1  0
  2  3  1  0
  4  5  1  0
  6  7  1  0
 13 14  2  0
 15 28  2  0
 16 17  2  0
 18 19  2  0
 20 21  1  0
 22 23  1  0
 24 25  1  0
M  END
>  <rmsd>  (38) 
0.15492186

$$$$
MolPort-006-579-808 ChemDiv-V011-7223 MCULE-1721688843 PubChem-46040772 ZINC37544022
     RDKit          3D

 30 32  0  0  0  0  0  0  0  0999 V2000
   12.1430   31.8326   10.4568 C   0  0  0  0  0  0  0  0  0  0  0  0
   11.6677   34.1428    9.7128 C   0  0  0  0  0  0  0  0  0  0  0  0
   11.9963   33.8526    8.3788 C   0  0  0  0  0  0  0  0  0  0  0  0
   11.9193   34.8486    7.3920 C   0  0  0  0  0  0  0  0  0  0  0  0
   12.6685   33.3074    5.6086 C   0  0  0  0  0  0  0  0  0  0  0  0
   11.5106   36.1369    7.7487 C   0  0  0  0  0  0  0  0  0  0  0  0
   11.1770   36.4318    9.0743 C   0  0  0  0  0  0  0  0  0  0  0  0
   10.7657   37.8160    9.4504 C   0  0  0  0  0  0  0  0  0  0  0  0
   12.4074   38.4853   11.2219 C   0  0  0  0  0  0  0  0  0  0  0  0
   13.2974   39.6616   11.6079 C   0  0  0  0  0  0  0  0  0  0  0  0
   14.4133   39.7892   10.5834 C   0  0  0  0  0  0  0  0  0  0  0  0
   12.6887   39.3251    8.8572 C   0  0  0  0  0  0  0  0  0  0  0  0
   14.4317   41.1273    8.4597 C   0  0  0  0  0  0  0  0  0  0  0  0
   15.7292   41.5912    8.7327 C   0  0  0  0  0  0  0  0  0  0  0  0
   16.2963   42.6131    7.9681 C   0  0  0  0  0  0  0  0  0  0  0  0
   15.5704   43.1868    6.9229 C   0  0  0  0  0  0  0  0  0  0  0  0
   14.2715   42.7443    6.6369 C   0  0  0  0  0  0  0  0  0  0  0  0
   13.8934   44.3582    4.6783 C   0  0  0  0  0  0  0  0  0  0  0  0
   12.9571   44.8297    3.6160 C   0  0  0  0  0  0  0  0  0  0  0  0
   12.6472   43.7063    2.6460 C   0  0  0  0  0  0  0  0  0  0  0  0
   11.6722   45.3493    4.2314 C   0  0  0  0  0  0  0  0  0  0  0  0
   13.7124   41.7212    7.4088 C   0  0  0  0  0  0  0  0  0  0  0  0
   11.2607   35.4364   10.0530 C   0  0  0  0  0  0  0  0  0  0  0  0
   11.7377   33.1701   10.7139 O   0  0  0  0  0  0  0  0  0  0  0  0
   12.2424   34.5864    6.0579 O   0  0  0  0  0  0  0  0  0  0  0  0
   12.3362   39.2962    7.6460 O   0  0  0  0  0  0  0  0  0  0  0  0
   15.0309   44.8910    4.7687 O   0  0  0  0  0  0  0  0  0  0  0  0
   11.9265   38.6056    9.8444 N   0  0  0  0  0  0  0  0  0  0  0  0
   13.8475   40.0808    9.2665 N   0  0  0  0  0  0  0  0  0  0  0  0
   13.4933   43.3091    5.5732 N   0  0  0  0  0  0  0  0  0  0  0  0
  1 24  1  0
  2 24  1  0
  3  4  2  0
  4 25  1  0
  5 25  1  0
  6  7  2  0
  8  7  1  0
  8 28  1  0
  9 28  1  0
  9 10  1  0
 10 11  1  0
 11 29  1  0
 12 28  1  0
 14 15  2  0
 16 17  2  0
 17 30  1  0
 19 18  1  0
 19 20  1  0
 19 21  1  0
 22 13  2  0
 23  2  2  0
 29 12  1  0
 29 13  1  0
 30 18  1  0
  2  3  1  0
  4  6  1  0
  7 23  1  0
 12 26  2  0
 13 14  1  0
 15 16  1  0
 17 22  1  0
 18 27  2  0
M  END
>  <rmsd>  (39) 
0.249354944

$$$$
MolPort-002-605-953 2394610 CSSS00160675838 LN00665856 MCULE-9368356693 PubChem-1993559 ZINC000002394610 ZINC02394610
     RDKit          3D

 26 29  0  0  0  0  0  0  0  0999 V2000
   14.2891   38.7740   11.6932 C   0  0  0  0  0  0  0  0  0  0  0  0
   13.0420   39.4340   11.1353 C   0  0  0  0  0  0  0  0  0  0  0  0
   13.3323   40.0552    9.7810 C   0  0  0  0  0  0  0  0  0  0  0  0
   14.1217   41.3430    9.9469 C   0  0  0  0  0  0  0  0  0  0  0  0
   14.1593   42.8259    6.6930 C   0  0  0  0  0  0  0  0  0  0  0  0
   14.0229   44.2091    4.5524 C   0  0  0  0  0  0  0  0  0  0  0  0
   13.3326   44.3948    3.2722 C   0  0  0  0  0  0  0  0  0  0  0  0
   12.1758   43.7517    2.8853 C   0  0  0  0  0  0  0  0  0  0  0  0
   11.9073   44.2397    1.6183 C   0  0  0  0  0  0  0  0  0  0  0  0
   12.9139   45.1425    1.3202 C   0  0  0  0  0  0  0  0  0  0  0  0
   15.5231   42.6432    6.8636 C   0  0  0  0  0  0  0  0  0  0  0  0
   16.6377   42.8444    6.0556 C   0  0  0  0  0  0  0  0  0  0  0  0
   17.8852   42.4742    6.5872 C   0  0  0  0  0  0  0  0  0  0  0  0
   19.0515   42.6589    5.8419 C   0  0  0  0  0  0  0  0  0  0  0  0
   20.2888   42.2858    6.3760 C   0  0  0  0  0  0  0  0  0  0  0  0
   21.5281   42.4847    5.5807 C   0  0  0  0  0  0  0  0  0  0  0  0
   20.3646   41.7253    7.6559 C   0  0  0  0  0  0  0  0  0  0  0  0
   19.2051   41.5325    8.4134 C   0  0  0  0  0  0  0  0  0  0  0  0
   17.9618   41.9016    7.8945 C   0  0  0  0  0  0  0  0  0  0  0  0
   15.6363   42.0812    8.1017 C   0  0  0  0  0  0  0  0  0  0  0  0
   14.4204   41.9163    8.6439 N   0  0  0  0  0  0  0  0  0  0  0  0
   13.5069   42.3617    7.7874 N   0  0  0  0  0  0  0  0  0  0  0  0
   13.4786   43.3175    5.5322 N   0  0  0  0  0  0  0  0  0  0  0  0
   16.8275   41.7049    8.6314 N   0  0  0  0  0  0  0  0  0  0  0  0
   15.0641   44.8746    4.7963 O   0  0  0  0  0  0  0  0  0  0  0  0
   13.7447   45.2068    2.3323 O   0  0  0  0  0  0  0  0  0  0  0  0
  1  2  1  0
  2  3  1  0
  3  4  1  0
  4 21  1  0
  5 23  1  0
  5 11  1  0
  6  7  1  0
  7 26  1  0
  8  9  1  0
 10 26  1  0
 12 13  2  0
 14 15  2  0
 16 15  1  0
 17 18  2  0
 19 24  2  0
 19 13  1  0
 20 21  1  0
 20 11  2  0
 21 22  1  0
 23  6  1  0
  5 22  2  0
  6 25  2  0
  7  8  2  0
  9 10  2  0
 11 12  1  0
 13 14  1  0
 15 17  1  0
 18 19  1  0
 20 24  1  0
M  END
>  <rmsd>  (40) 
0.248601869

$$$$
MolPort-003-025-636 2716621 CSSS03437093488 ChemDiv-G837-0052 LN01396098 MCULE-9982983503 PubChem-2152296 ZINC000002716621
     RDKit          3D

 27 29  0  0  0  0  0  0  0  0999 V2000
   13.0260   39.4855   11.8210 C   0  0  0  0  0  0  0  0  0  0  0  0
   13.2983   38.8016   10.4939 C   0  0  0  0  0  0  0  0  0  0  0  0
   14.7434   40.4931    9.3848 C   0  0  0  0  0  0  0  0  0  0  0  0
   14.8883   41.4727    8.3976 C   0  0  0  0  0  0  0  0  0  0  0  0
   14.3576   42.7820    6.6641 C   0  0  0  0  0  0  0  0  0  0  0  0
   13.8748   44.3391    4.6876 C   0  0  0  0  0  0  0  0  0  0  0  0
   12.8983   44.7597    3.6673 C   0  0  0  0  0  0  0  0  0  0  0  0
   13.2206   45.7701    2.7493 C   0  0  0  0  0  0  0  0  0  0  0  0
   12.2937   46.1682    1.7819 C   0  0  0  0  0  0  0  0  0  0  0  0
   11.0352   45.5606    1.7243 C   0  0  0  0  0  0  0  0  0  0  0  0
   10.7088   44.5512    2.6352 C   0  0  0  0  0  0  0  0  0  0  0  0
   11.6356   44.1531    3.6026 C   0  0  0  0  0  0  0  0  0  0  0  0
   10.8848   44.5299   -1.3194 C   0  0  0  0  0  0  0  0  0  0  0  0
    8.6734   45.2055   -1.6204 C   0  0  0  0  0  0  0  0  0  0  0  0
   16.0690   42.1930    8.2904 C   0  0  0  0  0  0  0  0  0  0  0  0
   17.1494   41.9816    9.1416 C   0  0  0  0  0  0  0  0  0  0  0  0
   17.0193   41.0006   10.1359 C   0  0  0  0  0  0  0  0  0  0  0  0
   15.8276   40.2613   10.2575 C   0  0  0  0  0  0  0  0  0  0  0  0
   13.5478   39.7699    9.4805 O   0  0  0  0  0  0  0  0  0  0  0  0
   15.0066   44.8926    4.7347 O   0  0  0  0  0  0  0  0  0  0  0  0
    8.5682   46.3798    1.1827 O   0  0  0  0  0  0  0  0  0  0  0  0
   10.3686   47.2727   -0.2120 O   0  0  0  0  0  0  0  0  0  0  0  0
   13.9302   41.7984    7.4916 N   0  0  0  0  0  0  0  0  0  0  0  0
   13.5285   43.3036    5.6184 N   0  0  0  0  0  0  0  0  0  0  0  0
    9.6285   44.7518   -0.6240 N   0  0  0  0  0  0  0  0  0  0  0  0
    9.8688   46.0477    0.5056 S   0  0  0  0  0  0  0  0  0  0  0  0
   15.9391   43.2849    7.0244 S   0  0  0  0  0  0  0  0  0  0  0  0
  1  2  1  0
  2 19  1  0
  3 19  1  0
  4 23  1  0
  5 24  1  0
  5 27  1  0
  6  7  1  0
  8  9  2  0
 10 11  2  0
 12  7  2  0
 13 25  1  0
 14 25  1  0
 15 27  1  0
 15  4  2  0
 16 17  2  0
 18  3  2  0
 24  6  1  0
 26 10  1  0
 26 25  1  0
  3  4  1  0
  5 23  2  0
  6 20  2  0
  7  8  1  0
  9 10  1  0
 11 12  1  0
 15 16  1  0
 17 18  1  0
 26 21  2  0
 26 22  2  0
M  END
>  <rmsd>  (41) 
0.248390168

$$$$
Molport-053-324-447 PubChem-110111601
     RDKit          3D

 25 28  0  0  0  0  0  0  0  0999 V2000
   13.5987   39.3617   11.7447 C   0  0  0  0  0  0  0  0  0  0  0  0
   13.7133   40.5437   10.7788 C   0  0  0  0  0  0  0  0  0  0  0  0
   13.8375   40.1006    9.3167 C   0  0  2  0  0  0  0  0  0  0  0  0
   14.6337   38.7945    9.1962 C   0  0  0  0  0  0  0  0  0  0  0  0
   13.1132   38.1098   11.0190 C   0  0  0  0  0  0  0  0  0  0  0  0
   13.3501   36.8127    9.0780 C   0  0  0  0  0  0  0  0  0  0  0  0
   14.2395   35.7170    8.5972 C   0  0  0  0  0  0  0  0  0  0  0  0
   14.5614   35.5665    7.2524 C   0  0  0  0  0  0  0  0  0  0  0  0
   15.5486   33.8886    8.8276 C   0  0  0  0  0  0  0  0  0  0  0  0
   14.4342   41.1805    8.4726 C   0  0  0  0  0  0  0  0  0  0  0  0
   13.6818   41.7257    7.4298 C   0  0  0  0  0  0  0  0  0  0  0  0
   14.2318   42.7338    6.6339 C   0  0  0  0  0  0  0  0  0  0  0  0
   16.2501   42.6595    7.8912 C   0  0  0  0  0  0  0  0  0  0  0  0
   15.7325   41.6518    8.7062 C   0  0  0  0  0  0  0  0  0  0  0  0
   13.8495   44.3243    4.6685 C   0  0  0  0  0  0  0  0  0  0  0  0
   13.3301   45.7143    2.8252 C   0  0  0  0  0  0  0  0  0  0  0  0
   14.5779   46.3277    2.9198 C   0  0  0  0  0  0  0  0  0  0  0  0
   15.4485   45.9030    3.9215 C   0  0  0  0  0  0  0  0  0  0  0  0
   14.0739   37.6832    9.9919 N   0  0  0  0  0  0  0  0  0  0  0  0
   14.7758   34.8027    9.4517 N   0  0  0  0  0  0  0  0  0  0  0  0
   15.4972   43.1740    6.8824 N   0  0  0  0  0  0  0  0  0  0  0  0
   13.4489   43.2823    5.5667 N   0  0  0  0  0  0  0  0  0  0  0  0
   12.9896   44.7288    3.6964 N   0  0  0  0  0  0  0  0  0  0  0  0
   15.0719   44.9146    4.7739 N   0  0  0  0  0  0  0  0  0  0  0  0
   15.5648   34.2201    7.1830 S   0  0  0  0  0  0  0  0  0  0  0  0
  1  2  1  0
  2  3  1  0
  3  4  1  0
  3 10  1  6
  4 19  1  0
  5 19  1  0
  5  1  1  0
  6 19  1  0
  6  7  1  0
  7 20  1  0
  8 25  1  0
  9 25  1  0
 11 12  2  0
 12 22  1  0
 13 21  2  0
 14 10  2  0
 15 24  2  0
 16 23  2  0
 17 18  2  0
 22 15  1  0
  7  8  2  0
  9 20  2  0
 10 11  1  0
 12 21  1  0
 13 14  1  0
 15 23  1  0
 16 17  1  0
 18 24  1  0
M  END
>  <rmsd>  (42) 
0.24828805

$$$$
MolPort-002-864-401 1385280 CHEMBL1326881 CSSS00025732746 MCULE-5033354806 PubChem-1473622 ZINC000001385280 ZINC01385280
     RDKit          3D

 27 29  0  0  0  0  0  0  0  0999 V2000
    9.7575   44.7399   -0.4605 C   0  0  0  0  0  0  0  0  0  0  0  0
   11.7062   45.0827    1.0239 C   0  0  0  0  0  0  0  0  0  0  0  0
   11.2441   44.1434    1.9595 C   0  0  0  0  0  0  0  0  0  0  0  0
   11.9832   43.8784    3.1156 C   0  0  0  0  0  0  0  0  0  0  0  0
   13.1920   44.5472    3.3528 C   0  0  0  0  0  0  0  0  0  0  0  0
   13.6513   45.4843    2.4162 C   0  0  0  0  0  0  0  0  0  0  0  0
   12.9122   45.7496    1.2599 C   0  0  0  0  0  0  0  0  0  0  0  0
   13.9715   44.2660    4.5709 C   0  0  0  0  0  0  0  0  0  0  0  0
   14.2314   42.7601    6.6156 C   0  0  0  0  0  0  0  0  0  0  0  0
   13.5851   42.5164    7.8247 C   0  0  0  0  0  0  0  0  0  0  0  0
   14.2761   41.9426    8.8924 C   0  0  0  0  0  0  0  0  0  0  0  0
   13.5591   41.7138   10.1647 C   0  0  0  0  0  0  0  0  0  0  0  0
   13.5351   40.3905   10.8264 C   0  0  0  0  0  0  0  0  0  0  0  0
   13.0849   40.2767   12.1504 C   0  0  0  0  0  0  0  0  0  0  0  0
   13.0380   39.0286   12.7785 C   0  0  0  0  0  0  0  0  0  0  0  0
   13.4349   37.8821   12.0854 C   0  0  0  0  0  0  0  0  0  0  0  0
   13.8757   37.9831   10.7635 C   0  0  0  0  0  0  0  0  0  0  0  0
   13.9223   39.2310   10.1358 C   0  0  0  0  0  0  0  0  0  0  0  0
   15.6420   41.6428    8.7136 C   0  0  0  0  0  0  0  0  0  0  0  0
   16.4804   41.1099    9.8269 C   0  0  0  0  0  0  0  0  0  0  0  0
   15.5790   42.3729    6.4927 C   0  0  0  0  0  0  0  0  0  0  0  0
   10.9906   45.3701   -0.1416 O   0  0  0  0  0  0  0  0  0  0  0  0
   15.0476   44.8884    4.7860 O   0  0  0  0  0  0  0  0  0  0  0  0
   12.9170   42.6714   10.6759 O   0  0  0  0  0  0  0  0  0  0  0  0
   16.2217   41.8537    7.5350 O   0  0  0  0  0  0  0  0  0  0  0  0
   16.1864   42.4876    5.3958 O   0  0  0  0  0  0  0  0  0  0  0  0
   13.4785   43.3241    5.5330 N   0  0  0  0  0  0  0  0  0  0  0  0
  1 22  1  0
  2 22  1  0
  3  4  2  0
  5  6  2  0
  5  8  1  0
  7  2  2  0
  8 27  1  0
 10 11  1  0
 11 12  1  0
 12 13  1  0
 14 15  2  0
 16 17  2  0
 18 13  2  0
 19 25  1  0
 20 19  1  0
 21 25  1  0
 21  9  1  0
 27  9  1  0
  2  3  1  0
  4  5  1  0
  6  7  1  0
  8 23  2  0
  9 10  2  0
 11 19  2  0
 12 24  2  0
 13 14  1  0
 15 16  1  0
 17 18  1  0
 21 26  2  0
M  END
>  <rmsd>  (43) 
0.248479337

$$$$
MolPort-047-073-956 MCULE-6453999601 PubChem-132772398
     RDKit          3D

 31 34  0  0  0  0  0  0  0  0999 V2000
   15.2184   45.8783    3.7953 C   0  0  0  0  0  0  0  0  0  0  0  0
   14.1265   46.0351    2.9370 C   0  0  0  0  0  0  0  0  0  0  0  0
   13.8827   44.3168    4.6893 C   0  0  0  0  0  0  0  0  0  0  0  0
   14.1887   42.7094    6.6586 C   0  0  0  0  0  0  0  0  0  0  0  0
   15.4807   43.1496    6.9770 C   0  0  0  0  0  0  0  0  0  0  0  0
   16.1631   42.5684    8.0455 C   0  0  0  0  0  0  0  0  0  0  0  0
   15.5563   41.5557    8.7873 C   0  0  0  0  0  0  0  0  0  0  0  0
   14.2637   41.1356    8.4459 C   0  0  0  0  0  0  0  0  0  0  0  0
   13.5772   40.0515    9.2142 C   0  0  2  0  0  0  0  0  0  0  0  0
   13.3403   40.4800   10.6679 C   0  0  0  0  0  0  0  0  0  0  0  0
   13.0587   39.2686   11.5550 C   0  0  0  0  0  0  0  0  0  0  0  0
   14.1402   38.1816   11.4151 C   0  0  0  0  0  0  0  0  0  0  0  0
   15.8636   37.2517   10.1264 C   0  0  0  0  0  0  0  0  0  0  0  0
   17.2341   37.5940    9.7346 C   0  0  0  0  0  0  0  0  0  0  0  0
   14.3460   38.7258    9.1089 C   0  0  0  0  0  0  0  0  0  0  0  0
   16.4434   46.6787    3.6724 C   0  0  0  0  0  0  0  0  0  0  0  0
   17.7591   48.4569    2.4324 C   0  0  0  0  0  0  0  0  0  0  0  0
   18.8033   47.6345    1.7573 C   0  0  0  0  0  0  0  0  0  0  0  0
   18.7634   47.4528    0.3718 C   0  0  0  0  0  0  0  0  0  0  0  0
   19.7373   46.6619   -0.2405 C   0  0  0  0  0  0  0  0  0  0  0  0
   20.7324   46.0611    0.5327 C   0  0  0  0  0  0  0  0  0  0  0  0
   20.7356   46.2617    1.9150 C   0  0  0  0  0  0  0  0  0  0  0  0
   12.9586   44.9263    3.4347 S   0  0  0  0  0  0  0  0  0  0  0  0
   13.4463   43.2746    5.5701 N   0  0  0  0  0  0  0  0  0  0  0  0
   15.0942   38.4658   10.3384 N   0  0  0  0  0  0  0  0  0  0  0  0
   18.3158   37.8647    9.4252 N   0  0  0  0  0  0  0  0  0  0  0  0
   13.6196   41.7192    7.3989 N   0  0  0  0  0  0  0  0  0  0  0  0
   15.0815   44.9288    4.7618 N   0  0  0  0  0  0  0  0  0  0  0  0
   16.5531   47.6683    2.6446 N   0  0  0  0  0  0  0  0  0  0  0  0
   19.7785   47.0358    2.4941 N   0  0  0  0  0  0  0  0  0  0  0  0
   17.3951   46.4927    4.4784 O   0  0  0  0  0  0  0  0  0  0  0  0
  1 16  1  0
  1 28  1  0
  2 23  1  0
  3 23  1  0
  3 24  1  0
  4 27  2  0
  5  6  2  0
  7  8  2  0
  9  8  1  6
  9 10  1  0
 10 11  1  0
 11 12  1  0
 12 25  1  0
 13 25  1  0
 13 14  1  0
 15 25  1  0
 15  9  1  0
 16 29  1  0
 17 29  1  0
 17 18  1  0
 18 30  2  0
 19 20  2  0
 21 22  2  0
 24  4  1  0
  1  2  2  0
  3 28  2  0
  4  5  1  0
  6  7  1  0
  8 27  1  0
 16 31  2  0
 18 19  1  0
 20 21  1  0
 22 30  1  0
 14 26  3  0
M  END
>  <rmsd>  (44) 
0.24748908

$$$$
MolPort-006-579-667 ChemDiv-V018-1028 MCULE-7774224366 PubChem-46040631 ZINC000037543390 ZINC37543390
     RDKit          3D

 32 35  0  0  0  0  0  0  0  0999 V2000
   11.2577   33.5839   11.8967 C   0  0  0  0  0  0  0  0  0  0  0  0
   11.3944   34.4809   10.7206 C   0  0  0  0  0  0  0  0  0  0  0  0
   11.9720   34.0033    9.5394 C   0  0  0  0  0  0  0  0  0  0  0  0
   12.1001   34.8478    8.4321 C   0  0  0  0  0  0  0  0  0  0  0  0
   11.6488   36.1693    8.5051 C   0  0  0  0  0  0  0  0  0  0  0  0
   11.0666   36.6471    9.6854 C   0  0  0  0  0  0  0  0  0  0  0  0
   10.6092   38.0640    9.7760 C   0  0  0  0  0  0  0  0  0  0  0  0
   12.1731   39.0555   11.4776 C   0  0  0  0  0  0  0  0  0  0  0  0
   13.6838   38.9163   11.5252 C   0  0  0  0  0  0  0  0  0  0  0  0
   14.3301   40.0515   10.7291 C   0  0  0  0  0  0  0  0  0  0  0  0
   12.4878   39.5820    9.0627 C   0  0  0  0  0  0  0  0  0  0  0  0
   14.3769   41.1653    8.4893 C   0  0  0  0  0  0  0  0  0  0  0  0
   15.7367   41.4827    8.6477 C   0  0  0  0  0  0  0  0  0  0  0  0
   16.3605   42.3943    7.7927 C   0  0  0  0  0  0  0  0  0  0  0  0
   15.6305   43.0047    6.7711 C   0  0  0  0  0  0  0  0  0  0  0  0
   14.2709   42.7098    6.5999 C   0  0  0  0  0  0  0  0  0  0  0  0
   13.9066   44.3482    4.6647 C   0  0  0  0  0  0  0  0  0  0  0  0
   12.9856   44.7826    3.5773 C   0  0  0  0  0  0  0  0  0  0  0  0
   14.3675   44.9285    1.5202 C   0  0  0  0  0  0  0  0  0  0  0  0
   14.8742   46.1939    1.8635 C   0  0  0  0  0  0  0  0  0  0  0  0
   15.8108   46.8252    1.0396 C   0  0  0  0  0  0  0  0  0  0  0  0
   16.2459   46.1986   -0.1325 C   0  0  0  0  0  0  0  0  0  0  0  0
   15.7410   44.9424   -0.4814 C   0  0  0  0  0  0  0  0  0  0  0  0
   14.8041   44.3101    0.3425 C   0  0  0  0  0  0  0  0  0  0  0  0
   13.6567   41.7935    7.4589 C   0  0  0  0  0  0  0  0  0  0  0  0
   10.9453   35.8031   10.7949 C   0  0  0  0  0  0  0  0  0  0  0  0
   11.7292   38.9399   10.0965 N   0  0  0  0  0  0  0  0  0  0  0  0
   13.7324   40.2418    9.3960 N   0  0  0  0  0  0  0  0  0  0  0  0
   13.4888   43.3094    5.5588 N   0  0  0  0  0  0  0  0  0  0  0  0
   12.0863   39.5291    7.8677 O   0  0  0  0  0  0  0  0  0  0  0  0
   15.0345   44.8957    4.7814 O   0  0  0  0  0  0  0  0  0  0  0  0
   13.4284   44.2715    2.3237 O   0  0  0  0  0  0  0  0  0  0  0  0
  1  2  1  0
  3  4  2  0
  5  6  2  0
  7  6  1  0
  7 27  1  0
  8 27  1  0
  8  9  1  0
  9 10  1  0
 10 28  1  0
 11 27  1  0
 13 14  2  0
 15 16  2  0
 16 29  1  0
 18 17  1  0
 18 32  1  0
 19 32  1  0
 20 21  2  0
 22 23  2  0
 24 19  2  0
 25 12  2  0
 26  2  2  0
 28 11  1  0
 28 12  1  0
 29 17  1  0
  2  3  1  0
  4  5  1  0
  6 26  1  0
 11 30  2  0
 12 13  1  0
 14 15  1  0
 16 25  1  0
 17 31  2  0
 19 20  1  0
 21 22  1  0
 23 24  1  0
M  END
>  <rmsd>  (45) 
0.235772416

$$$$
MolPort-047-459-720 219860716 MCULE-2419899372 MCULE-3818994584 PubChem-159302235 PubChem-159329173 PubChem-161182785 PubChem-165095731 PubChem-86683701
     RDKit          3D

 35 39  0  0  0  0  0  0  0  0999 V2000
   13.8964   41.8241   10.3259 B   0  0  0  0  0  0  0  0  0  0  0  0
   12.4696   42.0285   10.5259 O   0  0  0  0  0  0  0  0  0  0  0  0
   14.4399   40.7837   11.1878 O   0  0  0  0  0  0  0  0  0  0  0  0
   16.0333   42.2413    5.1581 O   0  0  0  0  0  0  0  0  0  0  0  0
   18.8919   47.7022   -2.6173 O   0  0  0  0  0  0  0  0  0  0  0  0
   12.0567   40.7820   11.0256 C   0  0  0  0  0  0  0  0  0  0  0  0
   13.3507   39.9051   11.2546 C   0  0  0  0  0  0  0  0  0  0  0  0
   13.5423   38.8053   10.2029 C   0  0  0  0  0  0  0  0  0  0  0  0
   13.3795   39.2063   12.6103 C   0  0  0  0  0  0  0  0  0  0  0  0
   11.2877   41.0501   12.3178 C   0  0  0  0  0  0  0  0  0  0  0  0
   11.0657   40.1609   10.0451 C   0  0  0  0  0  0  0  0  0  0  0  0
   14.4823   41.9711    8.8808 C   0  0  0  0  0  0  0  0  0  0  0  0
   15.7661   41.5063    8.5911 C   0  0  0  0  0  0  0  0  0  0  0  0
   15.5568   42.1949    6.3257 C   0  0  0  0  0  0  0  0  0  0  0  0
   14.2658   42.7010    6.5850 C   0  0  0  0  0  0  0  0  0  0  0  0
   13.7317   42.5636    7.8668 C   0  0  0  0  0  0  0  0  0  0  0  0
   13.9226   44.2093    4.5742 C   0  0  0  0  0  0  0  0  0  0  0  0
   15.5114   45.8327    3.8718 C   0  0  0  0  0  0  0  0  0  0  0  0
   14.7973   46.0726    2.6869 C   0  0  0  0  0  0  0  0  0  0  0  0
   13.6164   45.3445    2.4737 C   0  0  0  0  0  0  0  0  0  0  0  0
   13.1723   44.4188    3.4173 C   0  0  0  0  0  0  0  0  0  0  0  0
   16.5512   47.7142    1.9863 C   0  0  0  0  0  0  0  0  0  0  0  0
   17.0014   48.6035    0.8380 C   0  0  0  0  0  0  0  0  0  0  0  0
   15.3271   47.9930   -0.6236 C   0  0  0  0  0  0  0  0  0  0  0  0
   14.5673   47.1639    0.4176 C   0  0  2  0  0  0  0  0  0  0  0  0
   13.2040   47.8024    0.6229 C   0  0  0  0  0  0  0  0  0  0  0  0
   17.4033   48.6869   -1.4819 C   0  0  0  0  0  0  0  0  0  0  0  0
   18.8993   48.4883   -1.4570 C   0  0  0  0  0  0  0  0  0  0  0  0
   17.5023   47.8532   -2.7350 C   0  0  0  0  0  0  0  0  0  0  0  0
   17.6159   41.0999    7.0968 C   0  0  0  0  0  0  0  0  0  0  0  0
   16.2789   41.6221    7.3370 N   0  0  0  0  0  0  0  0  0  0  0  0
   13.4532   43.2863    5.5592 N   0  0  0  0  0  0  0  0  0  0  0  0
   15.0647   44.9224    4.7771 N   0  0  0  0  0  0  0  0  0  0  0  0
   15.2760   47.0282    1.7105 N   0  0  0  0  0  0  0  0  0  0  0  0
   16.7676   47.9108   -0.4187 N   0  0  0  0  0  0  0  0  0  0  0  0
  1  2  1  0
  1 12  1  0
  1  3  1  0
  6  2  1  0
  6  7  1  0
  6 10  1  0
  6 11  1  0
  7  3  1  0
  7  8  1  0
  7  9  1  0
 13 31  1  0
 14 15  1  0
 15 32  1  0
 16 12  1  0
 18 33  2  0
 19 20  2  0
 19 34  1  0
 21 17  2  0
 22 34  1  0
 22 23  1  0
 23 35  1  0
 24 35  1  0
 24 25  1  0
 25 26  1  1
 25 34  1  0
 27 35  1  0
 27 28  1  0
 28  5  1  0
 29  5  1  0
 29 27  1  0
 30 31  1  0
 31 14  1  0
 32 17  1  0
 12 13  2  0
 14  4  2  0
 15 16  2  0
 17 33  1  0
 18 19  1  0
 20 21  1  0
M  END
>  <rmsd>  (46) 
0.24306573

$$$$
MolPort-047-073-926 MCULE-9516720595 PubChem-132768183
     RDKit          3D

 34 37  0  0  0  0  0  0  0  0999 V2000
   15.2315   45.8795    3.8145 C   0  0  0  0  0  0  0  0  0  0  0  0
   16.4607   46.6758    3.7053 C   0  0  0  0  0  0  0  0  0  0  0  0
   17.7787   48.4817    2.5383 C   0  0  0  0  0  0  0  0  0  0  0  0
   17.6258   49.4162    1.3511 C   0  0  0  0  0  0  0  0  0  0  0  0
   16.5701   49.2160   -0.7410 C   0  0  0  0  0  0  0  0  0  0  0  0
   18.8923   48.7512   -0.6133 C   0  0  0  0  0  0  0  0  0  0  0  0
   19.9684   47.9207    0.0589 C   0  0  0  0  0  0  0  0  0  0  0  0
   21.2575   48.6678   -0.1925 C   0  0  0  0  0  0  0  0  0  0  0  0
   20.8723   50.1311   -0.2498 C   0  0  0  0  0  0  0  0  0  0  0  0
   19.4374   50.1755   -0.7410 C   0  0  0  0  0  0  0  0  0  0  0  0
   14.1447   46.0485    2.9516 C   0  0  0  0  0  0  0  0  0  0  0  0
   13.8824   44.3191    4.6890 C   0  0  0  0  0  0  0  0  0  0  0  0
   14.1966   42.7171    6.6392 C   0  0  0  0  0  0  0  0  0  0  0  0
   13.6327   41.7055    7.4159 C   0  0  0  0  0  0  0  0  0  0  0  0
   14.3826   41.1696    8.4628 C   0  0  0  0  0  0  0  0  0  0  0  0
   13.7999   40.0857    9.3069 C   0  0  2  0  0  0  0  0  0  0  0  0
   13.6613   40.5441   10.7599 C   0  0  0  0  0  0  0  0  0  0  0  0
   13.1654   39.4037   11.6529 C   0  0  0  0  0  0  0  0  0  0  0  0
   13.7650   38.0471   11.2594 C   0  0  0  0  0  0  0  0  0  0  0  0
   15.5244   36.8980   10.2164 C   0  0  0  0  0  0  0  0  0  0  0  0
   16.6407   36.6299   11.1272 C   0  0  0  0  0  0  0  0  0  0  0  0
   14.6229   38.7905    9.1732 C   0  0  0  0  0  0  0  0  0  0  0  0
   16.1731   42.6232    7.9393 C   0  0  0  0  0  0  0  0  0  0  0  0
   17.5450   43.1200    8.2205 C   0  0  0  0  0  0  0  0  0  0  0  0
   16.5815   47.6695    2.6855 N   0  0  0  0  0  0  0  0  0  0  0  0
   17.6110   48.6524    0.1041 N   0  0  0  0  0  0  0  0  0  0  0  0
   13.4378   43.2755    5.5614 N   0  0  0  0  0  0  0  0  0  0  0  0
   14.9865   38.2228   10.4743 N   0  0  0  0  0  0  0  0  0  0  0  0
   17.5220   36.4180   11.8465 N   0  0  0  0  0  0  0  0  0  0  0  0
   15.6375   41.6374    8.7050 N   0  0  0  0  0  0  0  0  0  0  0  0
   15.4550   43.1554    6.9163 N   0  0  0  0  0  0  0  0  0  0  0  0
   15.0842   44.9237    4.7733 N   0  0  0  0  0  0  0  0  0  0  0  0
   17.4082   46.4786    4.5138 O   0  0  0  0  0  0  0  0  0  0  0  0
   12.9678   44.9426    3.4343 S   0  0  0  0  0  0  0  0  0  0  0  0
  1  2  1  0
  1 32  1  0
  2 25  1  0
  3 25  1  0
  3  4  1  0
  4 26  1  0
  5 26  1  0
  6 26  1  0
  6  7  1  0
  7  8  1  0
  8  9  1  0
  9 10  1  0
 10  6  1  0
 11 34  1  0
 12 34  1  0
 12 27  1  0
 13 31  2  0
 14 15  2  0
 16 15  1  6
 16 17  1  0
 17 18  1  0
 18 19  1  0
 19 28  1  0
 20 28  1  0
 20 21  1  0
 22 28  1  0
 22 16  1  0
 23 30  2  0
 24 23  1  0
 27 13  1  0
  1 11  2  0
  2 33  2  0
 12 32  2  0
 13 14  1  0
 15 30  1  0
 23 31  1  0
 21 29  3  0
M  END
>  <rmsd>  (47) 
0.24601005

$$$$
MolPort-003-020-505 4087322 CSSS03437186032 LN01391649 MCULE-7357282413 PubChem-5098654 ZINC000004087322
     RDKit          3D

 29 32  0  0  0  0  0  0  0  0999 V2000
   14.2777   42.7310    6.6279 C   0  0  0  0  0  0  0  0  0  0  0  0
   13.8434   44.4754    4.8305 C   0  0  0  0  0  0  0  0  0  0  0  0
   12.7813   45.2165    4.0924 C   0  0  0  0  0  0  0  0  0  0  0  0
   12.1519   46.2854    4.9793 C   0  0  0  0  0  0  0  0  0  0  0  0
   11.3126   45.6835    6.0596 C   0  0  0  0  0  0  0  0  0  0  0  0
   10.1503   44.9669    5.7460 C   0  0  0  0  0  0  0  0  0  0  0  0
    9.3763   44.4062    6.7668 C   0  0  0  0  0  0  0  0  0  0  0  0
    9.7608   44.5626    8.1021 C   0  0  0  0  0  0  0  0  0  0  0  0
   10.9178   45.2818    8.4171 C   0  0  0  0  0  0  0  0  0  0  0  0
   11.6912   45.8434    7.3968 C   0  0  0  0  0  0  0  0  0  0  0  0
   15.2628   41.2099    8.3426 C   0  0  0  0  0  0  0  0  0  0  0  0
   15.5665   42.5504    8.5655 C   0  0  0  0  0  0  0  0  0  0  0  0
   16.3702   43.0207    9.7335 C   0  0  0  0  0  0  0  0  0  0  0  0
   15.0071   43.4131    7.6064 C   0  0  0  0  0  0  0  0  0  0  0  0
   15.0895   44.8493    7.7055 C   0  0  0  0  0  0  0  0  0  0  0  0
   15.6426   40.0626    9.2215 C   0  0  0  0  0  0  0  0  0  0  0  0
   14.5340   39.7368   10.1637 C   0  0  0  0  0  0  0  0  0  0  0  0
   13.5761   38.7600    9.8076 C   0  0  0  0  0  0  0  0  0  0  0  0
   12.5107   38.4546   10.6741 C   0  0  0  0  0  0  0  0  0  0  0  0
   12.4422   39.1512   11.8782 C   0  0  0  0  0  0  0  0  0  0  0  0
   13.3585   40.0931   12.2196 C   0  0  0  0  0  0  0  0  0  0  0  0
   11.8514   39.9637   13.9230 C   0  0  0  0  0  0  0  0  0  0  0  0
   14.4263   40.4230   11.3889 C   0  0  0  0  0  0  0  0  0  0  0  0
   13.4956   43.3046    5.5741 N   0  0  0  0  0  0  0  0  0  0  0  0
   15.1557   46.0019    7.7884 N   0  0  0  0  0  0  0  0  0  0  0  0
   15.0349   44.8821    4.7853 O   0  0  0  0  0  0  0  0  0  0  0  0
   13.0408   40.6162   13.4568 O   0  0  0  0  0  0  0  0  0  0  0  0
   11.5045   39.0359   12.8849 O   0  0  0  0  0  0  0  0  0  0  0  0
   14.2825   41.0891    6.9812 S   0  0  0  0  0  0  0  0  0  0  0  0
  1 24  1  0
  1 29  1  0
  3  2  1  0
  3  4  1  0
  4  5  1  0
  6  7  2  0
  8  9  2  0
 10  5  2  0
 11 29  1  0
 12 14  1  0
 13 12  1  0
 14 15  1  0
 16 11  1  0
 16 17  1  0
 18 19  2  0
 20 21  2  0
 20 28  1  0
 21 27  1  0
 22 27  1  0
 22 28  1  0
 23 17  2  0
 24  2  1  0
  2 26  2  0
  5  6  1  0
  7  8  1  0
  9 10  1  0
 11 12  2  0
 14  1  2  0
 17 18  1  0
 19 20  1  0
 21 23  1  0
 15 25  3  0
M  END
>  <rmsd>  (48) 
0.242346495

$$$$
MolPort-046-971-670 MCULE-7261905187 PubChem-110111614
     RDKit          3D

 28 31  0  0  0  0  0  0  0  0999 V2000
   11.6270   44.1626    3.4756 C   0  0  0  0  0  0  0  0  0  0  0  0
   12.9794   44.7645    3.6481 C   0  0  0  0  0  0  0  0  0  0  0  0
   13.8509   44.3306    4.6609 C   0  0  0  0  0  0  0  0  0  0  0  0
   15.4904   45.9050    3.9486 C   0  0  0  0  0  0  0  0  0  0  0  0
   14.6493   46.3597    2.9326 C   0  0  0  0  0  0  0  0  0  0  0  0
   13.3878   45.7833    2.7852 C   0  0  0  0  0  0  0  0  0  0  0  0
   14.2136   42.7334    6.6289 C   0  0  0  0  0  0  0  0  0  0  0  0
   16.2085   42.6730    7.9238 C   0  0  0  0  0  0  0  0  0  0  0  0
   15.6892   41.6498    8.7182 C   0  0  0  0  0  0  0  0  0  0  0  0
   14.4013   41.1644    8.4559 C   0  0  0  0  0  0  0  0  0  0  0  0
   13.6618   41.7106    7.4045 C   0  0  0  0  0  0  0  0  0  0  0  0
   13.8012   40.0680    9.2773 C   0  0  2  0  0  0  0  0  0  0  0  0
   13.6675   40.4854   10.7436 C   0  0  0  0  0  0  0  0  0  0  0  0
   13.0342   39.3609   11.5595 C   0  0  0  0  0  0  0  0  0  0  0  0
   13.8687   38.0891   11.4362 C   0  0  0  0  0  0  0  0  0  0  0  0
   14.6194   38.7818    9.1568 C   0  0  0  0  0  0  0  0  0  0  0  0
   13.5340   36.5376    9.4537 C   0  0  0  0  0  0  0  0  0  0  0  0
   13.3058   35.3163   10.2614 C   0  0  0  0  0  0  0  0  0  0  0  0
   12.5254   34.2709    9.7560 C   0  0  0  0  0  0  0  0  0  0  0  0
   12.9080   32.9988   11.7093 C   0  0  0  0  0  0  0  0  0  0  0  0
   13.8891   35.1392   11.5202 C   0  0  0  0  0  0  0  0  0  0  0  0
   15.0781   44.9121    4.7812 N   0  0  0  0  0  0  0  0  0  0  0  0
   13.4425   43.2841    5.5545 N   0  0  0  0  0  0  0  0  0  0  0  0
   15.4679   43.1882    6.9063 N   0  0  0  0  0  0  0  0  0  0  0  0
   14.0483   37.7552   10.0245 N   0  0  0  0  0  0  0  0  0  0  0  0
   12.3382   33.1399   10.4846 N   0  0  0  0  0  0  0  0  0  0  0  0
   13.6788   33.9938   12.2192 N   0  0  0  0  0  0  0  0  0  0  0  0
   13.2757   36.5021    8.2189 O   0  0  0  0  0  0  0  0  0  0  0  0
  1  2  1  0
  3 22  2  0
  3 23  1  0
  4  5  2  0
  6  2  2  0
  8 24  2  0
  9 10  2  0
 11  7  2  0
 12 10  1  6
 12 13  1  0
 13 14  1  0
 14 15  1  0
 15 25  1  0
 16 25  1  0
 16 12  1  0
 17 18  1  0
 19 26  2  0
 20 27  2  0
 21 18  2  0
 23  7  1  0
 25 17  1  0
  2  3  1  0
  4 22  1  0
  5  6  1  0
  7 24  1  0
  8  9  1  0
 10 11  1  0
 17 28  2  0
 18 19  1  0
 20 26  1  0
 21 27  1  0
M  END
>  <rmsd>  (49) 
0.243949816

$$$$
MolPort-006-609-964 ChemDiv-V020-9513 MCULE-5221763621 PubChem-46070048 ZINC000034735459 ZINC34735459
     RDKit          3D

 34 37  0  0  0  0  0  0  0  0999 V2000
    7.9988   47.0383    6.7687 C   0  0  0  0  0  0  0  0  0  0  0  0
   10.0487   46.5111    5.4906 C   0  0  0  0  0  0  0  0  0  0  0  0
   10.8733   45.5345    4.9227 C   0  0  0  0  0  0  0  0  0  0  0  0
   12.0408   45.9013    4.2430 C   0  0  0  0  0  0  0  0  0  0  0  0
   12.9267   44.8535    3.6605 C   0  0  0  0  0  0  0  0  0  0  0  0
   13.8918   44.3600    4.6836 C   0  0  0  0  0  0  0  0  0  0  0  0
   14.2746   42.7385    6.6335 C   0  0  0  0  0  0  0  0  0  0  0  0
   13.7028   41.7385    7.4248 C   0  0  0  0  0  0  0  0  0  0  0  0
   14.4233   41.1403    8.4724 C   0  0  0  0  0  0  0  0  0  0  0  0
   15.7343   41.5783    8.7249 C   0  0  0  0  0  0  0  0  0  0  0  0
   16.3140   42.5777    7.9407 C   0  0  0  0  0  0  0  0  0  0  0  0
   15.5868   43.1553    6.8983 C   0  0  0  0  0  0  0  0  0  0  0  0
   14.3789   39.8639   10.6315 C   0  0  0  0  0  0  0  0  0  0  0  0
   13.2573   39.6317   11.6295 C   0  0  0  0  0  0  0  0  0  0  0  0
   12.4493   38.4022   11.2240 C   0  0  0  0  0  0  0  0  0  0  0  0
   11.0596   37.4802    9.3544 C   0  0  0  0  0  0  0  0  0  0  0  0
   11.7080   36.1874    8.9907 C   0  0  0  0  0  0  0  0  0  0  0  0
   11.7113   35.1317    9.9084 C   0  0  0  0  0  0  0  0  0  0  0  0
   12.3317   33.9227    9.5800 C   0  0  0  0  0  0  0  0  0  0  0  0
   12.9534   33.7683    8.3361 C   0  0  0  0  0  0  0  0  0  0  0  0
   12.9531   34.8231    7.4182 C   0  0  0  0  0  0  0  0  0  0  0  0
   12.3309   36.0324    7.7457 C   0  0  0  0  0  0  0  0  0  0  0  0
   13.5893   32.5254    8.0029 C   0  0  0  0  0  0  0  0  0  0  0  0
   12.7193   39.3045    8.8690 C   0  0  0  0  0  0  0  0  0  0  0  0
   12.3917   47.2513    4.1375 C   0  0  0  0  0  0  0  0  0  0  0  0
   11.5734   48.2326    4.7044 C   0  0  0  0  0  0  0  0  0  0  0  0
   10.4063   47.8654    5.3805 C   0  0  0  0  0  0  0  0  0  0  0  0
    8.8873   46.1122    6.1557 O   0  0  0  0  0  0  0  0  0  0  0  0
   15.0303   44.8933    4.7674 O   0  0  0  0  0  0  0  0  0  0  0  0
   12.3493   39.3146    7.6626 O   0  0  0  0  0  0  0  0  0  0  0  0
   13.4940   43.3090    5.5742 N   0  0  0  0  0  0  0  0  0  0  0  0
   13.8192   40.1283    9.3067 N   0  0  0  0  0  0  0  0  0  0  0  0
   12.0570   38.4406    9.8125 N   0  0  0  0  0  0  0  0  0  0  0  0
   14.1007   31.5209    7.7374 N   0  0  0  0  0  0  0  0  0  0  0  0
  1 28  1  0
  2 28  1  0
  3  4  2  0
  5  4  1  0
  5  6  1  0
  6 31  1  0
  8  9  2  0
  9 32  1  0
 10 11  2  0
 12  7  2  0
 13 32  1  0
 13 14  1  0
 14 15  1  0
 15 33  1  0
 16 33  1  0
 16 17  1  0
 18 19  2  0
 20 21  2  0
 20 23  1  0
 22 17  2  0
 24 32  1  0
 25 26  2  0
 27  2  2  0
 31  7  1  0
 33 24  1  0
  2  3  1  0
  4 25  1  0
  6 29  2  0
  7  8  1  0
  9 10  1  0
 11 12  1  0
 17 18  1  0
 19 20  1  0
 21 22  1  0
 24 30  2  0
 26 27  1  0
 23 34  3  0
M  END
>  <rmsd>  (50) 
0.245819017

$$$$
MolPort-006-609-967 ChemDiv-V013-4409 MCULE-6473052264 PubChem-46070051 ZINC000034735463 ZINC34735463
     RDKit          3D

 32 35  0  0  0  0  0  0  0  0999 V2000
   12.0997   32.2380    6.7778 C   0  0  0  0  0  0  0  0  0  0  0  0
   11.5693   33.9735    8.4611 C   0  0  0  0  0  0  0  0  0  0  0  0
   11.4559   34.9785    7.4849 C   0  0  0  0  0  0  0  0  0  0  0  0
   11.1424   36.2889    7.8568 C   0  0  0  0  0  0  0  0  0  0  0  0
   10.9359   36.6039    9.2040 C   0  0  0  0  0  0  0  0  0  0  0  0
   10.6214   38.0073    9.6045 C   0  0  0  0  0  0  0  0  0  0  0  0
   12.3842   38.5674   11.2954 C   0  0  0  0  0  0  0  0  0  0  0  0
   13.3564   39.6896   11.6443 C   0  0  0  0  0  0  0  0  0  0  0  0
   14.4269   39.7631   10.5675 C   0  0  0  0  0  0  0  0  0  0  0  0
   12.5992   39.4052    8.9237 C   0  0  0  0  0  0  0  0  0  0  0  0
   14.4158   41.1179    8.4542 C   0  0  0  0  0  0  0  0  0  0  0  0
   15.7352   41.5368    8.6930 C   0  0  0  0  0  0  0  0  0  0  0  0
   16.3193   42.5335    7.9082 C   0  0  0  0  0  0  0  0  0  0  0  0
   15.5894   43.1285    6.8774 C   0  0  0  0  0  0  0  0  0  0  0  0
   14.2690   42.7310    6.6247 C   0  0  0  0  0  0  0  0  0  0  0  0
   13.9027   44.3460    4.6673 C   0  0  0  0  0  0  0  0  0  0  0  0
   12.9840   44.7709    3.5716 C   0  0  0  0  0  0  0  0  0  0  0  0
   13.0974   43.8477    2.4067 C   0  0  0  0  0  0  0  0  0  0  0  0
   14.0351   44.1002    1.4000 C   0  0  0  0  0  0  0  0  0  0  0  0
   14.1492   43.2264    0.3144 C   0  0  0  0  0  0  0  0  0  0  0  0
   13.3266   42.0979    0.2352 C   0  0  0  0  0  0  0  0  0  0  0  0
   12.3947   41.8406    1.2440 C   0  0  0  0  0  0  0  0  0  0  0  0
   12.2805   42.7136    2.3304 C   0  0  0  0  0  0  0  0  0  0  0  0
   13.6938   41.7309    7.4154 C   0  0  0  0  0  0  0  0  0  0  0  0
   11.0513   35.6069   10.1786 C   0  0  0  0  0  0  0  0  0  0  0  0
   11.3659   34.2966    9.8069 C   0  0  0  0  0  0  0  0  0  0  0  0
   11.8820   32.6549    8.1221 O   0  0  0  0  0  0  0  0  0  0  0  0
   12.1908   39.3984    7.7294 O   0  0  0  0  0  0  0  0  0  0  0  0
   15.0326   44.8931    4.7746 O   0  0  0  0  0  0  0  0  0  0  0  0
   11.8426   38.7278    9.9447 N   0  0  0  0  0  0  0  0  0  0  0  0
   13.8154   40.0953    9.2812 N   0  0  0  0  0  0  0  0  0  0  0  0
   13.4904   43.3085    5.5667 N   0  0  0  0  0  0  0  0  0  0  0  0
  1 27  1  0
  2 27  1  0
  3  4  2  0
  5 25  2  0
  6  5  1  0
  6 30  1  0
  7 30  1  0
  7  8  1  0
  8  9  1  0
  9 31  1  0
 10 30  1  0
 12 13  2  0
 14 15  2  0
 15 32  1  0
 17 16  1  0
 17 18  1  0
 19 20  2  0
 21 22  2  0
 23 18  2  0
 24 11  2  0
 26  2  2  0
 31 10  1  0
 31 11  1  0
 32 16  1  0
  2  3  1  0
  4  5  1  0
 10 28  2  0
 11 12  1  0
 13 14  1  0
 15 24  1  0
 16 29  2  0
 18 19  1  0
 20 21  1  0
 22 23  1  0
 25 26  1  0
M  END
>  <rmsd>  (51) 
0.244477138

$$$$
MolPort-020-278-648 MCULE-3254278991 PubChem-110255520
     RDKit          3D

 27 29  0  0  0  0  0  0  0  0999 V2000
   11.6011   44.1224    3.5228 C   0  0  0  0  0  0  0  0  0  0  0  0
   12.9497   44.7400    3.6675 C   0  0  0  0  0  0  0  0  0  0  0  0
   13.8434   44.3233    4.6682 C   0  0  0  0  0  0  0  0  0  0  0  0
   15.4535   45.9081    3.9127 C   0  0  0  0  0  0  0  0  0  0  0  0
   14.5902   46.3453    2.9079 C   0  0  0  0  0  0  0  0  0  0  0  0
   13.3323   45.7550    2.7885 C   0  0  0  0  0  0  0  0  0  0  0  0
   14.2311   42.7267    6.6530 C   0  0  0  0  0  0  0  0  0  0  0  0
   14.3739   41.1747    8.4392 C   0  0  0  0  0  0  0  0  0  0  0  0
   16.2136   42.5934    8.0040 C   0  0  0  0  0  0  0  0  0  0  0  0
   15.5229   43.1778    6.9447 C   0  0  0  0  0  0  0  0  0  0  0  0
   17.5874   43.0508    8.3378 C   0  0  0  0  0  0  0  0  0  0  0  0
   13.7389   40.0859    9.2380 C   0  0  2  0  0  0  0  0  0  0  0  0
   13.6125   40.4919   10.6985 C   0  0  0  0  0  0  0  0  0  0  0  0
   12.9522   39.3650   11.4736 C   0  0  0  0  0  0  0  0  0  0  0  0
   13.7718   38.0813   11.3269 C   0  0  0  0  0  0  0  0  0  0  0  0
   14.5455   38.7899    9.1176 C   0  0  0  0  0  0  0  0  0  0  0  0
   13.8419   35.5143    7.6275 C   0  0  0  0  0  0  0  0  0  0  0  0
   11.6356   35.9876    7.0369 C   0  0  0  0  0  0  0  0  0  0  0  0
   15.0663   44.9185    4.7610 N   0  0  0  0  0  0  0  0  0  0  0  0
   13.4588   43.2794    5.5777 N   0  0  0  0  0  0  0  0  0  0  0  0
   13.6883   41.7350    7.4081 N   0  0  0  0  0  0  0  0  0  0  0  0
   15.6314   41.6056    8.7307 N   0  0  0  0  0  0  0  0  0  0  0  0
   13.9841   37.6955    9.9231 N   0  0  0  0  0  0  0  0  0  0  0  0
   12.8508   36.5751    7.5747 N   0  0  0  0  0  0  0  0  0  0  0  0
   12.5228   37.0708    9.2056 S   0  0  0  0  0  0  0  0  0  0  0  0
   12.0420   35.8936   10.0104 O   0  0  0  0  0  0  0  0  0  0  0  0
   11.4504   38.1258    9.1945 O   0  0  0  0  0  0  0  0  0  0  0  0
  1  2  1  0
  3 19  2  0
  3 20  1  0
  4  5  2  0
  6  2  2  0
  8 21  2  0
  9 22  2  0
 10  7  2  0
 11  9  1  0
 12  8  1  6
 12 13  1  0
 13 14  1  0
 14 15  1  0
 15 23  1  0
 16 23  1  0
 16 12  1  0
 17 24  1  0
 18 24  1  0
 20  7  1  0
 25 23  1  0
 25 24  1  0
  2  3  1  0
  4 19  1  0
  5  6  1  0
  7 21  1  0
  8 22  1  0
  9 10  1  0
 25 26  2  0
 25 27  2  0
M  END
>  <rmsd>  (52) 
0.244352147

$$$$
MolPort-046-971-720 MCULE-6984137246 PubChem-110111680
     RDKit          3D

 28 31  0  0  0  0  0  0  0  0999 V2000
   13.7451   34.0750   13.6982 C   0  0  0  0  0  0  0  0  0  0  0  0
   13.2399   34.1791   12.3047 C   0  0  0  0  0  0  0  0  0  0  0  0
   12.0065   33.2634   10.5115 C   0  0  0  0  0  0  0  0  0  0  0  0
   12.3103   34.3728    9.7245 C   0  0  0  0  0  0  0  0  0  0  0  0
   13.0943   35.3935   10.2737 C   0  0  0  0  0  0  0  0  0  0  0  0
   13.4508   36.5755    9.4555 C   0  0  0  0  0  0  0  0  0  0  0  0
   13.8772   38.0970   11.4422 C   0  0  0  0  0  0  0  0  0  0  0  0
   13.0343   39.3631   11.5641 C   0  0  0  0  0  0  0  0  0  0  0  0
   13.6587   40.4875   10.7403 C   0  0  0  0  0  0  0  0  0  0  0  0
   13.7968   40.0644    9.2753 C   0  0  2  0  0  0  0  0  0  0  0  0
   14.6185   38.7791    9.1631 C   0  0  0  0  0  0  0  0  0  0  0  0
   14.3988   41.1591    8.4531 C   0  0  0  0  0  0  0  0  0  0  0  0
   13.6590   41.7079    7.4032 C   0  0  0  0  0  0  0  0  0  0  0  0
   14.2118   42.7306    6.6282 C   0  0  0  0  0  0  0  0  0  0  0  0
   16.2082   42.6650    7.9206 C   0  0  0  0  0  0  0  0  0  0  0  0
   15.6875   41.6426    8.7150 C   0  0  0  0  0  0  0  0  0  0  0  0
   13.8523   44.3302    4.6667 C   0  0  0  0  0  0  0  0  0  0  0  0
   12.9740   44.7558    3.6663 C   0  0  0  0  0  0  0  0  0  0  0  0
   13.3662   45.7750    2.7966 C   0  0  0  0  0  0  0  0  0  0  0  0
   14.6269   46.3580    2.9323 C   0  0  0  0  0  0  0  0  0  0  0  0
   15.4791   45.9087    3.9428 C   0  0  0  0  0  0  0  0  0  0  0  0
   12.4736   33.1857   11.7843 N   0  0  0  0  0  0  0  0  0  0  0  0
   13.5465   35.2674   11.5513 N   0  0  0  0  0  0  0  0  0  0  0  0
   14.0416   37.7560   10.0310 N   0  0  0  0  0  0  0  0  0  0  0  0
   15.4674   43.1825    6.9044 N   0  0  0  0  0  0  0  0  0  0  0  0
   13.4412   43.2839    5.5547 N   0  0  0  0  0  0  0  0  0  0  0  0
   15.0784   44.9144    4.7802 N   0  0  0  0  0  0  0  0  0  0  0  0
   13.2397   36.5386    8.2117 O   0  0  0  0  0  0  0  0  0  0  0  0
  1  2  1  0
  2 23  2  0
  3 22  2  0
  4  5  2  0
  5  6  1  0
  6 24  1  0
  7 24  1  0
  7  8  1  0
  8  9  1  0
  9 10  1  0
 10 11  1  0
 10 12  1  6
 11 24  1  0
 13 14  2  0
 14 26  1  0
 15 25  2  0
 16 12  2  0
 17 27  2  0
 18 19  2  0
 20 21  2  0
 26 17  1  0
  2 22  1  0
  3  4  1  0
  5 23  1  0
  6 28  2  0
 12 13  1  0
 14 25  1  0
 15 16  1  0
 17 18  1  0
 19 20  1  0
 21 27  1  0
M  END
>  <rmsd>  (53) 
0.24385424

$$$$
MolPort-020-278-609 CHEMBL3448474 MCULE-6381065529 PubChem-110255481
     RDKit          3D

 23 25  0  0  0  0  0  0  0  0999 V2000
   14.3698   41.1686    8.4358 C   0  0  0  0  0  0  0  0  0  0  0  0
   14.2300   42.7238    6.6521 C   0  0  0  0  0  0  0  0  0  0  0  0
   13.8468   44.3227    4.6726 C   0  0  0  0  0  0  0  0  0  0  0  0
   13.3001   45.7049    2.8307 C   0  0  0  0  0  0  0  0  0  0  0  0
   14.5456   46.3247    2.9094 C   0  0  0  0  0  0  0  0  0  0  0  0
   15.4295   45.9070    3.9022 C   0  0  0  0  0  0  0  0  0  0  0  0
   15.5219   43.1733    6.9456 C   0  0  0  0  0  0  0  0  0  0  0  0
   16.2112   42.5867    8.0047 C   0  0  0  0  0  0  0  0  0  0  0  0
   17.5849   43.0426    8.3406 C   0  0  0  0  0  0  0  0  0  0  0  0
   13.7323   40.0808    9.2346 C   0  0  1  0  0  0  0  0  0  0  0  0
   14.5476   38.7861    9.1294 C   0  0  0  0  0  0  0  0  0  0  0  0
   13.7970   38.0905   11.3301 C   0  0  0  0  0  0  0  0  0  0  0  0
   12.9571   39.3630   11.4806 C   0  0  0  0  0  0  0  0  0  0  0  0
   13.5934   40.4959   10.6925 C   0  0  0  0  0  0  0  0  0  0  0  0
   12.6901   37.2756    9.3639 C   0  0  0  0  0  0  0  0  0  0  0  0
   12.9074   36.1855    8.3325 C   0  0  0  0  0  0  0  0  0  0  0  0
   13.6855   41.7316    7.4051 N   0  0  0  0  0  0  0  0  0  0  0  0
   13.4591   43.2794    5.5771 N   0  0  0  0  0  0  0  0  0  0  0  0
   12.9745   44.7203    3.7087 N   0  0  0  0  0  0  0  0  0  0  0  0
   15.0673   44.9192    4.7616 N   0  0  0  0  0  0  0  0  0  0  0  0
   15.6274   41.5984    8.7294 N   0  0  0  0  0  0  0  0  0  0  0  0
   13.9720   37.6915    9.9260 N   0  0  0  0  0  0  0  0  0  0  0  0
   11.6791   35.8009    7.7979 O   0  0  0  0  0  0  0  0  0  0  0  0
  1 21  2  0
  2 17  2  0
  2 18  1  0
  3 20  2  0
  4 19  2  0
  5  6  2  0
  7  8  2  0
  9  8  1  0
 10  1  1  6
 10 11  1  0
 11 22  1  0
 12 22  1  0
 12 13  1  0
 13 14  1  0
 14 10  1  0
 15 22  1  0
 15 16  1  0
 16 23  1  0
 18  3  1  0
  1 17  1  0
  2  7  1  0
  3 19  1  0
  4  5  1  0
  6 20  1  0
  8 21  1  0
M  END
>  <rmsd>  (54) 
0.244078666

$$$$
MolPort-020-281-540 MCULE-5782000833 PubChem-110257273
     RDKit          3D

 22 24  0  0  0  0  0  0  0  0999 V2000
   13.4562   35.3243   10.4995 C   0  0  0  0  0  0  0  0  0  0  0  0
   13.9369   36.4005    9.5853 C   0  0  0  0  0  0  0  0  0  0  0  0
   13.8548   38.0948   11.4486 C   0  0  0  0  0  0  0  0  0  0  0  0
   13.0195   39.3675   11.5492 C   0  0  0  0  0  0  0  0  0  0  0  0
   13.6672   40.4853   10.7379 C   0  0  0  0  0  0  0  0  0  0  0  0
   13.8042   40.0620    9.2746 C   0  0  2  0  0  0  0  0  0  0  0  0
   14.6254   38.7772    9.1596 C   0  0  0  0  0  0  0  0  0  0  0  0
   14.4048   41.1571    8.4516 C   0  0  0  0  0  0  0  0  0  0  0  0
   13.6631   41.7065    7.4033 C   0  0  0  0  0  0  0  0  0  0  0  0
   14.2145   42.7295    6.6278 C   0  0  0  0  0  0  0  0  0  0  0  0
   16.2134   42.6631    7.9163 C   0  0  0  0  0  0  0  0  0  0  0  0
   15.6941   41.6403    8.7112 C   0  0  0  0  0  0  0  0  0  0  0  0
   13.8513   44.3302    4.6678 C   0  0  0  0  0  0  0  0  0  0  0  0
   12.9713   44.7565    3.6693 C   0  0  0  0  0  0  0  0  0  0  0  0
   13.3618   45.7759    2.7994 C   0  0  0  0  0  0  0  0  0  0  0  0
   14.6227   46.3590    2.9331 C   0  0  0  0  0  0  0  0  0  0  0  0
   15.4769   45.9090    3.9416 C   0  0  0  0  0  0  0  0  0  0  0  0
   14.2163   36.1036    8.3932 O   0  0  0  0  0  0  0  0  0  0  0  0
   14.0725   37.7536   10.0438 N   0  0  0  0  0  0  0  0  0  0  0  0
   15.4707   43.1811    6.9017 N   0  0  0  0  0  0  0  0  0  0  0  0
   13.4419   43.2834    5.5559 N   0  0  0  0  0  0  0  0  0  0  0  0
   15.0778   44.9143    4.7794 N   0  0  0  0  0  0  0  0  0  0  0  0
  1  2  1  0
  2 19  1  0
  3 19  1  0
  3  4  1  0
  4  5  1  0
  5  6  1  0
  6  7  1  0
  6  8  1  6
  7 19  1  0
  9 10  2  0
 10 21  1  0
 11 20  2  0
 12  8  2  0
 13 22  2  0
 14 15  2  0
 16 17  2  0
 21 13  1  0
  2 18  2  0
  8  9  1  0
 10 20  1  0
 11 12  1  0
 13 14  1  0
 15 16  1  0
 17 22  1  0
M  END
>  <rmsd>  (55) 
0.242741659

$$$$
MolPort-005-137-957 11949142 CHEMBL1879493 CSSS00159792005 PubChem-24793839 ZINC000011949142
     RDKit          3D

 31 34  0  0  0  0  0  0  0  0999 V2000
   15.1223   47.4784    1.8737 C   0  0  0  0  0  0  0  0  0  0  0  0
   13.4335   45.8273    2.6293 C   0  0  0  0  0  0  0  0  0  0  0  0
   13.0503   44.8093    3.5363 C   0  0  0  0  0  0  0  0  0  0  0  0
   11.7929   44.2028    3.3872 C   0  0  0  0  0  0  0  0  0  0  0  0
   10.9256   44.5889    2.3645 C   0  0  0  0  0  0  0  0  0  0  0  0
   11.3038   45.5907    1.4725 C   0  0  0  0  0  0  0  0  0  0  0  0
   12.5491   46.2056    1.6041 C   0  0  0  0  0  0  0  0  0  0  0  0
   13.9262   44.3549    4.6430 C   0  0  0  0  0  0  0  0  0  0  0  0
   14.2016   42.7790    6.6324 C   0  0  0  0  0  0  0  0  0  0  0  0
   15.4625   43.1603    7.0515 C   0  0  0  0  0  0  0  0  0  0  0  0
   15.6942   42.3468    8.1552 C   0  0  0  0  0  0  0  0  0  0  0  0
   12.4196   41.1746    7.3233 C   0  0  0  0  0  0  0  0  0  0  0  0
   11.4596   41.7104    8.3954 C   0  0  0  0  0  0  0  0  0  0  0  0
   11.6242   41.0381    9.7711 C   0  0  0  0  0  0  0  0  0  0  0  0
   12.4436   39.2234   11.0108 C   0  0  0  0  0  0  0  0  0  0  0  0
   13.7741   38.7470   11.4888 C   0  0  0  0  0  0  0  0  0  0  0  0
   14.7278   39.6143   11.8158 C   0  0  0  0  0  0  0  0  0  0  0  0
   16.0559   39.1970   12.2846 C   0  0  0  0  0  0  0  0  0  0  0  0
   16.4004   37.8422   12.4195 C   0  0  0  0  0  0  0  0  0  0  0  0
   17.6749   37.4812   12.8664 C   0  0  0  0  0  0  0  0  0  0  0  0
   18.6112   38.4703   13.1803 C   0  0  0  0  0  0  0  0  0  0  0  0
   18.2733   39.8201   13.0473 C   0  0  0  0  0  0  0  0  0  0  0  0
   16.9986   40.1814   12.6004 C   0  0  0  0  0  0  0  0  0  0  0  0
   12.2180   39.0197    8.6821 C   0  0  0  0  0  0  0  0  0  0  0  0
   12.5406   39.6422    7.3218 C   0  0  0  0  0  0  0  0  0  0  0  0
   14.6813   46.4515    2.7519 O   0  0  0  0  0  0  0  0  0  0  0  0
   15.0629   44.8728    4.8139 O   0  0  0  0  0  0  0  0  0  0  0  0
   13.4704   43.3173    5.5229 N   0  0  0  0  0  0  0  0  0  0  0  0
   14.6289   41.5439    8.3610 N   0  0  0  0  0  0  0  0  0  0  0  0
   13.7311   41.8096    7.4290 N   0  0  0  0  0  0  0  0  0  0  0  0
   12.5895   39.9381    9.7530 N   0  0  0  0  0  0  0  0  0  0  0  0
  1 26  1  0
  2 26  1  0
  3  4  2  0
  3  8  1  0
  5  6  2  0
  7  2  2  0
  8 28  1  0
 10 11  1  0
 12 30  1  0
 12 13  1  0
 13 14  1  0
 14 31  1  0
 15 31  1  0
 15 16  1  0
 17 18  1  0
 19 20  2  0
 21 22  2  0
 23 18  2  0
 24 31  1  0
 24 25  1  0
 25 12  1  0
 28  9  1  0
 30 29  1  0
 30  9  1  0
  2  3  1  0
  4  5  1  0
  6  7  1  0
  8 27  2  0
  9 10  2  0
 11 29  2  0
 16 17  2  0
 18 19  1  0
 20 21  1  0
 22 23  1  0
M  END
>  <rmsd>  (56) 
0.217693284

$$$$
Molport-020-295-357 MCULE-2704298410 PubChem-110267438
     RDKit          3D

 27 30  0  0  0  0  0  0  0  0999 V2000
   12.9841   39.3824   11.5023 C   0  0  0  0  0  0  0  0  0  0  0  0
   13.6421   40.5019   10.6975 C   0  0  0  0  0  0  0  0  0  0  0  0
   13.7861   40.0907    9.2298 C   0  0  2  0  0  0  0  0  0  0  0  0
   14.5919   38.7971    9.1131 C   0  0  0  0  0  0  0  0  0  0  0  0
   13.7996   38.0976   11.3821 C   0  0  0  0  0  0  0  0  0  0  0  0
   13.5692   36.5141    9.4397 C   0  0  0  0  0  0  0  0  0  0  0  0
   13.7366   36.2068    7.9810 C   0  0  0  0  0  0  0  0  0  0  0  0
   12.3687   36.1124    7.2836 C   0  0  0  0  0  0  0  0  0  0  0  0
   11.9234   34.6685    7.0207 C   0  0  0  0  0  0  0  0  0  0  0  0
   13.8836   33.7036    7.4436 C   0  0  0  0  0  0  0  0  0  0  0  0
   14.6528   34.9875    7.7779 C   0  0  0  0  0  0  0  0  0  0  0  0
   14.4084   41.1845    8.4219 C   0  0  0  0  0  0  0  0  0  0  0  0
   14.2302   42.7312    6.6361 C   0  0  0  0  0  0  0  0  0  0  0  0
   16.2239   42.6668    7.9111 C   0  0  0  0  0  0  0  0  0  0  0  0
   15.6994   41.6464    8.7008 C   0  0  0  0  0  0  0  0  0  0  0  0
   13.8494   44.3256    4.6746 C   0  0  0  0  0  0  0  0  0  0  0  0
   15.4495   45.9072    3.9232 C   0  0  0  0  0  0  0  0  0  0  0  0
   14.5655   46.3305    2.9297 C   0  0  0  0  0  0  0  0  0  0  0  0
   12.9674   44.7516    3.6792 C   0  0  0  0  0  0  0  0  0  0  0  0
   13.9966   37.7766    9.9712 N   0  0  0  0  0  0  0  0  0  0  0  0
   13.7048   41.7359    7.3983 N   0  0  0  0  0  0  0  0  0  0  0  0
   15.4850   43.1888    6.8982 N   0  0  0  0  0  0  0  0  0  0  0  0
   13.4487   43.2799    5.5680 N   0  0  0  0  0  0  0  0  0  0  0  0
   15.0727   44.9155    4.7726 N   0  0  0  0  0  0  0  0  0  0  0  0
   13.3438   45.7434    2.8294 N   0  0  0  0  0  0  0  0  0  0  0  0
   13.0399   35.6575   10.2001 O   0  0  0  0  0  0  0  0  0  0  0  0
   12.5596   33.7796    7.8990 O   0  0  0  0  0  0  0  0  0  0  0  0
  1  2  1  0
  2  3  1  0
  3  4  1  0
  3 12  1  6
  4 20  1  0
  5 20  1  0
  5  1  1  0
  7  6  1  0
  7  8  1  0
  8  9  1  0
  9 27  1  0
 10 27  1  0
 10 11  1  0
 11  7  1  0
 13 21  2  0
 13 23  1  0
 14 22  2  0
 15 12  2  0
 17 24  2  0
 18 25  2  0
 19 16  2  0
 20  6  1  0
 23 16  1  0
  6 26  2  0
 12 21  1  0
 13 22  1  0
 14 15  1  0
 16 24  1  0
 17 18  1  0
 19 25  1  0
M  END
>  <rmsd>  (57) 
0.240518093

$$$$
Molport-052-050-742 MCULE-8882121640
     RDKit          3D

 23 25  0  0  0  0  0  0  0  0999 V2000
   14.3590   41.1404    8.4340 C   0  0  0  0  0  0  0  0  0  0  0  0
   13.7177   40.0519    9.2287 C   0  0  2  0  0  0  0  0  0  0  0  0
   13.5820   40.4625   10.6964 C   0  0  0  0  0  0  0  0  0  0  0  0
   12.9231   39.3452   11.5026 C   0  0  0  0  0  0  0  0  0  0  0  0
   13.7428   38.0641   11.3837 C   0  0  0  0  0  0  0  0  0  0  0  0
   13.5295   36.4649    9.4418 C   0  0  0  0  0  0  0  0  0  0  0  0
   12.9411   35.4154   10.3246 C   0  0  0  0  0  0  0  0  0  0  0  0
   14.5159   38.7542    9.1041 C   0  0  0  0  0  0  0  0  0  0  0  0
   16.2071   42.5514    8.0070 C   0  0  0  0  0  0  0  0  0  0  0  0
   17.5837   42.9983    8.3431 C   0  0  0  0  0  0  0  0  0  0  0  0
   15.5193   43.1469    6.9519 C   0  0  0  0  0  0  0  0  0  0  0  0
   14.2246   42.7050    6.6588 C   0  0  0  0  0  0  0  0  0  0  0  0
   13.8718   44.3176    4.7012 C   0  0  0  0  0  0  0  0  0  0  0  0
   14.0748   46.0404    2.9554 C   0  0  0  0  0  0  0  0  0  0  0  0
   15.1868   45.8868    3.7846 C   0  0  0  0  0  0  0  0  0  0  0  0
   13.9309   37.7365    9.9726 N   0  0  0  0  0  0  0  0  0  0  0  0
   15.6191   41.5625    8.7276 N   0  0  0  0  0  0  0  0  0  0  0  0
   13.4579   43.2714    5.5880 N   0  0  0  0  0  0  0  0  0  0  0  0
   15.0702   44.9331    4.7485 N   0  0  0  0  0  0  0  0  0  0  0  0
   13.6758   41.7118    7.4074 N   0  0  0  0  0  0  0  0  0  0  0  0
   13.9600   34.6272   10.8585 O   0  0  0  0  0  0  0  0  0  0  0  0
   13.6979   36.2070    8.2199 O   0  0  0  0  0  0  0  0  0  0  0  0
   12.9181   44.9283    3.4709 S   0  0  0  0  0  0  0  0  0  0  0  0
  1 20  2  0
  2  1  1  6
  2  3  1  0
  3  4  1  0
  4  5  1  0
  5 16  1  0
  7  6  1  0
  7 21  1  0
  8 16  1  0
  8  2  1  0
  9 17  2  0
 10  9  1  0
 11 12  2  0
 12 18  1  0
 13 23  1  0
 14 23  1  0
 15 19  1  0
 16  6  1  0
 18 13  1  0
  1 17  1  0
  6 22  2  0
  9 11  1  0
 12 20  1  0
 13 19  2  0
 14 15  2  0
M  END
>  <rmsd>  (58) 
0.240076661

$$$$
MolPort-020-295-087 MCULE-2160186047 PubChem-110267185
     RDKit          3D

 30 33  0  0  0  0  0  0  0  0999 V2000
   11.1630   45.7028    1.5567 C   0  0  0  0  0  0  0  0  0  0  0  0
   13.3633   45.7702    2.8124 C   0  0  0  0  0  0  0  0  0  0  0  0
   15.4469   45.9056    3.9240 C   0  0  0  0  0  0  0  0  0  0  0  0
   13.8501   44.3271    4.6731 C   0  0  0  0  0  0  0  0  0  0  0  0
   12.9650   44.7482    3.6813 C   0  0  0  0  0  0  0  0  0  0  0  0
   14.2299   42.7314    6.6345 C   0  0  0  0  0  0  0  0  0  0  0  0
   16.2230   42.6649    7.9105 C   0  0  0  0  0  0  0  0  0  0  0  0
   15.6971   41.6449    8.6998 C   0  0  0  0  0  0  0  0  0  0  0  0
   14.4059   41.1843    8.4201 C   0  0  0  0  0  0  0  0  0  0  0  0
   13.7826   40.0911    9.2280 C   0  0  2  0  0  0  0  0  0  0  0  0
   13.6343   40.5038   10.6949 C   0  0  0  0  0  0  0  0  0  0  0  0
   12.9867   39.3806   11.5014 C   0  0  0  0  0  0  0  0  0  0  0  0
   13.8231   38.1110   11.3829 C   0  0  0  0  0  0  0  0  0  0  0  0
   14.5820   38.7924    9.1042 C   0  0  0  0  0  0  0  0  0  0  0  0
   13.7588   36.4478    9.4662 C   0  0  0  0  0  0  0  0  0  0  0  0
   12.8096   35.5113   10.1131 C   0  0  0  0  0  0  0  0  0  0  0  0
   11.8185   35.9696   10.9946 C   0  0  0  0  0  0  0  0  0  0  0  0
   10.9135   35.0759   11.5742 C   0  0  0  0  0  0  0  0  0  0  0  0
   10.9865   33.7142   11.2716 C   0  0  0  0  0  0  0  0  0  0  0  0
   11.9604   33.2475   10.3856 C   0  0  0  0  0  0  0  0  0  0  0  0
   12.8649   34.1425    9.8069 C   0  0  0  0  0  0  0  0  0  0  0  0
   12.4961   46.2407    1.7778 N   0  0  0  0  0  0  0  0  0  0  0  0
   14.5951   46.3262    2.9529 N   0  0  0  0  0  0  0  0  0  0  0  0
   15.0733   44.9144    4.7742 N   0  0  0  0  0  0  0  0  0  0  0  0
   13.4494   43.2812    5.5663 N   0  0  0  0  0  0  0  0  0  0  0  0
   15.4850   43.1878    6.8975 N   0  0  0  0  0  0  0  0  0  0  0  0
   13.7032   41.7364    7.3962 N   0  0  0  0  0  0  0  0  0  0  0  0
   13.9967   37.7741    9.9719 N   0  0  0  0  0  0  0  0  0  0  0  0
   14.3703   36.0698    8.4290 O   0  0  0  0  0  0  0  0  0  0  0  0
   10.1102   32.8474   11.8332 F   0  0  0  0  0  0  0  0  0  0  0  0
  1 22  1  0
  3 23  2  0
  4 24  2  0
  4 25  1  0
  5  2  2  0
  6 27  2  0
  7 26  2  0
  8  9  2  0
 10  9  1  6
 10 11  1  0
 11 12  1  0
 12 13  1  0
 13 28  1  0
 14 28  1  0
 14 10  1  0
 15 16  1  0
 17 18  2  0
 19 20  2  0
 19 30  1  0
 21 16  2  0
 22  2  1  0
 25  6  1  0
 28 15  1  0
  2 23  1  0
  3 24  1  0
  4  5  1  0
  6 26  1  0
  7  8  1  0
  9 27  1  0
 15 29  2  0
 16 17  1  0
 18 19  1  0
 20 21  1  0
M  END
>  <rmsd>  (59) 
0.24086526

$$$$
Molport-052-054-344 MCULE-5428378396 PubChem-110095880
     RDKit          3D

 25 27  0  0  0  0  0  0  0  0999 V2000
   17.5993   42.9622    8.3125 C   0  0  0  0  0  0  0  0  0  0  0  0
   16.2154   42.5294    7.9877 C   0  0  0  0  0  0  0  0  0  0  0  0
   15.5264   43.1297    6.9362 C   0  0  0  0  0  0  0  0  0  0  0  0
   14.2250   42.7009    6.6535 C   0  0  0  0  0  0  0  0  0  0  0  0
   14.3553   41.1396    8.4319 C   0  0  0  0  0  0  0  0  0  0  0  0
   13.7084   40.0597    9.2336 C   0  0  2  0  0  0  0  0  0  0  0  0
   13.5957   40.4708   10.7030 C   0  0  0  0  0  0  0  0  0  0  0  0
   12.9317   39.3619   11.5167 C   0  0  0  0  0  0  0  0  0  0  0  0
   13.7321   38.0696   11.3868 C   0  0  0  0  0  0  0  0  0  0  0  0
   14.4878   38.7517    9.0992 C   0  0  0  0  0  0  0  0  0  0  0  0
   13.4665   36.4723    9.4609 C   0  0  0  0  0  0  0  0  0  0  0  0
   13.6349   36.1290    8.0162 C   0  0  0  0  0  0  0  0  0  0  0  0
   14.7688   34.1327    7.5884 C   0  0  0  0  0  0  0  0  0  0  0  0
   13.8731   44.3181    4.7000 C   0  0  0  0  0  0  0  0  0  0  0  0
   15.1792   45.8868    3.7859 C   0  0  0  0  0  0  0  0  0  0  0  0
   14.0736   46.0484    2.9512 C   0  0  0  0  0  0  0  0  0  0  0  0
   16.4094   46.7070    3.6369 C   0  0  0  0  0  0  0  0  0  0  0  0
   13.6710   41.7154    7.4083 N   0  0  0  0  0  0  0  0  0  0  0  0
   15.6221   41.5485    8.7151 N   0  0  0  0  0  0  0  0  0  0  0  0
   13.8986   37.7410    9.9737 N   0  0  0  0  0  0  0  0  0  0  0  0
   14.9525   35.5586    7.7935 N   0  0  0  0  0  0  0  0  0  0  0  0
   13.4571   43.2722    5.5861 N   0  0  0  0  0  0  0  0  0  0  0  0
   15.0713   44.9343    4.7507 N   0  0  0  0  0  0  0  0  0  0  0  0
   12.9609   35.6156   10.2343 O   0  0  0  0  0  0  0  0  0  0  0  0
   12.9205   44.9323    3.4683 S   0  0  0  0  0  0  0  0  0  0  0  0
  1  2  1  0
  2 19  2  0
  3  4  2  0
  4 22  1  0
  5 18  2  0
  6  5  1  6
  6  7  1  0
  7  8  1  0
  8  9  1  0
  9 20  1  0
 10 20  1  0
 10  6  1  0
 12 11  1  0
 12 21  1  0
 13 21  1  0
 14 25  1  0
 15 23  1  0
 16 25  1  0
 17 15  1  0
 20 11  1  0
 22 14  1  0
  2  3  1  0
  4 18  1  0
  5 19  1  0
 11 24  2  0
 14 23  2  0
 15 16  2  0
M  END
>  <rmsd>  (60) 
0.23913753

$$$$
MolPort-019-935-278 67896675 CSSS00159302457 MCULE-6991765842 PubChem-56774740 ZINC000067896675 ZINC67896675
     RDKit          3D

 35 38  0  0  0  0  0  0  0  0999 V2000
   13.4672   39.2270   11.3990 C   0  0  0  0  0  0  0  0  0  0  0  0
   14.2937   36.9116   10.9876 C   0  0  0  0  0  0  0  0  0  0  0  0
   15.5622   37.0376   11.6115 C   0  0  0  0  0  0  0  0  0  0  0  0
   16.2061   38.3642   11.8850 C   0  0  0  0  0  0  0  0  0  0  0  0
   16.5959   39.3729    9.5964 C   0  0  2  0  0  0  0  0  0  0  0  0
   17.5210   39.1373    8.3832 C   0  0  0  0  0  0  0  0  0  0  0  0
   19.1177   37.9671    9.4612 C   0  0  0  0  0  0  0  0  0  0  0  0
   18.4461   38.1551   10.7845 C   0  0  0  0  0  0  0  0  0  0  0  0
   16.4433   40.8867    9.8110 C   0  0  1  0  0  0  0  0  0  0  0  0
   15.6639   41.5225    8.7013 C   0  0  0  0  0  0  0  0  0  0  0  0
   16.2782   42.4879    7.8984 C   0  0  0  0  0  0  0  0  0  0  0  0
   15.5677   43.0873    6.8547 C   0  0  0  0  0  0  0  0  0  0  0  0
   14.2340   42.7288    6.6043 C   0  0  0  0  0  0  0  0  0  0  0  0
   13.9100   44.3596    4.6486 C   0  0  0  0  0  0  0  0  0  0  0  0
   13.0162   44.8172    3.5692 C   0  0  0  0  0  0  0  0  0  0  0  0
   13.4240   45.8368    2.6954 C   0  0  0  0  0  0  0  0  0  0  0  0
   12.5784   46.2674    1.6696 C   0  0  0  0  0  0  0  0  0  0  0  0
   11.3180   45.6812    1.5082 C   0  0  0  0  0  0  0  0  0  0  0  0
   10.9038   44.6640    2.3732 C   0  0  0  0  0  0  0  0  0  0  0  0
   11.7502   44.2332    3.3991 C   0  0  0  0  0  0  0  0  0  0  0  0
   10.4485   46.1334    0.4600 C   0  0  0  0  0  0  0  0  0  0  0  0
   13.6235   41.7604    7.4085 C   0  0  0  0  0  0  0  0  0  0  0  0
   14.3317   41.1601    8.4535 C   0  0  0  0  0  0  0  0  0  0  0  0
   16.3055   35.8850   11.8980 C   0  0  0  0  0  0  0  0  0  0  0  0
   15.8172   34.6203   11.5652 C   0  0  0  0  0  0  0  0  0  0  0  0
   14.5830   34.4964   10.9288 C   0  0  0  0  0  0  0  0  0  0  0  0
   13.8299   35.6359   10.6413 C   0  0  0  0  0  0  0  0  0  0  0  0
   13.4591   37.9972   10.6887 O   0  0  0  0  0  0  0  0  0  0  0  0
   18.1404   37.8772    8.4527 O   0  0  0  0  0  0  0  0  0  0  0  0
   19.0211   37.8045   11.8496 O   0  0  0  0  0  0  0  0  0  0  0  0
   15.8314   41.1711   11.0338 O   0  0  0  0  0  0  0  0  0  0  0  0
   15.0452   44.8927    4.7882 O   0  0  0  0  0  0  0  0  0  0  0  0
   17.1254   38.7178   10.8051 N   0  0  0  0  0  0  0  0  0  0  0  0
   13.4768   43.3183    5.5383 N   0  0  0  0  0  0  0  0  0  0  0  0
    9.7498   46.5029   -0.3862 N   0  0  0  0  0  0  0  0  0  0  0  0
  1 28  1  0
  2 28  1  0
  3 24  2  0
  4  3  1  0
  4 33  1  0
  5 33  1  0
  5  6  1  6
  5  9  1  0
  6 29  1  0
  7 29  1  0
  7  8  1  0
  8 33  1  0
  9 31  1  1
  9 10  1  0
 11 12  2  0
 13 34  1  0
 13 22  2  0
 14 15  1  0
 16 17  2  0
 18 19  2  0
 18 21  1  0
 20 15  2  0
 23 10  2  0
 25 26  2  0
 27  2  2  0
 34 14  1  0
  2  3  1  0
  8 30  2  0
 10 11  1  0
 12 13  1  0
 14 32  2  0
 15 16  1  0
 17 18  1  0
 19 20  1  0
 22 23  1  0
 24 25  1  0
 26 27  1  0
 21 35  3  0
M  END
>  <rmsd>  (61) 
0.234799191

$$$$
MolPort-035-706-969 CSSS03437789224 MCULE-8319903994 PubChem-91938294
     RDKit          3D

 23 25  0  0  0  0  0  0  0  0999 V2000
   13.5535   35.4575    7.9296 C   0  0  0  0  0  0  0  0  0  0  0  0
   14.8364   36.2507    7.7608 C   0  0  0  0  0  0  0  0  0  0  0  0
   14.6018   37.8332    9.6508 C   0  0  0  0  0  0  0  0  0  0  0  0
   14.4174   39.2512   10.1190 C   0  0  1  0  0  0  0  0  0  0  0  0
   13.4982   39.2824   11.3319 C   0  0  0  0  0  0  0  0  0  0  0  0
   14.3593   41.0610    8.3716 C   0  0  0  0  0  0  0  0  0  0  0  0
   13.6598   41.6640    7.3220 C   0  0  0  0  0  0  0  0  0  0  0  0
   14.2273   42.7246    6.6070 C   0  0  0  0  0  0  0  0  0  0  0  0
   13.8946   44.3920    4.6865 C   0  0  0  0  0  0  0  0  0  0  0  0
   12.9698   44.8911    3.6243 C   0  0  0  0  0  0  0  0  0  0  0  0
   12.6996   46.3712    3.8266 C   0  0  0  0  0  0  0  0  0  0  0  0
   11.6653   45.3529    4.2483 C   0  0  0  0  0  0  0  0  0  0  0  0
   15.5074   43.1815    6.9572 C   0  0  0  0  0  0  0  0  0  0  0  0
   16.2087   42.5832    8.0079 C   0  0  0  0  0  0  0  0  0  0  0  0
   15.6339   41.5234    8.7130 C   0  0  0  0  0  0  0  0  0  0  0  0
   15.7651   39.8232   10.5110 C   0  0  0  0  0  0  0  0  0  0  0  0
   14.6776   37.5660    8.2795 O   0  0  0  0  0  0  0  0  0  0  0  0
   14.7500   36.9007   10.4897 O   0  0  0  0  0  0  0  0  0  0  0  0
   13.7762   40.0015    9.0750 O   0  0  0  0  0  0  0  0  0  0  0  0
   15.0472   44.8918    4.7906 O   0  0  0  0  0  0  0  0  0  0  0  0
   16.4078   39.3226   11.4730 O   0  0  0  0  0  0  0  0  0  0  0  0
   13.4757   43.3161    5.5386 N   0  0  0  0  0  0  0  0  0  0  0  0
   16.3354   40.9159    9.7911 N   0  0  0  0  0  0  0  0  0  0  0  0
  1  2  1  0
  2 17  1  0
  3 17  1  0
  4  3  1  0
  4  5  1  1
  4 19  1  0
  4 16  1  0
  6 19  1  0
  7  8  2  0
  8 22  1  0
 10  9  1  0
 10 11  1  0
 11 12  1  0
 12 10  1  0
 13 14  2  0
 15 23  1  0
 15  6  2  0
 22  9  1  0
 23 16  1  0
  3 18  2  0
  6  7  1  0
  8 13  1  0
  9 20  2  0
 14 15  1  0
 16 21  2  0
M  END
>  <rmsd>  (62) 
0.231010497

$$$$
MolPort-002-470-510 CSC000733563 CSSS00000733563 MCULE-4803620098 PubChem-7131767 Z139720794 ZINC04219081
     RDKit          3D

 19 19  0  0  0  0  0  0  0  0999 V2000
   12.6789   39.0046   11.7127 C   0  0  0  0  0  0  0  0  0  0  0  0
   14.0778   39.2908   11.2100 C   0  0  0  0  0  0  0  0  0  0  0  0
   15.1526   40.5971    9.4215 C   0  0  0  0  0  0  0  0  0  0  0  0
   15.0337   41.5185    8.2738 C   0  0  0  0  0  0  0  0  0  0  0  0
   15.9887   42.4402    7.8624 C   0  0  0  0  0  0  0  0  0  0  0  0
   17.3439   42.6355    8.4501 C   0  0  0  0  0  0  0  0  0  0  0  0
   14.3065   42.7596    6.6006 C   0  0  0  0  0  0  0  0  0  0  0  0
   13.8949   44.3680    4.6911 C   0  0  0  0  0  0  0  0  0  0  0  0
   12.9644   44.8414    3.6324 C   0  0  0  0  0  0  0  0  0  0  0  0
   13.9347   41.7256    7.4436 C   0  0  0  0  0  0  0  0  0  0  0  0
   12.6671   40.9709    7.3761 C   0  0  0  0  0  0  0  0  0  0  0  0
   14.0088   40.1646   10.0936 O   0  0  0  0  0  0  0  0  0  0  0  0
   16.2940   40.2342    9.8177 O   0  0  0  0  0  0  0  0  0  0  0  0
   15.5265   43.1622    6.8691 O   0  0  0  0  0  0  0  0  0  0  0  0
   15.0390   44.8860    4.7889 O   0  0  0  0  0  0  0  0  0  0  0  0
   11.6442   41.5029    6.8701 O   0  0  0  0  0  0  0  0  0  0  0  0
   13.4895   43.3075    5.5609 N   0  0  0  0  0  0  0  0  0  0  0  0
   12.5963   39.6210    7.8212 N   0  0  0  0  0  0  0  0  0  0  0  0
   13.1437   43.8307    2.1790 Cl  0  0  0  0  0  0  0  0  0  0  0  0
  1  2  1  0
  2 12  1  0
  3 12  1  0
  3  4  1  0
  5 14  1  0
  6  5  1  0
  7 14  1  0
  7 17  1  0
  9  8  1  0
  9 19  1  0
 10 11  1  0
 10  4  1  0
 11 18  1  0
 17  8  1  0
  3 13  2  0
  4  5  2  0
  7 10  2  0
  8 15  2  0
 11 16  2  0
M  END
>  <rmsd>  (63) 
0.198279634

$$$$
MolPort-019-898-526 CSSS00159553217 MCULE-8781269075 PubChem-56756144
     RDKit          3D

 27 29  0  0  0  0  0  0  0  0999 V2000
   11.7489   46.5337    3.5620 C   0  0  0  0  0  0  0  0  0  0  0  0
   13.0836   44.7673    3.4889 C   0  0  1  0  0  0  0  0  0  0  0  0
   13.9385   44.3343    4.6374 C   0  0  0  0  0  0  0  0  0  0  0  0
   14.1928   42.8016    6.6585 C   0  0  0  0  0  0  0  0  0  0  0  0
   15.4438   43.2017    7.0888 C   0  0  0  0  0  0  0  0  0  0  0  0
   15.6706   42.4020    8.2038 C   0  0  0  0  0  0  0  0  0  0  0  0
   12.4264   41.1750    7.3351 C   0  0  0  0  0  0  0  0  0  0  0  0
   11.4666   41.6261    8.4449 C   0  0  0  0  0  0  0  0  0  0  0  0
   11.6818   40.8989    9.7857 C   0  0  0  0  0  0  0  0  0  0  0  0
   12.4793   38.9843   10.8931 C   0  0  0  0  0  0  0  0  0  0  0  0
   13.5028   39.3974   11.9386 C   0  0  0  0  0  0  0  0  0  0  0  0
   14.8944   38.9732   11.5095 C   0  0  0  0  0  0  0  0  0  0  0  0
   12.2520   38.9445    8.5644 C   0  0  0  0  0  0  0  0  0  0  0  0
   12.5865   39.6492    7.2485 C   0  0  0  0  0  0  0  0  0  0  0  0
   12.9410   43.6818    2.4659 C   0  0  0  0  0  0  0  0  0  0  0  0
   13.5534   43.8351    1.2171 C   0  0  0  0  0  0  0  0  0  0  0  0
   13.4336   42.8348    0.2477 C   0  0  0  0  0  0  0  0  0  0  0  0
   12.6999   41.6772    0.5236 C   0  0  0  0  0  0  0  0  0  0  0  0
   12.0851   41.5193    1.7691 C   0  0  0  0  0  0  0  0  0  0  0  0
   12.2042   42.5191    2.7387 C   0  0  0  0  0  0  0  0  0  0  0  0
   11.8308   45.1927    3.9408 O   0  0  0  0  0  0  0  0  0  0  0  0
   15.0637   44.8754    4.8023 O   0  0  0  0  0  0  0  0  0  0  0  0
   15.8193   39.3728   12.4725 O   0  0  0  0  0  0  0  0  0  0  0  0
   13.4723   43.3155    5.5312 N   0  0  0  0  0  0  0  0  0  0  0  0
   14.6123   41.5883    8.4042 N   0  0  0  0  0  0  0  0  0  0  0  0
   13.7228   41.8359    7.4595 N   0  0  0  0  0  0  0  0  0  0  0  0
   12.6334   39.7875    9.6908 N   0  0  0  0  0  0  0  0  0  0  0  0
  1 21  1  0
  2 21  1  1
  2  3  1  0
  2 15  1  0
  3 24  1  0
  5  6  1  0
  7 26  1  0
  7  8  1  0
  8  9  1  0
  9 27  1  0
 10 27  1  0
 10 11  1  0
 11 12  1  0
 12 23  1  0
 13 27  1  0
 13 14  1  0
 14  7  1  0
 16 17  2  0
 18 19  2  0
 20 15  2  0
 24  4  1  0
 26 25  1  0
 26  4  1  0
  3 22  2  0
  4  5  2  0
  6 25  2  0
 15 16  1  0
 17 18  1  0
 19 20  1  0
M  END
>  <rmsd>  (64) 
0.23022674

$$$$
MolPort-001-939-484 100542660 MCULE-9037895478 PubChem-3112361 ZINC000100542660
     RDKit          3D

 21 22  0  0  0  0  0  0  0  0999 V2000
   10.6064   38.9265   10.6483 C   0  0  0  0  0  0  0  0  0  0  0  0
   12.1095   39.0080   10.4898 C   0  0  0  0  0  0  0  0  0  0  0  0
   12.7785   38.5892   11.7851 C   0  0  0  0  0  0  0  0  0  0  0  0
   14.2912   38.6812   11.6578 C   0  0  0  0  0  0  0  0  0  0  0  0
   14.7929   40.0846   11.9799 C   0  0  0  0  0  0  0  0  0  0  0  0
   14.5399   41.0519   10.8338 C   0  0  0  0  0  0  0  0  0  0  0  0
   15.4725   40.7567    9.6719 C   0  0  0  0  0  0  0  0  0  0  0  0
   15.1350   41.6254    8.5113 C   0  0  0  0  0  0  0  0  0  0  0  0
   14.2363   42.7864    6.6237 C   0  0  0  0  0  0  0  0  0  0  0  0
   13.9134   44.3554    4.6504 C   0  0  0  0  0  0  0  0  0  0  0  0
   13.0298   44.8152    3.5645 C   0  0  0  0  0  0  0  0  0  0  0  0
   13.4472   45.8302    2.6903 C   0  0  0  0  0  0  0  0  0  0  0  0
   12.6081   46.2657    1.6604 C   0  0  0  0  0  0  0  0  0  0  0  0
   11.3455   45.6896    1.4969 C   0  0  0  0  0  0  0  0  0  0  0  0
   10.9218   44.6781    2.3630 C   0  0  0  0  0  0  0  0  0  0  0  0
   11.7608   44.2426    3.3929 C   0  0  0  0  0  0  0  0  0  0  0  0
   15.9804   42.5493    8.0047 N   0  0  0  0  0  0  0  0  0  0  0  0
   15.4801   43.1983    6.9548 N   0  0  0  0  0  0  0  0  0  0  0  0
   13.4735   43.3173    5.5360 N   0  0  0  0  0  0  0  0  0  0  0  0
   15.0526   44.8773    4.7956 O   0  0  0  0  0  0  0  0  0  0  0  0
   13.6893   41.5662    7.6440 S   0  0  0  0  0  0  0  0  0  0  0  0
  1  2  1  0
  2  3  1  0
  3  4  1  0
  4  5  1  0
  5  6  1  0
  6  7  1  0
  7  8  1  0
  8 21  1  0
  9 19  1  0
  9 21  1  0
 10 11  1  0
 12 13  2  0
 14 15  2  0
 16 11  2  0
 17 18  1  0
 19 10  1  0
  8 17  2  0
  9 18  2  0
 10 20  2  0
 11 12  1  0
 13 14  1  0
 15 16  1  0
M  END
>  <rmsd>  (65) 
0.229964659

$$$$
Molport-047-648-712 MCULE-6469671298 PubChem-165890704
     RDKit          3D

 20 20  0  0  0  0  0  0  0  0999 V2000
   14.4096   45.5591    1.9018 C   0  0  0  0  0  0  0  0  0  0  0  0
   13.2410   45.9131    2.8053 C   0  0  0  0  0  0  0  0  0  0  0  0
   13.8869   44.3853    4.6858 C   0  0  0  0  0  0  0  0  0  0  0  0
   14.2719   42.7030    6.5827 C   0  0  0  0  0  0  0  0  0  0  0  0
   13.7074   41.6643    7.3307 C   0  0  0  0  0  0  0  0  0  0  0  0
   14.4388   41.0433    8.3488 C   0  0  0  0  0  0  0  0  0  0  0  0
   13.8216   39.9376    9.1390 C   0  0  0  0  0  0  0  0  0  0  0  0
   13.4695   40.3873   10.5518 C   0  0  1  0  0  0  0  0  0  0  0  0
   12.1753   41.1423   10.5701 C   0  0  0  0  0  0  0  0  0  0  0  0
   15.7471   41.4595    8.6197 C   0  0  0  0  0  0  0  0  0  0  0  0
   16.3187   42.4957    7.8772 C   0  0  0  0  0  0  0  0  0  0  0  0
   15.5839   43.1155    6.8628 C   0  0  0  0  0  0  0  0  0  0  0  0
   12.0146   46.1209    1.9423 C   0  0  0  0  0  0  0  0  0  0  0  0
   13.5345   47.2085    3.5424 C   0  0  0  0  0  0  0  0  0  0  0  0
   12.9766   44.8542    3.7289 O   0  0  0  0  0  0  0  0  0  0  0  0
   12.0924   42.3934    9.9726 O   0  0  0  0  0  0  0  0  0  0  0  0
   11.1624   40.6603   11.1426 O   0  0  0  0  0  0  0  0  0  0  0  0
   15.0353   44.8982    4.7827 O   0  0  0  0  0  0  0  0  0  0  0  0
   13.4867   43.3143    5.5499 N   0  0  0  0  0  0  0  0  0  0  0  0
   13.3899   39.2747   11.3706 F   0  0  0  0  0  0  0  0  0  0  0  0
  1  2  1  0
  2 15  1  0
  2 13  1  0
  2 14  1  0
  3 15  1  0
  3 19  1  0
  5  6  2  0
  7  6  1  0
  7  8  1  0
  8  9  1  0
  8 20  1  1
  9 16  1  0
 10 11  2  0
 12  4  2  0
 19  4  1  0
  3 18  2  0
  4  5  1  0
  6 10  1  0
  9 17  2  0
 11 12  1  0
M  END
>  <rmsd>  (66) 
0.234901443

$$$$
MolPort-000-013-327 976380 CSSS03436552884 MCULE-2119931216 PubChem-1206670 ZINC000000976380 ZINC00976380
     RDKit          3D

 33 36  0  0  0  0  0  0  0  0999 V2000
   10.0211   39.2031   13.0085 C   0  0  0  0  0  0  0  0  0  0  0  0
   12.0895   38.9443   11.6808 C   0  0  0  0  0  0  0  0  0  0  0  0
   12.7766   38.2510   10.6777 C   0  0  0  0  0  0  0  0  0  0  0  0
   14.0890   38.6055   10.3473 C   0  0  0  0  0  0  0  0  0  0  0  0
   14.7212   39.6594   11.0175 C   0  0  0  0  0  0  0  0  0  0  0  0
   14.0418   40.3509   12.0268 C   0  0  0  0  0  0  0  0  0  0  0  0
   12.7310   39.9973   12.3563 C   0  0  0  0  0  0  0  0  0  0  0  0
   17.1798   39.6559   11.3620 C   0  0  0  0  0  0  0  0  0  0  0  0
   17.2105   37.0834   11.8801 C   0  0  0  0  0  0  0  0  0  0  0  0
   18.5776   36.6751   11.4273 C   0  0  0  0  0  0  0  0  0  0  0  0
   16.5431   40.7676    9.6745 C   0  0  0  0  0  0  0  0  0  0  0  0
   15.7402   41.4386    8.6257 C   0  0  0  0  0  0  0  0  0  0  0  0
   16.3794   42.2748    7.6984 C   0  0  0  0  0  0  0  0  0  0  0  0
   15.6475   42.9063    6.6893 C   0  0  0  0  0  0  0  0  0  0  0  0
   14.2624   42.7112    6.5918 C   0  0  0  0  0  0  0  0  0  0  0  0
   13.9333   44.3072    4.6151 C   0  0  0  0  0  0  0  0  0  0  0  0
   13.0923   44.6496    3.4546 C   0  0  0  0  0  0  0  0  0  0  0  0
   13.4805   45.6684    2.5696 C   0  0  0  0  0  0  0  0  0  0  0  0
   12.6863   45.9823    1.4624 C   0  0  0  0  0  0  0  0  0  0  0  0
   11.4993   45.2793    1.2312 C   0  0  0  0  0  0  0  0  0  0  0  0
   11.1056   44.2633    2.1070 C   0  0  0  0  0  0  0  0  0  0  0  0
   11.8992   43.9496    3.2146 C   0  0  0  0  0  0  0  0  0  0  0  0
   13.6236   41.8740    7.5112 C   0  0  0  0  0  0  0  0  0  0  0  0
   14.3559   41.2451    8.5211 C   0  0  0  0  0  0  0  0  0  0  0  0
   10.7785   38.5691   11.9873 O   0  0  0  0  0  0  0  0  0  0  0  0
   19.5953   37.3614   11.7159 O   0  0  0  0  0  0  0  0  0  0  0  0
   15.0369   44.8972    4.7863 O   0  0  0  0  0  0  0  0  0  0  0  0
   16.0686   40.0124   10.6917 N   0  0  0  0  0  0  0  0  0  0  0  0
   18.7274   35.4879   10.6586 N   0  0  0  0  0  0  0  0  0  0  0  0
   18.2873   40.1616   10.7889 N   0  0  0  0  0  0  0  0  0  0  0  0
   17.8895   40.8588    9.7344 N   0  0  0  0  0  0  0  0  0  0  0  0
   13.4852   43.3137    5.5495 N   0  0  0  0  0  0  0  0  0  0  0  0
   17.2042   38.6348   12.8356 S   0  0  0  0  0  0  0  0  0  0  0  0
  1 25  1  0
  2 25  1  0
  3  4  2  0
  5  6  2  0
  5 28  1  0
  7  2  2  0
  8 33  1  0
  9 33  1  0
  9 10  1  0
 10 29  1  0
 11 12  1  0
 11 28  1  0
 13 14  2  0
 15 32  1  0
 15 23  2  0
 16 17  1  0
 18 19  2  0
 20 21  2  0
 22 17  2  0
 24 12  2  0
 28  8  1  0
 30 31  1  0
 32 16  1  0
  2  3  1  0
  4  5  1  0
  6  7  1  0
  8 30  2  0
 10 26  2  0
 11 31  2  0
 12 13  1  0
 14 15  1  0
 16 27  2  0
 17 18  1  0
 19 20  1  0
 21 22  1  0
 23 24  1  0
M  END
>  <rmsd>  (67) 
0.233579963

$$$$
MolPort-006-609-946 ChemDiv-V017-8348 MCULE-4030383458 PubChem-46070030 ZINC000034735438 ZINC34735438
     RDKit          3D

 32 35  0  0  0  0  0  0  0  0999 V2000
   10.5511   45.7451    0.3479 F   0  0  0  0  0  0  0  0  0  0  0  0
   11.3566   45.4137    1.3846 C   0  0  0  0  0  0  0  0  0  0  0  0
   12.5525   46.1069    1.5916 C   0  0  0  0  0  0  0  0  0  0  0  0
   13.3862   45.7578    2.6581 C   0  0  0  0  0  0  0  0  0  0  0  0
   13.0278   44.7144    3.5263 C   0  0  0  0  0  0  0  0  0  0  0  0
   11.8265   44.0253    3.3101 C   0  0  0  0  0  0  0  0  0  0  0  0
   10.9940   44.3726    2.2442 C   0  0  0  0  0  0  0  0  0  0  0  0
   13.9146   44.3268    4.6389 C   0  0  0  0  0  0  0  0  0  0  0  0
   14.2524   42.7580    6.6433 C   0  0  0  0  0  0  0  0  0  0  0  0
   13.6532   41.7982    7.4654 C   0  0  0  0  0  0  0  0  0  0  0  0
   14.3581   41.2015    8.5246 C   0  0  0  0  0  0  0  0  0  0  0  0
   15.6842   41.6051    8.7571 C   0  0  0  0  0  0  0  0  0  0  0  0
   16.2921   42.5637    7.9424 C   0  0  0  0  0  0  0  0  0  0  0  0
   15.5800   43.1352    6.8856 C   0  0  0  0  0  0  0  0  0  0  0  0
   14.3899   39.8435   10.6337 C   0  0  0  0  0  0  0  0  0  0  0  0
   13.3575   39.5499   11.7131 C   0  0  0  0  0  0  0  0  0  0  0  0
   12.4774   38.3917   11.2654 C   0  0  0  0  0  0  0  0  0  0  0  0
   10.6325   37.9742    9.6290 C   0  0  0  0  0  0  0  0  0  0  0  0
    9.4576   38.8722    9.8224 C   0  0  0  0  0  0  0  0  0  0  0  0
    8.8465   38.9517   11.0791 C   0  0  0  0  0  0  0  0  0  0  0  0
    7.7498   39.7972   11.2728 C   0  0  0  0  0  0  0  0  0  0  0  0
    7.2645   40.5680   10.2107 C   0  0  0  0  0  0  0  0  0  0  0  0
    7.8822   40.4975    8.9560 C   0  0  0  0  0  0  0  0  0  0  0  0
    8.9798   39.6519    8.7619 C   0  0  0  0  0  0  0  0  0  0  0  0
    6.1404   41.4379   10.4074 C   0  0  0  0  0  0  0  0  0  0  0  0
   12.5449   39.4837    8.9952 C   0  0  0  0  0  0  0  0  0  0  0  0
   15.0357   44.8889    4.7729 O   0  0  0  0  0  0  0  0  0  0  0  0
   12.1072   39.5387    7.8128 O   0  0  0  0  0  0  0  0  0  0  0  0
   13.4898   43.3126    5.5631 N   0  0  0  0  0  0  0  0  0  0  0  0
   13.7356   40.2097    9.3748 N   0  0  0  0  0  0  0  0  0  0  0  0
   11.8631   38.6746    9.9710 N   0  0  0  0  0  0  0  0  0  0  0  0
    5.2371   42.1439   10.5604 N   0  0  0  0  0  0  0  0  0  0  0  0
  2  1  1  0
  3  4  2  0
  5  6  2  0
  5  8  1  0
  7  2  2  0
  8 29  1  0
 10 11  2  0
 11 30  1  0
 12 13  2  0
 14  9  2  0
 15 30  1  0
 15 16  1  0
 16 17  1  0
 17 31  1  0
 18 31  1  0
 18 19  1  0
 20 21  2  0
 22 23  2  0
 22 25  1  0
 24 19  2  0
 26 30  1  0
 29  9  1  0
 31 26  1  0
  2  3  1  0
  4  5  1  0
  6  7  1  0
  8 27  2  0
  9 10  1  0
 11 12  1  0
 13 14  1  0
 19 20  1  0
 21 22  1  0
 23 24  1  0
 26 28  2  0
 25 32  3  0
M  END
>  <rmsd>  (68) 
0.236832902

$$$$
MolPort-001-631-060 4778425 CSSS00121599782 MCULE-7263481753 PubChem-4613212 ZINC000004778425 ZINC04778425
     RDKit          3D

 26 28  0  0  0  0  0  0  0  0999 V2000
   13.1801   38.6375   11.0239 C   0  0  0  0  0  0  0  0  0  0  0  0
   13.8244   39.9289   11.4918 C   0  0  0  0  0  0  0  0  0  0  0  0
   13.8137   40.9604   10.3780 C   0  0  0  0  0  0  0  0  0  0  0  0
   14.8762   40.6335    9.3418 C   0  0  0  0  0  0  0  0  0  0  0  0
   14.2653   42.7740    6.6319 C   0  0  0  0  0  0  0  0  0  0  0  0
   13.9090   44.3464    4.6678 C   0  0  0  0  0  0  0  0  0  0  0  0
   13.0121   44.7977    3.5898 C   0  0  0  0  0  0  0  0  0  0  0  0
   11.7403   44.2277    3.4462 C   0  0  0  0  0  0  0  0  0  0  0  0
   10.8811   44.6402    2.4159 C   0  0  0  0  0  0  0  0  0  0  0  0
    9.0960   43.0407    3.0820 C   0  0  0  0  0  0  0  0  0  0  0  0
    9.7101   41.7287    2.7243 C   0  0  0  0  0  0  0  0  0  0  0  0
    9.4264   41.1303    1.4913 C   0  0  0  0  0  0  0  0  0  0  0  0
   10.0106   39.9046    1.1573 C   0  0  0  0  0  0  0  0  0  0  0  0
   10.8789   39.2760    2.0554 C   0  0  0  0  0  0  0  0  0  0  0  0
   11.1626   39.8725    3.2878 C   0  0  0  0  0  0  0  0  0  0  0  0
   10.5782   41.0979    3.6222 C   0  0  0  0  0  0  0  0  0  0  0  0
   11.3025   45.6361    1.5297 C   0  0  0  0  0  0  0  0  0  0  0  0
   12.5679   46.2129    1.6670 C   0  0  0  0  0  0  0  0  0  0  0  0
   13.4201   45.7949    2.6928 C   0  0  0  0  0  0  0  0  0  0  0  0
   14.8479   41.6163    8.2723 N   0  0  0  0  0  0  0  0  0  0  0  0
   15.8497   42.4307    7.9883 N   0  0  0  0  0  0  0  0  0  0  0  0
   15.5107   43.1812    6.9522 N   0  0  0  0  0  0  0  0  0  0  0  0
   13.4843   43.3057    5.5578 N   0  0  0  0  0  0  0  0  0  0  0  0
   13.8327   41.7929    7.4439 N   0  0  0  0  0  0  0  0  0  0  0  0
   15.0469   44.8746    4.8005 O   0  0  0  0  0  0  0  0  0  0  0  0
    9.6089   44.0803    2.2523 O   0  0  0  0  0  0  0  0  0  0  0  0
  1  2  1  0
  2  3  1  0
  3  4  1  0
  4 20  1  0
  5 22  1  0
  5 23  1  0
  6  7  1  0
  8  9  2  0
  9 26  1  0
 10 26  1  0
 10 11  1  0
 12 13  2  0
 14 15  2  0
 16 11  2  0
 17 18  2  0
 19  7  2  0
 20 21  1  0
 20 24  1  0
 23  6  1  0
  5 24  2  0
  6 25  2  0
  7  8  1  0
  9 17  1  0
 11 12  1  0
 13 14  1  0
 15 16  1  0
 18 19  1  0
 21 22  2  0
M  END
>  <rmsd>  (69) 
0.162405491

$$$$
MolPort-001-806-469 CSSS00104793216 MCULE-5388989386 PubChem-2809596 ZINC000000118054 ZINC00118054
     RDKit          3D

 23 25  0  0  0  0  0  0  0  0999 V2000
   17.7406   41.2974   10.0773 C   0  0  0  0  0  0  0  0  0  0  0  0
   15.6833   41.5210    8.7117 C   0  0  0  0  0  0  0  0  0  0  0  0
   16.2544   42.5567    7.9539 C   0  0  0  0  0  0  0  0  0  0  0  0
   15.5427   43.1558    6.9149 C   0  0  0  0  0  0  0  0  0  0  0  0
   14.2457   42.7291    6.6102 C   0  0  0  0  0  0  0  0  0  0  0  0
   13.9001   44.3733    4.6714 C   0  0  0  0  0  0  0  0  0  0  0  0
   12.9728   44.8709    3.6136 C   0  0  0  0  0  0  0  0  0  0  0  0
   12.6593   43.7524    2.6092 C   0  0  0  0  0  0  0  0  0  0  0  0
   11.3579   44.0371    1.8662 C   0  0  0  0  0  0  0  0  0  0  0  0
   10.1633   44.1045    2.8284 C   0  0  0  0  0  0  0  0  0  0  0  0
   10.5399   44.5441    4.2497 C   0  0  0  0  0  0  0  0  0  0  0  0
   11.7221   45.5110    4.2389 C   0  0  0  0  0  0  0  0  0  0  0  0
   13.6710   41.7024    7.3626 C   0  0  0  0  0  0  0  0  0  0  0  0
   14.3652   41.0950    8.4150 C   0  0  0  0  0  0  0  0  0  0  0  0
   14.1417   39.5104   10.3449 C   0  0  0  0  0  0  0  0  0  0  0  0
   13.7959   40.4373   11.5014 C   0  0  0  0  0  0  0  0  0  0  0  0
   12.8091   39.6935   12.3768 C   0  0  0  0  0  0  0  0  0  0  0  0
   12.9966   38.2323   12.0467 C   0  0  0  0  0  0  0  0  0  0  0  0
   13.4061   38.2081   10.5927 C   0  0  0  0  0  0  0  0  0  0  0  0
   16.4159   40.9110    9.7365 O   0  0  0  0  0  0  0  0  0  0  0  0
   15.0413   44.8951    4.7788 O   0  0  0  0  0  0  0  0  0  0  0  0
   13.7021   40.0754    9.1156 O   0  0  0  0  0  0  0  0  0  0  0  0
   13.4825   43.3155    5.5474 N   0  0  0  0  0  0  0  0  0  0  0  0
  1 20  1  0
  2 20  1  0
  3  4  2  0
  5 23  1  0
  5 13  2  0
  7  6  1  0
  7  8  1  0
  8  9  1  0
  9 10  1  0
 10 11  1  0
 11 12  1  0
 12  7  1  0
 14 22  1  0
 14  2  2  0
 15 22  1  0
 15 16  1  0
 16 17  1  0
 17 18  1  0
 18 19  1  0
 19 15  1  0
 23  6  1  0
  2  3  1  0
  4  5  1  0
  6 21  2  0
 13 14  1  0
M  END
>  <rmsd>  (70) 
0.231568411

$$$$
MolPort-003-112-226 8959242 CSSS03437111492 IFPSXIOGDDLVEH-UHFFFAOYSA-N MCULE-9135975262 PubChem-40887138 ZINC000008959242 ZINC08959242
     RDKit          3D

 34 36  0  0  0  0  0  0  0  0999 V2000
    9.1055   43.0819    3.2224 C   0  0  0  0  0  0  0  0  0  0  0  0
   10.8203   44.7146    2.4843 C   0  0  0  0  0  0  0  0  0  0  0  0
   11.7102   44.2758    3.4777 C   0  0  0  0  0  0  0  0  0  0  0  0
   12.9785   44.8440    3.6161 C   0  0  0  0  0  0  0  0  0  0  0  0
   13.3629   45.8673    2.7469 C   0  0  0  0  0  0  0  0  0  0  0  0
   12.4946   46.3254    1.7456 C   0  0  0  0  0  0  0  0  0  0  0  0
   14.1508   47.9840    0.9433 C   0  0  0  0  0  0  0  0  0  0  0  0
   11.2180   45.7545    1.6057 C   0  0  0  0  0  0  0  0  0  0  0  0
    9.0810   45.8040    0.2954 C   0  0  0  0  0  0  0  0  0  0  0  0
   13.8975   44.3695    4.6657 C   0  0  0  0  0  0  0  0  0  0  0  0
   14.2488   42.7372    6.6156 C   0  0  0  0  0  0  0  0  0  0  0  0
   15.5529   43.1546    6.9054 C   0  0  0  0  0  0  0  0  0  0  0  0
   16.2886   42.5749    7.9448 C   0  0  0  0  0  0  0  0  0  0  0  0
   15.6890   41.5652    8.7430 C   0  0  0  0  0  0  0  0  0  0  0  0
   14.3892   41.1409    8.4261 C   0  0  0  0  0  0  0  0  0  0  0  0
   13.6777   41.7173    7.3745 C   0  0  0  0  0  0  0  0  0  0  0  0
   16.1920   39.5581   10.1670 C   0  0  0  0  0  0  0  0  0  0  0  0
   15.3415   39.3080   11.4104 C   0  0  0  0  0  0  0  0  0  0  0  0
   13.8678   39.5668   11.1491 C   0  0  0  0  0  0  0  0  0  0  0  0
   13.2658   38.4146   10.3678 C   0  0  0  0  0  0  0  0  0  0  0  0
   13.1422   39.7038   12.4705 C   0  0  0  0  0  0  0  0  0  0  0  0
   17.0731   41.8069   10.8184 C   0  0  0  0  0  0  0  0  0  0  0  0
   18.2981   42.5688   10.4008 C   0  0  0  0  0  0  0  0  0  0  0  0
   18.1307   44.0473   10.7160 C   0  0  0  0  0  0  0  0  0  0  0  0
   19.4939   42.0458   11.1738 C   0  0  0  0  0  0  0  0  0  0  0  0
   18.5852   42.3790    8.9184 C   0  0  0  0  0  0  0  0  0  0  0  0
    9.5554   44.1264    2.3693 O   0  0  0  0  0  0  0  0  0  0  0  0
   12.8801   47.3509    0.8745 O   0  0  0  0  0  0  0  0  0  0  0  0
   10.3955   46.2583    0.5838 O   0  0  0  0  0  0  0  0  0  0  0  0
   15.0398   44.8918    4.7795 O   0  0  0  0  0  0  0  0  0  0  0  0
   16.7030   41.8502   12.0241 O   0  0  0  0  0  0  0  0  0  0  0  0
   17.6066   43.0171    8.1071 O   0  0  0  0  0  0  0  0  0  0  0  0
   13.4838   43.3163    5.5500 N   0  0  0  0  0  0  0  0  0  0  0  0
   16.3471   40.9875    9.8872 N   0  0  0  0  0  0  0  0  0  0  0  0
  1 27  1  0
  2 27  1  0
  3  4  2  0
  4 10  1  0
  5  6  2  0
  6 28  1  0
  7 28  1  0
  8 29  1  0
  8  2  2  0
  9 29  1  0
 10 33  1  0
 12 13  2  0
 13 32  1  0
 14 15  2  0
 14 34  1  0
 16 11  2  0
 17 34  1  0
 17 18  1  0
 18 19  1  0
 19 20  1  0
 19 21  1  0
 23 22  1  0
 23 24  1  0
 23 25  1  0
 23 26  1  0
 26 32  1  0
 33 11  1  0
 34 22  1  0
  2  3  1  0
  4  5  1  0
  6  8  1  0
 10 30  2  0
 11 12  1  0
 13 14  1  0
 15 16  1  0
 22 31  2  0
M  END
>  <rmsd>  (71) 
0.231041625

$$$$
MolPort-035-706-978 CSSS03437789233 MCULE-4120249812 PubChem-91938303
     RDKit          3D

 28 30  0  0  0  0  0  0  0  0999 V2000
   14.7729   36.3594    6.2220 C   0  0  0  0  0  0  0  0  0  0  0  0
   14.7875   36.3013    7.7349 C   0  0  0  0  0  0  0  0  0  0  0  0
   14.5740   37.8546    9.6335 C   0  0  0  0  0  0  0  0  0  0  0  0
   14.4011   39.2650   10.1284 C   0  0  1  0  0  0  0  0  0  0  0  0
   13.4978   39.2786   11.3535 C   0  0  0  0  0  0  0  0  0  0  0  0
   14.3471   41.0748    8.3820 C   0  0  0  0  0  0  0  0  0  0  0  0
   13.6459   41.6826    7.3363 C   0  0  0  0  0  0  0  0  0  0  0  0
   14.2272   42.7221    6.6015 C   0  0  0  0  0  0  0  0  0  0  0  0
   13.8999   44.3809    4.6694 C   0  0  0  0  0  0  0  0  0  0  0  0
   12.9880   44.8800    3.6250 C   0  0  0  0  0  0  0  0  0  0  0  0
   13.3864   45.9172    2.7698 C   0  0  0  0  0  0  0  0  0  0  0  0
   12.5200   46.3898    1.7806 C   0  0  0  0  0  0  0  0  0  0  0  0
   11.2484   45.8284    1.6384 C   0  0  0  0  0  0  0  0  0  0  0  0
   10.8353   44.7933    2.4828 C   0  0  0  0  0  0  0  0  0  0  0  0
    9.0601   43.1951    3.1244 C   0  0  0  0  0  0  0  0  0  0  0  0
   11.7102   44.3229    3.4757 C   0  0  0  0  0  0  0  0  0  0  0  0
   15.5230   43.1523    6.9274 C   0  0  0  0  0  0  0  0  0  0  0  0
   16.2256   42.5497    7.9746 C   0  0  0  0  0  0  0  0  0  0  0  0
   15.6368   41.5113    8.6999 C   0  0  0  0  0  0  0  0  0  0  0  0
   15.7564   39.8252   10.5119 C   0  0  0  0  0  0  0  0  0  0  0  0
   14.5999   37.6068    8.2589 O   0  0  0  0  0  0  0  0  0  0  0  0
   14.7508   36.9100   10.4534 O   0  0  0  0  0  0  0  0  0  0  0  0
   13.7502   40.0372    9.1066 O   0  0  0  0  0  0  0  0  0  0  0  0
   15.0466   44.8908    4.7938 O   0  0  0  0  0  0  0  0  0  0  0  0
    9.5578   44.2522    2.3154 O   0  0  0  0  0  0  0  0  0  0  0  0
   16.3980   39.3240   11.4742 O   0  0  0  0  0  0  0  0  0  0  0  0
   13.4749   43.3170    5.5354 N   0  0  0  0  0  0  0  0  0  0  0  0
   16.3384   40.9018    9.7770 N   0  0  0  0  0  0  0  0  0  0  0  0
  1  2  1  0
  2 21  1  0
  3 21  1  0
  4  3  1  0
  4  5  1  1
  4 23  1  0
  4 20  1  0
  6 23  1  0
  7  8  2  0
  8 27  1  0
  9 10  1  0
 11 12  2  0
 13 14  2  0
 14 25  1  0
 15 25  1  0
 16 10  2  0
 17 18  2  0
 19 28  1  0
 19  6  2  0
 27  9  1  0
 28 20  1  0
  3 22  2  0
  6  7  1  0
  8 17  1  0
  9 24  2  0
 10 11  1  0
 12 13  1  0
 14 16  1  0
 18 19  1  0
 20 26  2  0
M  END
>  <rmsd>  (72) 
0.231176063

$$$$
MolPort-035-706-961 CSSS03437789215 MCULE-9876989215 PubChem-91938286
     RDKit          3D

 29 31  0  0  0  0  0  0  0  0999 V2000
   16.0665   36.2558    6.9024 C   0  0  0  0  0  0  0  0  0  0  0  0
   14.8162   36.2770    7.7563 C   0  0  0  0  0  0  0  0  0  0  0  0
   14.5732   37.8421    9.6427 C   0  0  0  0  0  0  0  0  0  0  0  0
   14.4014   39.2566   10.1259 C   0  0  1  0  0  0  0  0  0  0  0  0
   13.4937   39.2817   11.3475 C   0  0  0  0  0  0  0  0  0  0  0  0
   14.3494   41.0652    8.3778 C   0  0  0  0  0  0  0  0  0  0  0  0
   13.6491   41.6733    7.3317 C   0  0  0  0  0  0  0  0  0  0  0  0
   14.2276   42.7186    6.6032 C   0  0  0  0  0  0  0  0  0  0  0  0
   13.9018   44.3829    4.6814 C   0  0  0  0  0  0  0  0  0  0  0  0
   12.9675   44.9063    3.6451 C   0  0  0  0  0  0  0  0  0  0  0  0
   11.9099   46.8248    4.8195 C   0  0  0  0  0  0  0  0  0  0  0  0
   13.0764   47.6049    4.7574 C   0  0  0  0  0  0  0  0  0  0  0  0
   13.1019   48.8814    5.3260 C   0  0  0  0  0  0  0  0  0  0  0  0
   14.3400   49.7000    5.2584 C   0  0  0  0  0  0  0  0  0  0  0  0
   11.9626   49.3872    5.9581 C   0  0  0  0  0  0  0  0  0  0  0  0
   10.7983   48.6165    6.0210 C   0  0  0  0  0  0  0  0  0  0  0  0
   10.7731   47.3391    5.4526 C   0  0  0  0  0  0  0  0  0  0  0  0
   15.5197   43.1549    6.9360 C   0  0  0  0  0  0  0  0  0  0  0  0
   16.2215   42.5516    7.9833 C   0  0  0  0  0  0  0  0  0  0  0  0
   15.6356   41.5072    8.7024 C   0  0  0  0  0  0  0  0  0  0  0  0
   15.7564   39.8166   10.5098 C   0  0  0  0  0  0  0  0  0  0  0  0
   14.6158   37.5850    8.2700 O   0  0  0  0  0  0  0  0  0  0  0  0
   14.7356   36.9023   10.4708 O   0  0  0  0  0  0  0  0  0  0  0  0
   13.7554   40.0213    9.0954 O   0  0  0  0  0  0  0  0  0  0  0  0
   15.0481   44.8924    4.7916 O   0  0  0  0  0  0  0  0  0  0  0  0
   11.8517   45.5434    4.2600 O   0  0  0  0  0  0  0  0  0  0  0  0
   16.3981   39.3140   11.4715 O   0  0  0  0  0  0  0  0  0  0  0  0
   13.4754   43.3159    5.5385 N   0  0  0  0  0  0  0  0  0  0  0  0
   16.3368   40.8965    9.7788 N   0  0  0  0  0  0  0  0  0  0  0  0
  1  2  1  0
  2 22  1  0
  3 22  1  0
  4  3  1  0
  4  5  1  1
  4 24  1  0
  4 21  1  0
  6 24  1  0
  7  8  2  0
  8 28  1  0
 10  9  1  0
 10 26  1  0
 11 26  1  0
 12 13  2  0
 14 13  1  0
 15 16  2  0
 17 11  2  0
 18 19  2  0
 20 29  1  0
 20  6  2  0
 28  9  1  0
 29 21  1  0
  3 23  2  0
  6  7  1  0
  8 18  1  0
  9 25  2  0
 11 12  1  0
 13 15  1  0
 16 17  1  0
 19 20  1  0
 21 27  2  0
M  END
>  <rmsd>  (73) 
0.230725884

$$$$
MolPort-003-117-060 8772077 CSSS03436996296 MCULE-9598085402 PubChem-16897556 ZINC000008772077 ZINC08772077
     RDKit          3D

 25 27  0  0  0  0  0  0  0  0999 V2000
   17.4653   42.8989    8.4759 C   0  0  0  0  0  0  0  0  0  0  0  0
   16.0945   42.5756    7.9895 C   0  0  0  0  0  0  0  0  0  0  0  0
   15.2606   41.6141    8.5746 C   0  0  0  0  0  0  0  0  0  0  0  0
   14.3096   42.8017    6.6499 C   0  0  0  0  0  0  0  0  0  0  0  0
   13.8926   44.3382    4.6718 C   0  0  0  0  0  0  0  0  0  0  0  0
   13.1832   45.7504    2.6518 C   0  0  0  0  0  0  0  0  0  0  0  0
   14.3796   46.4803    2.5726 C   0  0  0  0  0  0  0  0  0  0  0  0
   14.5490   47.4549    1.5851 C   0  0  0  0  0  0  0  0  0  0  0  0
   13.5235   47.7067    0.6700 C   0  0  0  0  0  0  0  0  0  0  0  0
   12.3297   46.9840    0.7427 C   0  0  0  0  0  0  0  0  0  0  0  0
   12.1617   46.0094    1.7310 C   0  0  0  0  0  0  0  0  0  0  0  0
   15.5982   40.7123    9.7006 C   0  0  0  0  0  0  0  0  0  0  0  0
   14.9322   38.8619   11.2492 C   0  0  0  0  0  0  0  0  0  0  0  0
   13.7626   38.3821   12.1062 C   0  0  0  0  0  0  0  0  0  0  0  0
   12.4963   38.3236   11.2576 C   0  0  0  0  0  0  0  0  0  0  0  0
   12.1474   39.6767   10.6199 C   0  0  0  0  0  0  0  0  0  0  0  0
   13.2823   40.7033   10.6929 C   0  0  0  0  0  0  0  0  0  0  0  0
   13.8169   41.5905    7.7002 S   0  0  0  0  0  0  0  0  0  0  0  0
   13.5002   43.3079    5.5841 N   0  0  0  0  0  0  0  0  0  0  0  0
   12.9722   44.7427    3.6505 N   0  0  0  0  0  0  0  0  0  0  0  0
   15.5586   43.2344    6.9274 N   0  0  0  0  0  0  0  0  0  0  0  0
   14.5805   40.0607   10.4797 N   0  0  0  0  0  0  0  0  0  0  0  0
   15.0277   44.8783    4.7677 O   0  0  0  0  0  0  0  0  0  0  0  0
   16.8115   40.4939    9.9666 O   0  0  0  0  0  0  0  0  0  0  0  0
   13.7343   48.9267   -0.5668 Cl  0  0  0  0  0  0  0  0  0  0  0  0
  1  2  1  0
  2 21  1  0
  3 18  1  0
  3 12  1  0
  4 18  1  0
  4 19  1  0
  5 20  1  0
  7  8  2  0
  9 25  1  0
  9 10  2  0
 11  6  2  0
 12 22  1  0
 13 22  1  0
 13 14  1  0
 14 15  1  0
 15 16  1  0
 16 17  1  0
 17 22  1  0
 19  5  1  0
 20  6  1  0
  2  3  2  0
  4 21  2  0
  5 23  2  0
  6  7  1  0
  8  9  1  0
 10 11  1  0
 12 24  2  0
M  END
>  <rmsd>  (74) 
0.219737038

$$$$
MolPort-007-723-430 15674591 ChemDiv-E157-5444 MCULE-7155321640 PubChem-22517996 ZINC000015674591 ZINC15674591
     RDKit          3D

 26 28  0  0  0  0  0  0  0  0999 V2000
   13.5351   39.3815   11.2701 C   0  0  0  0  0  0  0  0  0  0  0  0
   13.9869   41.8355   11.6039 C   0  0  0  0  0  0  0  0  0  0  0  0
   12.9349   41.9186   12.5323 C   0  0  0  0  0  0  0  0  0  0  0  0
   12.6258   43.1326   13.1525 C   0  0  0  0  0  0  0  0  0  0  0  0
   13.3656   44.2789   12.8523 C   0  0  0  0  0  0  0  0  0  0  0  0
   14.4149   44.2108   11.9334 C   0  0  0  0  0  0  0  0  0  0  0  0
   14.7226   42.9968   11.3132 C   0  0  0  0  0  0  0  0  0  0  0  0
   15.1794   41.5019    8.4098 C   0  0  0  0  0  0  0  0  0  0  0  0
   14.2545   42.7338    6.5862 C   0  0  0  0  0  0  0  0  0  0  0  0
   13.9006   44.3691    4.6704 C   0  0  0  0  0  0  0  0  0  0  0  0
   13.0076   44.9000    3.6067 C   0  0  0  0  0  0  0  0  0  0  0  0
   11.7733   44.3017    3.2383 C   0  0  0  0  0  0  0  0  0  0  0  0
   11.2508   43.0555    3.8677 C   0  0  0  0  0  0  0  0  0  0  0  0
   10.9963   44.8752    2.2259 C   0  0  0  0  0  0  0  0  0  0  0  0
   11.4209   46.0315    1.5707 C   0  0  0  0  0  0  0  0  0  0  0  0
   12.6327   46.6239    1.9210 C   0  0  0  0  0  0  0  0  0  0  0  0
   13.4171   46.0611    2.9286 C   0  0  0  0  0  0  0  0  0  0  0  0
   14.3010   40.5821   10.9628 N   0  0  0  0  0  0  0  0  0  0  0  0
   16.0312   42.4236    7.9099 N   0  0  0  0  0  0  0  0  0  0  0  0
   15.5164   43.1104    6.8918 N   0  0  0  0  0  0  0  0  0  0  0  0
   13.4716   43.3116    5.5374 N   0  0  0  0  0  0  0  0  0  0  0  0
   15.5585   40.4620    9.7676 S   0  0  0  0  0  0  0  0  0  0  0  0
   13.7069   41.5021    7.5924 S   0  0  0  0  0  0  0  0  0  0  0  0
   16.8672   40.8746   10.3808 O   0  0  0  0  0  0  0  0  0  0  0  0
   15.6766   39.0452    9.2789 O   0  0  0  0  0  0  0  0  0  0  0  0
   15.0476   44.8732    4.8192 O   0  0  0  0  0  0  0  0  0  0  0  0
  1 18  1  0
  3  4  2  0
  5  6  2  0
  7  2  2  0
  8 23  1  0
  9 21  1  0
  9 23  1  0
 10 11  1  0
 12 14  2  0
 13 12  1  0
 15 16  2  0
 17 11  2  0
 18  2  1  0
 19 20  1  0
 21 10  1  0
 22 18  1  0
 22  8  1  0
  2  3  1  0
  4  5  1  0
  6  7  1  0
  8 19  2  0
  9 20  2  0
 10 26  2  0
 11 12  1  0
 14 15  1  0
 16 17  1  0
 22 24  2  0
 22 25  2  0
M  END
>  <rmsd>  (75) 
0.200596571

$$$$
MolPort-007-776-367 ChemDiv-E957-1576 MCULE-1285197482 PubChem-20926064 ZINC000009265415
     RDKit          3D

 33 36  0  0  0  0  0  0  0  0999 V2000
   14.2704   41.4301    7.0952 C   0  0  0  0  0  0  0  0  0  0  0  0
   13.4365   40.3429    6.5384 C   0  0  0  0  0  0  0  0  0  0  0  0
   13.6344   38.8919    8.6112 C   0  0  0  0  0  0  0  0  0  0  0  0
   12.6004   39.6158    9.4822 C   0  0  0  0  0  0  0  0  0  0  0  0
   12.9360   38.1506   11.3428 C   0  0  0  0  0  0  0  0  0  0  0  0
   14.1848   40.1455   11.1923 C   0  0  0  0  0  0  0  0  0  0  0  0
   12.7998   37.9082    6.4831 C   0  0  0  0  0  0  0  0  0  0  0  0
   13.8088   37.4131    5.5028 C   0  0  0  0  0  0  0  0  0  0  0  0
   14.8368   36.5449    5.7939 C   0  0  0  0  0  0  0  0  0  0  0  0
   15.5181   36.3964    4.5981 C   0  0  0  0  0  0  0  0  0  0  0  0
   14.8624   37.1845    3.6670 C   0  0  0  0  0  0  0  0  0  0  0  0
   15.6575   42.4420    8.3569 C   0  0  0  0  0  0  0  0  0  0  0  0
   15.2166   43.3917    7.4692 C   0  0  0  0  0  0  0  0  0  0  0  0
   15.6244   44.7221    7.5558 C   0  0  0  0  0  0  0  0  0  0  0  0
   16.5410   45.0587    8.5678 C   0  0  0  0  0  0  0  0  0  0  0  0
   17.0122   44.0760    9.4649 C   0  0  0  0  0  0  0  0  0  0  0  0
   16.5659   42.7459    9.3680 C   0  0  0  0  0  0  0  0  0  0  0  0
   14.3285   42.7439    6.6341 C   0  0  0  0  0  0  0  0  0  0  0  0
   13.8391   44.4517    4.7998 C   0  0  0  0  0  0  0  0  0  0  0  0
   12.7969   45.0898    3.9771 C   0  0  0  0  0  0  0  0  0  0  0  0
   13.1041   46.2005    3.1768 C   0  0  0  0  0  0  0  0  0  0  0  0
   12.1138   46.8058    2.3975 C   0  0  0  0  0  0  0  0  0  0  0  0
   10.8091   46.3053    2.4132 C   0  0  0  0  0  0  0  0  0  0  0  0
   10.4944   45.1999    3.2080 C   0  0  0  0  0  0  0  0  0  0  0  0
   11.4846   44.5945    3.9872 C   0  0  0  0  0  0  0  0  0  0  0  0
    9.7564   46.9488    1.5849 C   0  0  0  0  0  0  0  0  0  0  0  0
   12.8278   40.5343    5.4506 O   0  0  0  0  0  0  0  0  0  0  0  0
   13.8475   37.7774    4.2477 O   0  0  0  0  0  0  0  0  0  0  0  0
   15.0921   41.2820    8.1199 O   0  0  0  0  0  0  0  0  0  0  0  0
   15.0213   44.8882    4.7641 O   0  0  0  0  0  0  0  0  0  0  0  0
   13.3163   39.0674    7.2002 N   0  0  0  0  0  0  0  0  0  0  0  0
   12.8886   39.5422   10.9184 N   0  0  0  0  0  0  0  0  0  0  0  0
   13.5159   43.3036    5.5936 N   0  0  0  0  0  0  0  0  0  0  0  0
  1  2  1  0
  1 29  1  0
  2 31  1  0
  3 31  1  0
  3  4  1  0
  4 32  1  0
  5 32  1  0
  6 32  1  0
  7 31  1  0
  7  8  1  0
  8 28  1  0
  9 10  1  0
 11 28  1  0
 12 29  1  0
 13 14  2  0
 13 18  1  0
 15 16  2  0
 17 12  2  0
 18 33  1  0
 19 20  1  0
 21 22  2  0
 23 24  2  0
 25 20  2  0
 26 23  1  0
 33 19  1  0
  2 27  2  0
  8  9  2  0
 10 11  2  0
 12 13  1  0
 14 15  1  0
 16 17  1  0
 18  1  2  0
 19 30  2  0
 20 21  1  0
 22 23  1  0
 24 25  1  0
M  END
>  <rmsd>  (76) 
0.165868118

$$$$
MolPort-002-774-447 36613597 CSSS00132996021 MCULE-6853413992 PubChem-44821655 ZINC000036613597 ZINC36613597
     RDKit          3D

 32 35  0  0  0  0  0  0  0  0999 V2000
   13.0247   38.5444   10.9029 C   0  0  0  0  0  0  0  0  0  0  0  0
   13.6448   39.8172   11.4484 C   0  0  0  0  0  0  0  0  0  0  0  0
   13.7051   40.8823   10.3685 C   0  0  0  0  0  0  0  0  0  0  0  0
   14.8264   40.5804    9.3880 C   0  0  0  0  0  0  0  0  0  0  0  0
   14.3145   42.8031    6.6710 C   0  0  0  0  0  0  0  0  0  0  0  0
   13.8802   44.3574    4.6969 C   0  0  0  0  0  0  0  0  0  0  0  0
   12.9537   44.7807    3.6321 C   0  0  0  0  0  0  0  0  0  0  0  0
   11.5575   44.8402    3.7760 C   0  0  0  0  0  0  0  0  0  0  0  0
   10.6600   44.6928    4.8309 C   0  0  0  0  0  0  0  0  0  0  0  0
   10.9700   44.4430    6.2644 C   0  0  0  0  0  0  0  0  0  0  0  0
    8.3381   45.5804    2.2670 C   0  0  0  0  0  0  0  0  0  0  0  0
   10.7633   45.1862    2.7178 C   0  0  0  0  0  0  0  0  0  0  0  0
   12.6147   45.4860    1.3007 C   0  0  0  0  0  0  0  0  0  0  0  0
   13.4733   45.1211    2.3675 C   0  0  0  0  0  0  0  0  0  0  0  0
   13.1697   45.8399   -0.0232 C   0  0  0  0  0  0  0  0  0  0  0  0
   12.3119   46.2003   -1.0729 C   0  0  0  0  0  0  0  0  0  0  0  0
   12.8270   46.5364   -2.3279 C   0  0  0  0  0  0  0  0  0  0  0  0
   14.2064   46.5178   -2.5533 C   0  0  0  0  0  0  0  0  0  0  0  0
   16.0755   46.8667   -4.1353 C   0  0  0  0  0  0  0  0  0  0  0  0
   15.0700   46.1580   -1.5069 C   0  0  0  0  0  0  0  0  0  0  0  0
   14.5547   45.8220   -0.2524 C   0  0  0  0  0  0  0  0  0  0  0  0
   15.5754   43.2627    7.0338 C   0  0  0  0  0  0  0  0  0  0  0  0
   15.8824   42.4539    8.1117 C   0  0  0  0  0  0  0  0  0  0  0  0
   17.1471   42.5173    8.8970 C   0  0  0  0  0  0  0  0  0  0  0  0
   14.8706   41.6000    8.3502 N   0  0  0  0  0  0  0  0  0  0  0  0
   13.9055   41.8014    7.4718 N   0  0  0  0  0  0  0  0  0  0  0  0
   13.5124   43.3044    5.5959 N   0  0  0  0  0  0  0  0  0  0  0  0
    9.4025   44.9346    4.3853 N   0  0  0  0  0  0  0  0  0  0  0  0
    9.4781   45.2258    3.0940 N   0  0  0  0  0  0  0  0  0  0  0  0
   11.2612   45.5112    1.4997 N   0  0  0  0  0  0  0  0  0  0  0  0
   15.0258   44.8803    4.7616 O   0  0  0  0  0  0  0  0  0  0  0  0
   14.6901   46.8591   -3.8192 O   0  0  0  0  0  0  0  0  0  0  0  0
  1  2  1  0
  2  3  1  0
  3  4  1  0
  4 25  1  0
  5 27  1  0
  5 22  1  0
  6  7  1  0
  8  9  1  0
 10  9  1  0
 11 29  1  0
 12  8  2  0
 13 30  2  0
 13 15  1  0
 14  7  2  0
 16 17  2  0
 18 32  1  0
 18 20  2  0
 19 32  1  0
 21 15  2  0
 23 25  1  0
 24 23  1  0
 25 26  1  0
 27  6  1  0
 29 28  1  0
 29 12  1  0
  5 26  2  0
  6 31  2  0
  7  8  1  0
  9 28  2  0
 12 30  1  0
 13 14  1  0
 15 16  1  0
 17 18  1  0
 20 21  1  0
 22 23  2  0
M  END
>  <rmsd>  (77) 
0.179779842

$$$$
MolPort-007-723-737 8588205 CHEMBL1355675 ChemDiv-E157-8420 MCULE-7523060625 PubChem-16017631 ZINC000008588205 ZINC08588205
     RDKit          3D

 28 30  0  0  0  0  0  0  0  0999 V2000
   15.0881   47.3946    1.7923 C   0  0  0  0  0  0  0  0  0  0  0  0
   13.3901   45.7907    2.6260 C   0  0  0  0  0  0  0  0  0  0  0  0
   13.0147   44.7946    3.5602 C   0  0  0  0  0  0  0  0  0  0  0  0
   11.7456   44.2038    3.4523 C   0  0  0  0  0  0  0  0  0  0  0  0
   10.8585   44.5852    2.4448 C   0  0  0  0  0  0  0  0  0  0  0  0
   11.2286   45.5663    1.5267 C   0  0  0  0  0  0  0  0  0  0  0  0
   12.4857   46.1648    1.6167 C   0  0  0  0  0  0  0  0  0  0  0  0
   13.9112   44.3467    4.6529 C   0  0  0  0  0  0  0  0  0  0  0  0
   14.2346   42.7954    6.6421 C   0  0  0  0  0  0  0  0  0  0  0  0
   15.1265   41.6578    8.5421 C   0  0  0  0  0  0  0  0  0  0  0  0
   13.5297   39.2541   11.2302 C   0  0  0  0  0  0  0  0  0  0  0  0
   13.4825   41.7516   11.5353 C   0  0  0  0  0  0  0  0  0  0  0  0
   14.0412   43.0227   11.3209 C   0  0  0  0  0  0  0  0  0  0  0  0
   13.4468   44.1642   11.8649 C   0  0  0  0  0  0  0  0  0  0  0  0
   12.2853   44.0484   12.6314 C   0  0  0  0  0  0  0  0  0  0  0  0
   11.7188   42.7915   12.8545 C   0  0  0  0  0  0  0  0  0  0  0  0
   12.3139   41.6502   12.3097 C   0  0  0  0  0  0  0  0  0  0  0  0
   14.6505   46.3966    2.7052 O   0  0  0  0  0  0  0  0  0  0  0  0
   15.0497   44.8676    4.8015 O   0  0  0  0  0  0  0  0  0  0  0  0
   16.6278   41.2832   10.7164 O   0  0  0  0  0  0  0  0  0  0  0  0
   15.8948   39.3008    9.4834 O   0  0  0  0  0  0  0  0  0  0  0  0
   13.4742   43.3133    5.5464 N   0  0  0  0  0  0  0  0  0  0  0  0
   15.4709   43.2234    6.9814 N   0  0  0  0  0  0  0  0  0  0  0  0
   15.9675   42.5885    8.0413 N   0  0  0  0  0  0  0  0  0  0  0  0
   14.0915   40.5727   10.9707 N   0  0  0  0  0  0  0  0  0  0  0  0
   13.6881   41.5800    7.6691 S   0  0  0  0  0  0  0  0  0  0  0  0
   15.4915   40.6735    9.9444 S   0  0  0  0  0  0  0  0  0  0  0  0
   11.5400   45.4777   13.3127 Cl  0  0  0  0  0  0  0  0  0  0  0  0
  1 18  1  0
  2 18  1  0
  3  4  2  0
  3  8  1  0
  5  6  2  0
  7  2  2  0
  8 22  1  0
  9 26  1  0
 10 26  1  0
 11 25  1  0
 13 14  2  0
 15 28  1  0
 15 16  2  0
 17 12  2  0
 22  9  1  0
 23 24  1  0
 25 12  1  0
 27 10  1  0
 27 25  1  0
  2  3  1  0
  4  5  1  0
  6  7  1  0
  8 19  2  0
  9 23  2  0
 10 24  2  0
 12 13  1  0
 14 15  1  0
 16 17  1  0
 27 20  2  0
 27 21  2  0
M  END
>  <rmsd>  (78) 
0.205905989

$$$$
MolPort-005-163-095 15077845 CHEMBL1575864 CSSS00159571147 PubChem-24819214 ZINC000015077845
     RDKit          3D

 30 33  0  0  0  0  0  0  0  0999 V2000
   13.0919   47.2900    0.8400 F   0  0  0  0  0  0  0  0  0  0  0  0
   12.6662   46.3037    1.6649 C   0  0  0  0  0  0  0  0  0  0  0  0
   11.4033   45.7345    1.4799 C   0  0  0  0  0  0  0  0  0  0  0  0
   10.9642   44.7171    2.3312 C   0  0  0  0  0  0  0  0  0  0  0  0
   11.7881   44.2686    3.3676 C   0  0  0  0  0  0  0  0  0  0  0  0
   13.0573   44.8340    3.5606 C   0  0  0  0  0  0  0  0  0  0  0  0
   13.4901   45.8552    2.7013 C   0  0  0  0  0  0  0  0  0  0  0  0
   13.9248   44.3603    4.6533 C   0  0  0  0  0  0  0  0  0  0  0  0
   14.2039   42.7605    6.6209 C   0  0  0  0  0  0  0  0  0  0  0  0
   15.4700   43.1301    7.0349 C   0  0  0  0  0  0  0  0  0  0  0  0
   15.7061   42.3015    8.1264 C   0  0  0  0  0  0  0  0  0  0  0  0
   12.4207   41.1537    7.3029 C   0  0  0  0  0  0  0  0  0  0  0  0
   12.5420   39.6232    7.2265 C   0  0  0  0  0  0  0  0  0  0  0  0
   12.2400   38.9367    8.5604 C   0  0  0  0  0  0  0  0  0  0  0  0
   12.5204   39.0144   10.8850 C   0  0  0  0  0  0  0  0  0  0  0  0
   13.5691   39.4219   11.8654 C   0  0  0  0  0  0  0  0  0  0  0  0
   14.8587   39.2460   11.5920 C   0  0  0  0  0  0  0  0  0  0  0  0
   15.9287   39.6368   12.5195 C   0  0  0  0  0  0  0  0  0  0  0  0
   15.6501   40.2233   13.7649 C   0  0  0  0  0  0  0  0  0  0  0  0
   16.6938   40.5851   14.6217 C   0  0  0  0  0  0  0  0  0  0  0  0
   18.0200   40.3639   14.2395 C   0  0  0  0  0  0  0  0  0  0  0  0
   18.3023   39.7810   13.0008 C   0  0  0  0  0  0  0  0  0  0  0  0
   17.2585   39.4189   12.1436 C   0  0  0  0  0  0  0  0  0  0  0  0
   11.6843   40.9037    9.7596 C   0  0  0  0  0  0  0  0  0  0  0  0
   11.4847   41.6370    8.4201 C   0  0  0  0  0  0  0  0  0  0  0  0
   15.0640   44.8762    4.8179 O   0  0  0  0  0  0  0  0  0  0  0  0
   13.4679   43.3153    5.5228 N   0  0  0  0  0  0  0  0  0  0  0  0
   14.6383   41.5011    8.3300 N   0  0  0  0  0  0  0  0  0  0  0  0
   13.7344   41.7839    7.4091 N   0  0  0  0  0  0  0  0  0  0  0  0
   12.6409   39.7978    9.6658 N   0  0  0  0  0  0  0  0  0  0  0  0
  2  1  1  0
  3  4  2  0
  5  6  2  0
  6  8  1  0
  7  2  2  0
  8 27  1  0
 10 11  1  0
 12 29  1  0
 12 13  1  0
 13 14  1  0
 14 30  1  0
 15 30  1  0
 15 16  1  0
 17 18  1  0
 19 20  2  0
 21 22  2  0
 23 18  2  0
 24 30  1  0
 24 25  1  0
 25 12  1  0
 27  9  1  0
 29 28  1  0
 29  9  1  0
  2  3  1  0
  4  5  1  0
  6  7  1  0
  8 26  2  0
  9 10  2  0
 11 28  2  0
 16 17  2  0
 18 19  1  0
 20 21  1  0
 22 23  1  0
M  END
>  <rmsd>  (79) 
0.212973312

$$$$
MolPort-007-714-551 ChemDiv-E002-1886 MCULE-8664044469 PubChem-22510854 ZINC000015671749 ZINC15671749
     RDKit          3D

 27 29  0  0  0  0  0  0  0  0999 V2000
   13.1179   48.0484   -2.3711 C   0  0  0  0  0  0  0  0  0  0  0  0
   13.0904   49.1182   -1.2949 C   0  0  0  0  0  0  0  0  0  0  0  0
   13.7463   47.7920    0.7033 C   0  0  0  0  0  0  0  0  0  0  0  0
   14.7280   47.5040    1.6561 C   0  0  0  0  0  0  0  0  0  0  0  0
   14.5071   46.5164    2.6201 C   0  0  0  0  0  0  0  0  0  0  0  0
   13.2986   45.8043    2.6435 C   0  0  0  0  0  0  0  0  0  0  0  0
   13.9122   44.3485    4.6638 C   0  0  0  0  0  0  0  0  0  0  0  0
   14.2334   42.7734    6.6294 C   0  0  0  0  0  0  0  0  0  0  0  0
   15.1329   41.6021    8.5176 C   0  0  0  0  0  0  0  0  0  0  0  0
   16.9018   40.5594    9.9255 C   0  0  0  0  0  0  0  0  0  0  0  0
   17.5129   39.5031    9.0229 C   0  0  0  0  0  0  0  0  0  0  0  0
   14.5000   40.0252   10.3914 C   0  0  0  0  0  0  0  0  0  0  0  0
   14.8205   38.7980   10.9965 C   0  0  0  0  0  0  0  0  0  0  0  0
   13.8790   38.1218   11.7775 C   0  0  0  0  0  0  0  0  0  0  0  0
   12.6083   38.6689   11.9695 C   0  0  0  0  0  0  0  0  0  0  0  0
   12.2805   39.8939   11.3840 C   0  0  0  0  0  0  0  0  0  0  0  0
   13.2225   40.5696   10.6034 C   0  0  0  0  0  0  0  0  0  0  0  0
   12.3161   46.0945    1.6914 C   0  0  0  0  0  0  0  0  0  0  0  0
   12.5355   47.0818    0.7268 C   0  0  0  0  0  0  0  0  0  0  0  0
   13.9963   48.7891   -0.2467 O   0  0  0  0  0  0  0  0  0  0  0  0
   15.0514   44.8685    4.8095 O   0  0  0  0  0  0  0  0  0  0  0  0
   13.0359   44.7842    3.6169 N   0  0  0  0  0  0  0  0  0  0  0  0
   13.4710   43.3101    5.5440 N   0  0  0  0  0  0  0  0  0  0  0  0
   15.4802   43.1775    6.9581 N   0  0  0  0  0  0  0  0  0  0  0  0
   15.9822   42.5219    8.0030 N   0  0  0  0  0  0  0  0  0  0  0  0
   15.4860   40.7324    9.6107 N   0  0  0  0  0  0  0  0  0  0  0  0
   13.6858   41.5492    7.6435 S   0  0  0  0  0  0  0  0  0  0  0  0
  1  2  1  0
  2 20  1  0
  3 20  1  0
  4  5  2  0
  6 22  1  0
  6 18  2  0
  7 23  1  0
  8 27  1  0
  9 27  1  0
  9 26  1  0
 10 26  1  0
 10 11  1  0
 13 14  2  0
 15 16  2  0
 17 12  2  0
 19  3  2  0
 22  7  1  0
 23  8  1  0
 24 25  1  0
 26 12  1  0
  3  4  1  0
  5  6  1  0
  7 21  2  0
  8 24  2  0
  9 25  2  0
 12 13  1  0
 14 15  1  0
 16 17  1  0
 18 19  1  0
M  END
>  <rmsd>  (80) 
0.210551307

$$$$
MolPort-046-932-000 142864033 CHEMBL3357014 MCULE-4179892381 MCULE-5655925433 ZINC000142864033
     RDKit          3D

 31 34  0  0  0  0  0  0  0  0999 V2000
   18.6350   41.7897   10.5174 C   0  0  0  0  0  0  0  0  0  0  0  0
   17.3393   41.7344    9.7819 C   0  0  0  0  0  0  0  0  0  0  0  0
   16.2788   40.8517   10.1596 C   0  0  0  0  0  0  0  0  0  0  0  0
   15.0644   40.8299    9.4292 C   0  0  0  0  0  0  0  0  0  0  0  0
   13.9236   39.9261    9.7957 C   0  0  2  0  0  0  0  0  0  0  0  0
   13.4709   37.9808   10.7793 C   0  0  0  0  0  0  0  0  0  0  0  0
   13.0472   39.0122   11.7988 C   0  0  0  0  0  0  0  0  0  0  0  0
   13.3143   40.3224   11.1225 C   0  0  0  0  0  0  0  0  0  0  0  0
   14.9468   41.6979    8.3452 C   0  0  0  0  0  0  0  0  0  0  0  0
   15.9500   42.5392    7.9844 C   0  0  0  0  0  0  0  0  0  0  0  0
   17.1557   42.5893    8.6707 C   0  0  0  0  0  0  0  0  0  0  0  0
   14.3326   42.8141    6.6710 C   0  0  0  0  0  0  0  0  0  0  0  0
   13.8956   44.3232    4.6733 C   0  0  0  0  0  0  0  0  0  0  0  0
   13.2855   45.7254    2.6545 C   0  0  0  0  0  0  0  0  0  0  0  0
   14.2634   45.1762    1.6324 C   0  0  0  0  0  0  0  0  0  0  0  0
   19.6387   42.6884   10.1316 C   0  0  0  0  0  0  0  0  0  0  0  0
   21.0566   41.9207   11.8644 C   0  0  0  0  0  0  0  0  0  0  0  0
   18.9105   40.9557   11.6071 C   0  0  0  0  0  0  0  0  0  0  0  0
   22.3815   41.9761   12.5750 C   0  0  0  0  0  0  0  0  0  0  0  0
   22.6969   43.4045   12.9816 C   0  0  0  0  0  0  0  0  0  0  0  0
   23.4748   41.4710   11.6533 C   0  0  0  0  0  0  0  0  0  0  0  0
   14.3454   38.5899    9.8679 O   0  0  0  0  0  0  0  0  0  0  0  0
   15.0231   44.8825    4.7558 O   0  0  0  0  0  0  0  0  0  0  0  0
   22.3543   41.1795   13.7222 O   0  0  0  0  0  0  0  0  0  0  0  0
   15.5901   43.2668    6.9181 N   0  0  0  0  0  0  0  0  0  0  0  0
   13.5154   43.3026    5.6021 N   0  0  0  0  0  0  0  0  0  0  0  0
   12.9765   44.7079    3.6490 N   0  0  0  0  0  0  0  0  0  0  0  0
   13.8975   41.8509    7.5222 N   0  0  0  0  0  0  0  0  0  0  0  0
   20.8184   42.7364   10.8016 N   0  0  0  0  0  0  0  0  0  0  0  0
   20.1023   41.0321   12.2529 N   0  0  0  0  0  0  0  0  0  0  0  0
   16.4120   40.0224   11.2266 F   0  0  0  0  0  0  0  0  0  0  0  0
  1  2  1  0
  3  4  2  0
  3 31  1  0
  5  4  1  1
  5 22  1  0
  6 22  1  0
  6  7  1  0
  7  8  1  0
  8  5  1  0
  9 10  2  0
 10 25  1  0
 11  2  2  0
 12 26  1  0
 12 28  1  0
 13 27  1  0
 14 27  1  0
 14 15  1  0
 16 29  2  0
 17 30  2  0
 18  1  2  0
 19 17  1  0
 19 24  1  0
 19 20  1  0
 19 21  1  0
 26 13  1  0
 28  9  1  0
  1 16  1  0
  2  3  1  0
  4  9  1  0
 10 11  1  0
 12 25  2  0
 13 23  2  0
 17 29  1  0
 18 30  1  0
M  END
>  <rmsd>  (81) 
0.204110086

$$$$
MolPort-007-723-574 ChemDiv-E157-6400 MCULE-4115465868 PubChem-22518102 ZINC000006818369 ZINC06818369
     RDKit          3D

 27 29  0  0  0  0  0  0  0  0999 V2000
   13.5260   39.2699   11.2302 C   0  0  0  0  0  0  0  0  0  0  0  0
   13.5435   41.7659   11.5506 C   0  0  0  0  0  0  0  0  0  0  0  0
   14.1243   43.0255   11.3282 C   0  0  0  0  0  0  0  0  0  0  0  0
   13.5654   44.1778   11.8873 C   0  0  0  0  0  0  0  0  0  0  0  0
   12.4176   44.0841   12.6773 C   0  0  0  0  0  0  0  0  0  0  0  0
   11.8226   45.3090   13.2719 C   0  0  0  0  0  0  0  0  0  0  0  0
   11.8294   42.8386   12.9085 C   0  0  0  0  0  0  0  0  0  0  0  0
   12.3890   41.6867   12.3485 C   0  0  0  0  0  0  0  0  0  0  0  0
   15.1366   41.6391    8.5269 C   0  0  0  0  0  0  0  0  0  0  0  0
   14.2391   42.7881    6.6365 C   0  0  0  0  0  0  0  0  0  0  0  0
   13.9100   44.3485    4.6559 C   0  0  0  0  0  0  0  0  0  0  0  0
   13.0313   44.8169    3.5589 C   0  0  0  0  0  0  0  0  0  0  0  0
   11.7439   44.2784    3.3395 C   0  0  0  0  0  0  0  0  0  0  0  0
   10.9535   44.7561    2.2891 C   0  0  0  0  0  0  0  0  0  0  0  0
   11.4283   45.7661    1.4505 C   0  0  0  0  0  0  0  0  0  0  0  0
   12.6985   46.3045    1.6588 C   0  0  0  0  0  0  0  0  0  0  0  0
   13.4932   45.8324    2.7058 C   0  0  0  0  0  0  0  0  0  0  0  0
   14.1160   40.5761   10.9707 N   0  0  0  0  0  0  0  0  0  0  0  0
   15.9799   42.5661    8.0234 N   0  0  0  0  0  0  0  0  0  0  0  0
   15.4806   43.2069    6.9683 N   0  0  0  0  0  0  0  0  0  0  0  0
   13.4752   43.3129    5.5467 N   0  0  0  0  0  0  0  0  0  0  0  0
   15.5034   40.6500    9.9252 S   0  0  0  0  0  0  0  0  0  0  0  0
   13.6918   41.5732    7.6635 S   0  0  0  0  0  0  0  0  0  0  0  0
   15.8755   39.2696    9.4609 O   0  0  0  0  0  0  0  0  0  0  0  0
   16.6613   41.2398   10.6805 O   0  0  0  0  0  0  0  0  0  0  0  0
   15.0499   44.8689    4.8032 O   0  0  0  0  0  0  0  0  0  0  0  0
   11.2413   43.2967    4.1285 F   0  0  0  0  0  0  0  0  0  0  0  0
  1 18  1  0
  3  4  2  0
  5  7  2  0
  6  5  1  0
  8  2  2  0
  9 23  1  0
 10 21  1  0
 10 23  1  0
 11 12  1  0
 13 27  1  0
 13 14  2  0
 15 16  2  0
 17 12  2  0
 18  2  1  0
 19 20  1  0
 21 11  1  0
 22 18  1  0
 22  9  1  0
  2  3  1  0
  4  5  1  0
  7  8  1  0
  9 19  2  0
 10 20  2  0
 11 26  2  0
 12 13  1  0
 14 15  1  0
 16 17  1  0
 22 24  2  0
 22 25  2  0
M  END
>  <rmsd>  (82) 
0.202283978

$$$$
MolPort-007-723-448 6818299 ChemDiv-E157-5478 MCULE-4631826537 PubChem-22518010 ZINC000006818299 ZINC06818299
     RDKit          3D

 24 25  0  0  0  0  0  0  0  0999 V2000
   12.3895   44.1777    1.2267 C   0  0  0  0  0  0  0  0  0  0  0  0
   12.7277   43.6609    2.6120 C   0  0  0  0  0  0  0  0  0  0  0  0
   13.0257   44.8159    3.5597 C   0  0  0  0  0  0  0  0  0  0  0  0
   11.7423   45.3917    4.1445 C   0  0  0  0  0  0  0  0  0  0  0  0
   11.1249   46.3996    3.1942 C   0  0  0  0  0  0  0  0  0  0  0  0
   13.9150   44.3457    4.6624 C   0  0  0  0  0  0  0  0  0  0  0  0
   14.2374   42.7822    6.6383 C   0  0  0  0  0  0  0  0  0  0  0  0
   15.1349   41.6301    8.5268 C   0  0  0  0  0  0  0  0  0  0  0  0
   13.5194   39.2691   11.2314 C   0  0  0  0  0  0  0  0  0  0  0  0
   13.5582   41.7635   11.5617 C   0  0  0  0  0  0  0  0  0  0  0  0
   12.4094   41.6898   12.3683 C   0  0  0  0  0  0  0  0  0  0  0  0
   11.8618   42.8437   12.9359 C   0  0  0  0  0  0  0  0  0  0  0  0
   12.4565   44.0860   12.7041 C   0  0  0  0  0  0  0  0  0  0  0  0
   13.5986   44.1743   11.9053 C   0  0  0  0  0  0  0  0  0  0  0  0
   14.1455   43.0200   11.3383 C   0  0  0  0  0  0  0  0  0  0  0  0
   15.0511   44.8722    4.7988 O   0  0  0  0  0  0  0  0  0  0  0  0
   16.6663   41.2214   10.6738 O   0  0  0  0  0  0  0  0  0  0  0  0
   15.8648   39.2562    9.4568 O   0  0  0  0  0  0  0  0  0  0  0  0
   13.4740   43.3092    5.5495 N   0  0  0  0  0  0  0  0  0  0  0  0
   15.4797   43.1991    6.9695 N   0  0  0  0  0  0  0  0  0  0  0  0
   15.9791   42.5566    8.0234 N   0  0  0  0  0  0  0  0  0  0  0  0
   14.1185   40.5716   10.9744 N   0  0  0  0  0  0  0  0  0  0  0  0
   13.6893   41.5670    7.6646 S   0  0  0  0  0  0  0  0  0  0  0  0
   15.5020   40.6384    9.9233 S   0  0  0  0  0  0  0  0  0  0  0  0
  1  2  1  0
  2  3  1  0
  3  4  1  0
  3  6  1  0
  4  5  1  0
  6 19  1  0
  7 23  1  0
  8 23  1  0
  9 22  1  0
 11 12  2  0
 13 14  2  0
 15 10  2  0
 19  7  1  0
 20 21  1  0
 22 10  1  0
 24  8  1  0
 24 22  1  0
  6 16  2  0
  7 20  2  0
  8 21  2  0
 10 11  1  0
 12 13  1  0
 14 15  1  0
 24 17  2  0
 24 18  2  0
M  END
>  <rmsd>  (83) 
0.199535534

$$$$
MolPort-007-723-584 6818378 CHEMBL1321432 ChemDiv-E157-6429 MCULE-4634491322 PubChem-16017478 ZINC000006818378 ZINC06818378
     RDKit          3D

 26 28  0  0  0  0  0  0  0  0999 V2000
   13.5218   39.2702   11.2361 C   0  0  0  0  0  0  0  0  0  0  0  0
   13.5598   41.7658   11.5571 C   0  0  0  0  0  0  0  0  0  0  0  0
   14.1486   43.0213   11.3313 C   0  0  0  0  0  0  0  0  0  0  0  0
   13.6015   44.1775   11.8940 C   0  0  0  0  0  0  0  0  0  0  0  0
   12.4577   44.0921   12.6907 C   0  0  0  0  0  0  0  0  0  0  0  0
   11.8753   45.3213   13.2891 C   0  0  0  0  0  0  0  0  0  0  0  0
   11.8617   42.8510   12.9251 C   0  0  0  0  0  0  0  0  0  0  0  0
   12.4095   41.6951   12.3616 C   0  0  0  0  0  0  0  0  0  0  0  0
   15.1352   41.6277    8.5244 C   0  0  0  0  0  0  0  0  0  0  0  0
   14.2370   42.7815    6.6373 C   0  0  0  0  0  0  0  0  0  0  0  0
   13.9132   44.3448    4.6647 C   0  0  0  0  0  0  0  0  0  0  0  0
   13.0046   44.7974    3.5713 C   0  0  0  0  0  0  0  0  0  0  0  0
   13.6332   44.5242    2.1957 C   0  0  0  0  0  0  0  0  0  0  0  0
   13.1637   45.4974    1.1068 C   0  0  0  0  0  0  0  0  0  0  0  0
   11.7308   45.9568    1.3592 C   0  0  0  0  0  0  0  0  0  0  0  0
   11.6134   46.7173    2.6875 C   0  0  0  0  0  0  0  0  0  0  0  0
   12.6300   46.2687    3.7466 C   0  0  0  0  0  0  0  0  0  0  0  0
   14.1201   40.5721   10.9736 N   0  0  0  0  0  0  0  0  0  0  0  0
   15.9797   42.5538    8.0208 N   0  0  0  0  0  0  0  0  0  0  0  0
   15.4799   43.1972    6.9677 N   0  0  0  0  0  0  0  0  0  0  0  0
   13.4730   43.3098    5.5492 N   0  0  0  0  0  0  0  0  0  0  0  0
   15.5023   40.6357    9.9207 S   0  0  0  0  0  0  0  0  0  0  0  0
   13.6889   41.5662    7.6635 S   0  0  0  0  0  0  0  0  0  0  0  0
   16.6687   41.2168   10.6696 O   0  0  0  0  0  0  0  0  0  0  0  0
   15.8618   39.2527    9.4542 O   0  0  0  0  0  0  0  0  0  0  0  0
   15.0509   44.8728    4.8005 O   0  0  0  0  0  0  0  0  0  0  0  0
  1 18  1  0
  3  4  2  0
  5  7  2  0
  6  5  1  0
  8  2  2  0
  9 23  1  0
 10 21  1  0
 10 23  1  0
 12 11  1  0
 12 13  1  0
 13 14  1  0
 14 15  1  0
 15 16  1  0
 16 17  1  0
 17 12  1  0
 18  2  1  0
 19 20  1  0
 21 11  1  0
 22 18  1  0
 22  9  1  0
  2  3  1  0
  4  5  1  0
  7  8  1  0
  9 19  2  0
 10 20  2  0
 11 26  2  0
 22 24  2  0
 22 25  2  0
M  END
>  <rmsd>  (84) 
0.199524418

$$$$
MolPort-007-723-578 8588081 CHEMBL1705810 ChemDiv-E157-6412 MCULE-4936432176 PubChem-16017475 ZINC000008588081 ZINC08588081
     RDKit          3D

 29 31  0  0  0  0  0  0  0  0999 V2000
    8.4321   43.2169    0.3492 C   0  0  0  0  0  0  0  0  0  0  0  0
    8.7380   44.4187    1.2183 C   0  0  0  0  0  0  0  0  0  0  0  0
   10.9146   44.6510    2.3713 C   0  0  0  0  0  0  0  0  0  0  0  0
   11.3413   45.6702    1.5053 C   0  0  0  0  0  0  0  0  0  0  0  0
   12.6005   46.2520    1.6696 C   0  0  0  0  0  0  0  0  0  0  0  0
   13.4406   45.8197    2.6987 C   0  0  0  0  0  0  0  0  0  0  0  0
   13.0275   44.8026    3.5712 C   0  0  0  0  0  0  0  0  0  0  0  0
   11.7616   44.2241    3.3991 C   0  0  0  0  0  0  0  0  0  0  0  0
   13.9122   44.3468    4.6580 C   0  0  0  0  0  0  0  0  0  0  0  0
   14.2359   42.7864    6.6378 C   0  0  0  0  0  0  0  0  0  0  0  0
   15.1309   41.6387    8.5302 C   0  0  0  0  0  0  0  0  0  0  0  0
   13.5252   39.2641   11.2384 C   0  0  0  0  0  0  0  0  0  0  0  0
   13.5200   41.7623   11.5406 C   0  0  0  0  0  0  0  0  0  0  0  0
   12.3586   41.6801   12.3279 C   0  0  0  0  0  0  0  0  0  0  0  0
   11.7874   42.8312   12.8778 C   0  0  0  0  0  0  0  0  0  0  0  0
   12.3711   44.0789   12.6473 C   0  0  0  0  0  0  0  0  0  0  0  0
   11.7639   45.3030   13.2312 C   0  0  0  0  0  0  0  0  0  0  0  0
   13.5260   44.1756   11.8678 C   0  0  0  0  0  0  0  0  0  0  0  0
   14.0963   43.0242   11.3186 C   0  0  0  0  0  0  0  0  0  0  0  0
    9.6612   44.0480    2.2332 O   0  0  0  0  0  0  0  0  0  0  0  0
   15.0508   44.8703    4.8013 O   0  0  0  0  0  0  0  0  0  0  0  0
   16.6484   41.2455   10.6902 O   0  0  0  0  0  0  0  0  0  0  0  0
   15.8737   39.2721    9.4681 O   0  0  0  0  0  0  0  0  0  0  0  0
   13.4731   43.3116    5.5474 N   0  0  0  0  0  0  0  0  0  0  0  0
   15.4790   43.2018    6.9678 N   0  0  0  0  0  0  0  0  0  0  0  0
   15.9769   42.5616    8.0239 N   0  0  0  0  0  0  0  0  0  0  0  0
   14.1043   40.5735   10.9707 N   0  0  0  0  0  0  0  0  0  0  0  0
   13.6853   41.5756    7.6679 S   0  0  0  0  0  0  0  0  0  0  0  0
   15.4955   40.6516    9.9306 S   0  0  0  0  0  0  0  0  0  0  0  0
  1  2  1  0
  2 20  1  0
  3 20  1  0
  4  5  2  0
  6  7  2  0
  7  9  1  0
  8  3  2  0
  9 24  1  0
 10 28  1  0
 11 28  1  0
 12 27  1  0
 14 15  2  0
 16 18  2  0
 17 16  1  0
 19 13  2  0
 24 10  1  0
 25 26  1  0
 27 13  1  0
 29 11  1  0
 29 27  1  0
  3  4  1  0
  5  6  1  0
  7  8  1  0
  9 21  2  0
 10 25  2  0
 11 26  2  0
 13 14  1  0
 15 16  1  0
 18 19  1  0
 29 22  2  0
 29 23  2  0
M  END
>  <rmsd>  (85) 
0.200949311

$$$$
MolPort-007-723-531 6818343 ChemDiv-E157-6114 MCULE-9466694236 PubChem-22518071 ZINC000006818343 ZINC06818343
     RDKit          3D

 25 26  0  0  0  0  0  0  0  0999 V2000
   11.0377   46.2339    3.0785 C   0  0  0  0  0  0  0  0  0  0  0  0
   11.7468   45.3895    4.1207 C   0  0  0  0  0  0  0  0  0  0  0  0
   13.0290   44.8050    3.5489 C   0  0  0  0  0  0  0  0  0  0  0  0
   12.7114   43.6568    2.5982 C   0  0  0  0  0  0  0  0  0  0  0  0
   13.9103   43.3447    1.7222 C   0  0  0  0  0  0  0  0  0  0  0  0
   13.9160   44.3432    4.6608 C   0  0  0  0  0  0  0  0  0  0  0  0
   14.2363   42.7836    6.6398 C   0  0  0  0  0  0  0  0  0  0  0  0
   15.1333   41.6327    8.5291 C   0  0  0  0  0  0  0  0  0  0  0  0
   13.5194   39.2671   11.2320 C   0  0  0  0  0  0  0  0  0  0  0  0
   13.5456   41.7624   11.5566 C   0  0  0  0  0  0  0  0  0  0  0  0
   12.3911   41.6857   12.3544 C   0  0  0  0  0  0  0  0  0  0  0  0
   11.8359   42.8382   12.9174 C   0  0  0  0  0  0  0  0  0  0  0  0
   10.6148   42.7399   13.7582 C   0  0  0  0  0  0  0  0  0  0  0  0
   12.4286   44.0822   12.6893 C   0  0  0  0  0  0  0  0  0  0  0  0
   13.5764   44.1734   11.8989 C   0  0  0  0  0  0  0  0  0  0  0  0
   14.1309   43.0204   11.3368 C   0  0  0  0  0  0  0  0  0  0  0  0
   15.0503   44.8729    4.7997 O   0  0  0  0  0  0  0  0  0  0  0  0
   16.6598   41.2300   10.6809 O   0  0  0  0  0  0  0  0  0  0  0  0
   15.8683   39.2616    9.4621 O   0  0  0  0  0  0  0  0  0  0  0  0
   13.4733   43.3097    5.5503 N   0  0  0  0  0  0  0  0  0  0  0  0
   15.4814   43.1956    6.9664 N   0  0  0  0  0  0  0  0  0  0  0  0
   15.9805   42.5537    8.0210 N   0  0  0  0  0  0  0  0  0  0  0  0
   14.1134   40.5718   10.9740 N   0  0  0  0  0  0  0  0  0  0  0  0
   13.6853   41.5736    7.6706 S   0  0  0  0  0  0  0  0  0  0  0  0
   15.4997   40.6427    9.9269 S   0  0  0  0  0  0  0  0  0  0  0  0
  1  2  1  0
  2  3  1  0
  3  4  1  0
  3  6  1  0
  4  5  1  0
  6 20  1  0
  7 24  1  0
  8 24  1  0
  9 23  1  0
 11 12  2  0
 13 12  1  0
 14 15  2  0
 16 10  2  0
 20  7  1  0
 21 22  1  0
 23 10  1  0
 25  8  1  0
 25 23  1  0
  6 17  2  0
  7 21  2  0
  8 22  2  0
 10 11  1  0
 12 14  1  0
 15 16  1  0
 25 18  2  0
 25 19  2  0
M  END
>  <rmsd>  (86) 
0.199695021

$$$$
MolPort-002-622-394 9328043 PubChem-2027619 ZINC000009328043 ZINC09328043
     RDKit          3D

 23 25  0  0  0  0  0  0  0  0999 V2000
   12.7809   39.6778   11.7391 C   0  0  0  0  0  0  0  0  0  0  0  0
   13.7724   38.9540   10.8476 C   0  0  0  0  0  0  0  0  0  0  0  0
   13.9105   39.6714    9.5170 C   0  0  0  0  0  0  0  0  0  0  0  0
   14.7472   40.9299    9.6774 C   0  0  0  0  0  0  0  0  0  0  0  0
   14.3488   42.6993    6.5955 C   0  0  0  0  0  0  0  0  0  0  0  0
   13.9356   44.2726    4.6305 C   0  0  0  0  0  0  0  0  0  0  0  0
   13.0612   44.5680    3.4642 C   0  0  0  0  0  0  0  0  0  0  0  0
   13.3834   43.6187    2.3275 C   0  0  0  0  0  0  0  0  0  0  0  0
   15.7187   42.4898    6.5492 C   0  0  0  0  0  0  0  0  0  0  0  0
   16.7095   42.7535    5.6089 C   0  0  0  0  0  0  0  0  0  0  0  0
   18.0122   42.3260    5.9190 C   0  0  0  0  0  0  0  0  0  0  0  0
   19.0629   42.5669    5.0312 C   0  0  0  0  0  0  0  0  0  0  0  0
   20.3554   42.1360    5.3460 C   0  0  0  0  0  0  0  0  0  0  0  0
   20.6036   41.4622    6.5469 C   0  0  0  0  0  0  0  0  0  0  0  0
   21.9814   41.0088    6.8697 C   0  0  0  0  0  0  0  0  0  0  0  0
   19.5604   41.2121    7.4442 C   0  0  0  0  0  0  0  0  0  0  0  0
   18.2636   41.6371    7.1458 C   0  0  0  0  0  0  0  0  0  0  0  0
   15.9966   41.8173    7.7035 C   0  0  0  0  0  0  0  0  0  0  0  0
   14.8680   41.6148    8.4000 N   0  0  0  0  0  0  0  0  0  0  0  0
   13.8508   42.1440    7.7279 N   0  0  0  0  0  0  0  0  0  0  0  0
   13.5190   43.2996    5.5936 N   0  0  0  0  0  0  0  0  0  0  0  0
   17.2432   41.3847    8.0193 N   0  0  0  0  0  0  0  0  0  0  0  0
   15.0172   44.9020    4.7692 O   0  0  0  0  0  0  0  0  0  0  0  0
  1  2  1  0
  2  3  1  0
  3  4  1  0
  4 19  1  0
  5 21  1  0
  5  9  1  0
  7  6  1  0
  7  8  1  0
 10 11  2  0
 12 13  2  0
 14 16  2  0
 15 14  1  0
 17 22  2  0
 17 11  1  0
 18 19  1  0
 18  9  2  0
 19 20  1  0
 21  6  1  0
  5 20  2  0
  6 23  2  0
  9 10  1  0
 11 12  1  0
 13 14  1  0
 16 17  1  0
 18 22  1  0
M  END
>  <rmsd>  (87) 
0.163929015

$$$$
MolPort-002-633-366 5556652 CHEMBL1445989 LN00746763 PubChem-1623160 ZINC000005556652 ZINC05556652
     RDKit          3D

 24 26  0  0  0  0  0  0  0  0999 V2000
   13.3615   38.5654   11.2195 C   0  0  0  0  0  0  0  0  0  0  0  0
   13.2320   40.0568   11.4659 C   0  0  0  0  0  0  0  0  0  0  0  0
   13.3092   40.8190   10.1555 C   0  0  0  0  0  0  0  0  0  0  0  0
   14.7471   40.8726    9.6559 C   0  0  0  0  0  0  0  0  0  0  0  0
   14.3425   42.6904    6.5870 C   0  0  0  0  0  0  0  0  0  0  0  0
   13.9391   44.2734    4.6269 C   0  0  0  0  0  0  0  0  0  0  0  0
   13.0432   44.6136    3.4891 C   0  0  0  0  0  0  0  0  0  0  0  0
   12.0716   45.7005    3.9043 C   0  0  0  0  0  0  0  0  0  0  0  0
   15.7111   42.4785    6.5443 C   0  0  0  0  0  0  0  0  0  0  0  0
   16.7056   42.7479    5.6093 C   0  0  0  0  0  0  0  0  0  0  0  0
   18.0061   42.3145    5.9196 C   0  0  0  0  0  0  0  0  0  0  0  0
   19.0598   42.5607    5.0376 C   0  0  0  0  0  0  0  0  0  0  0  0
   20.3589   42.1246    5.3473 C   0  0  0  0  0  0  0  0  0  0  0  0
   21.2903   43.0445    3.2483 C   0  0  0  0  0  0  0  0  0  0  0  0
   20.5921   41.4392    6.5457 C   0  0  0  0  0  0  0  0  0  0  0  0
   19.5462   41.1837    7.4377 C   0  0  0  0  0  0  0  0  0  0  0  0
   18.2521   41.6143    7.1400 C   0  0  0  0  0  0  0  0  0  0  0  0
   15.9835   41.7951    7.6935 C   0  0  0  0  0  0  0  0  0  0  0  0
   14.8536   41.5906    8.3886 N   0  0  0  0  0  0  0  0  0  0  0  0
   13.8400   42.1258    7.7125 N   0  0  0  0  0  0  0  0  0  0  0  0
   13.5165   43.3009    5.5878 N   0  0  0  0  0  0  0  0  0  0  0  0
   17.2285   41.3568    8.0084 N   0  0  0  0  0  0  0  0  0  0  0  0
   15.0200   44.9027    4.7733 O   0  0  0  0  0  0  0  0  0  0  0  0
   21.4333   42.3580    4.4844 O   0  0  0  0  0  0  0  0  0  0  0  0
  1  2  1  0
  2  3  1  0
  3  4  1  0
  4 19  1  0
  5 21  1  0
  5  9  1  0
  7  6  1  0
  7  8  1  0
 10 11  2  0
 12 13  2  0
 13 24  1  0
 14 24  1  0
 15 16  2  0
 17 22  2  0
 17 11  1  0
 18 19  1  0
 18  9  2  0
 19 20  1  0
 21  6  1  0
  5 20  2  0
  6 23  2  0
  9 10  1  0
 11 12  1  0
 13 15  1  0
 16 17  1  0
 18 22  1  0
M  END
>  <rmsd>  (88) 
0.163044244

$$$$
MolPort-007-723-454 CHEMBL1438645 ChemDiv-E157-5493 MCULE-7289933255 PubChem-22518014
     RDKit          3D

 28 30  0  0  0  0  0  0  0  0999 V2000
   13.5508   44.6969    2.2547 C   0  0  0  0  0  0  0  0  0  0  0  0
   12.9713   44.8877    3.6434 C   0  0  1  0  0  0  0  0  0  0  0  0
   11.4551   46.7272    4.3067 C   0  0  0  0  0  0  0  0  0  0  0  0
   11.2743   48.0995    4.5091 C   0  0  0  0  0  0  0  0  0  0  0  0
   10.0406   48.5919    4.9455 C   0  0  0  0  0  0  0  0  0  0  0  0
    8.9802   47.7125    5.1825 C   0  0  0  0  0  0  0  0  0  0  0  0
    9.1531   46.3402    4.9838 C   0  0  0  0  0  0  0  0  0  0  0  0
   10.3862   45.8476    4.5472 C   0  0  0  0  0  0  0  0  0  0  0  0
   13.9048   44.3699    4.6851 C   0  0  0  0  0  0  0  0  0  0  0  0
   14.2469   42.7341    6.5948 C   0  0  0  0  0  0  0  0  0  0  0  0
   15.1617   41.5102    8.4287 C   0  0  0  0  0  0  0  0  0  0  0  0
   13.5327   39.3479   11.2883 C   0  0  0  0  0  0  0  0  0  0  0  0
   13.8939   41.8201   11.5893 C   0  0  0  0  0  0  0  0  0  0  0  0
   12.8147   41.8841   12.4875 C   0  0  0  0  0  0  0  0  0  0  0  0
   12.4614   43.0937   13.0924 C   0  0  0  0  0  0  0  0  0  0  0  0
   13.1837   44.2545   12.8069 C   0  0  0  0  0  0  0  0  0  0  0  0
   14.2591   44.2057   11.9173 C   0  0  0  0  0  0  0  0  0  0  0  0
   14.6116   42.9958   11.3130 C   0  0  0  0  0  0  0  0  0  0  0  0
   12.7003   46.2654    3.8706 O   0  0  0  0  0  0  0  0  0  0  0  0
   15.0524   44.8770    4.8132 O   0  0  0  0  0  0  0  0  0  0  0  0
   16.8249   40.9110   10.4283 O   0  0  0  0  0  0  0  0  0  0  0  0
   15.6863   39.0623    9.3034 O   0  0  0  0  0  0  0  0  0  0  0  0
   13.4699   43.3082    5.5399 N   0  0  0  0  0  0  0  0  0  0  0  0
   15.5001   43.1245    6.9172 N   0  0  0  0  0  0  0  0  0  0  0  0
   16.0090   42.4424    7.9412 N   0  0  0  0  0  0  0  0  0  0  0  0
   14.2546   40.5710   10.9650 N   0  0  0  0  0  0  0  0  0  0  0  0
   13.7004   41.4940    7.5918 S   0  0  0  0  0  0  0  0  0  0  0  0
   15.5346   40.4759    9.7921 S   0  0  0  0  0  0  0  0  0  0  0  0
  2  1  1  6
  2 19  1  0
  2  9  1  0
  3 19  1  0
  4  5  2  0
  6  7  2  0
  8  3  2  0
  9 23  1  0
 10 27  1  0
 11 27  1  0
 12 26  1  0
 14 15  2  0
 16 17  2  0
 18 13  2  0
 23 10  1  0
 24 25  1  0
 26 13  1  0
 28 11  1  0
 28 26  1  0
  3  4  1  0
  5  6  1  0
  7  8  1  0
  9 20  2  0
 10 24  2  0
 11 25  2  0
 13 14  1  0
 15 16  1  0
 17 18  1  0
 28 21  2  0
 28 22  2  0
M  END
>  <rmsd>  (89) 
0.193757236

$$$$
MolPort-002-865-757 5681533 CSSS00138423837 MCULE-7784784848 PubChem-3558481 ZINC000005681533 ZINC05681533
     RDKit          3D

 23 25  0  0  0  0  0  0  0  0999 V2000
   15.0438   44.8769    4.8020 O   0  0  0  0  0  0  0  0  0  0  0  0
   17.1737   42.6283    8.4186 O   0  0  0  0  0  0  0  0  0  0  0  0
   16.7111   40.2661    9.7968 O   0  0  0  0  0  0  0  0  0  0  0  0
   13.8991   44.3624    4.6739 C   0  0  0  0  0  0  0  0  0  0  0  0
   14.2668   42.7574    6.6063 C   0  0  0  0  0  0  0  0  0  0  0  0
   16.0131   42.4215    7.9745 C   0  0  0  0  0  0  0  0  0  0  0  0
   15.5032   40.5536    9.5734 C   0  0  0  0  0  0  0  0  0  0  0  0
   14.4555   39.9245   10.4092 C   0  0  0  0  0  0  0  0  0  0  0  0
   14.7599   38.7811   11.1643 C   0  0  0  0  0  0  0  0  0  0  0  0
   13.7912   38.1898   11.9805 C   0  0  0  0  0  0  0  0  0  0  0  0
   12.5100   38.7414   12.0555 C   0  0  0  0  0  0  0  0  0  0  0  0
   12.1991   39.8860   11.3174 C   0  0  0  0  0  0  0  0  0  0  0  0
   13.1690   40.4763   10.5021 C   0  0  0  0  0  0  0  0  0  0  0  0
   12.9917   44.8467    3.6187 C   0  0  0  0  0  0  0  0  0  0  0  0
   11.7165   44.2826    3.4667 C   0  0  0  0  0  0  0  0  0  0  0  0
   10.8549   44.7413    2.4660 C   0  0  0  0  0  0  0  0  0  0  0  0
   11.2621   45.7679    1.6097 C   0  0  0  0  0  0  0  0  0  0  0  0
   12.5308   46.3357    1.7539 C   0  0  0  0  0  0  0  0  0  0  0  0
   13.3925   45.8770    2.7546 C   0  0  0  0  0  0  0  0  0  0  0  0
   13.4764   43.3093    5.5497 N   0  0  0  0  0  0  0  0  0  0  0  0
   15.5234   43.1445    6.9214 N   0  0  0  0  0  0  0  0  0  0  0  0
   15.1858   41.4800    8.5168 N   0  0  0  0  0  0  0  0  0  0  0  0
   13.7826   41.5331    7.6221 S   0  0  0  0  0  0  0  0  0  0  0  0
  4 20  1  0
  4 14  1  0
  5 23  1  0
  6 21  1  0
  6 22  1  0
  7  8  1  0
  9 10  2  0
 11 12  2  0
 13  8  2  0
 15 16  2  0
 17 18  2  0
 19 14  2  0
 20  5  1  0
 22 23  1  0
 22  7  1  0
  4  1  2  0
  5 21  2  0
  6  2  2  0
  7  3  2  0
  8  9  1  0
 10 11  1  0
 12 13  1  0
 14 15  1  0
 16 17  1  0
 18 19  1  0
M  END
>  <rmsd>  (90) 
0.19578284

$$$$
MolPort-004-989-144 CSSS09880947379 MCULE-5344949372 PubChem-45163881
     RDKit          3D

 34 38  0  0  0  0  0  0  0  0999 V2000
   12.6481   38.0430    6.6373 C   0  0  0  0  0  0  0  0  0  0  0  0
   13.3824   40.3930    6.5891 C   0  0  0  0  0  0  0  0  0  0  0  0
   14.2093   41.4807    7.1564 C   0  0  0  0  0  0  0  0  0  0  0  0
   14.2810   42.7871    6.6634 C   0  0  0  0  0  0  0  0  0  0  0  0
   15.1321   43.4760    7.5100 C   0  0  0  0  0  0  0  0  0  0  0  0
   15.5075   44.8141    7.5831 C   0  0  0  0  0  0  0  0  0  0  0  0
   16.3643   45.1969    8.6294 C   0  0  0  0  0  0  0  0  0  0  0  0
   16.7885   44.2261    9.5701 C   0  0  0  0  0  0  0  0  0  0  0  0
   15.5568   42.5743    8.4471 C   0  0  0  0  0  0  0  0  0  0  0  0
   15.1932   40.1921    9.1038 C   0  0  0  0  0  0  0  0  0  0  0  0
   14.3067   40.2952   10.3358 C   0  0  2  0  0  0  0  0  0  0  0  0
   14.6104   39.1576   11.2760 C   0  0  0  0  0  0  0  0  0  0  0  0
   13.2771   38.8517   11.8641 C   0  0  0  0  0  0  0  0  0  0  0  0
   12.3259   39.2824   10.7772 C   0  0  0  0  0  0  0  0  0  0  0  0
   17.6605   47.1294    9.7434 C   0  0  2  0  0  0  0  0  0  0  0  0
   19.0195   46.4700    9.7299 C   0  0  0  0  0  0  0  0  0  0  0  0
   19.6988   46.8784   11.0156 C   0  0  0  0  0  0  0  0  0  0  0  0
   17.0736   46.9684   11.1309 C   0  0  0  0  0  0  0  0  0  0  0  0
   13.8535   44.4414    4.7654 C   0  0  0  0  0  0  0  0  0  0  0  0
   12.8396   45.0520    3.8881 C   0  0  0  0  0  0  0  0  0  0  0  0
   11.5321   44.5449    3.8567 C   0  0  0  0  0  0  0  0  0  0  0  0
   10.5686   45.1244    3.0257 C   0  0  0  0  0  0  0  0  0  0  0  0
   10.9052   46.2163    2.2213 C   0  0  0  0  0  0  0  0  0  0  0  0
   12.2053   46.7288    2.2474 C   0  0  0  0  0  0  0  0  0  0  0  0
   13.1690   46.1486    3.0773 C   0  0  0  0  0  0  0  0  0  0  0  0
   13.4368   39.1112    7.1393 O   0  0  0  0  0  0  0  0  0  0  0  0
   12.6293   40.6245    5.6037 O   0  0  0  0  0  0  0  0  0  0  0  0
   12.9472   40.2531    9.9693 O   0  0  0  0  0  0  0  0  0  0  0  0
   15.0342   44.8839    4.7623 O   0  0  0  0  0  0  0  0  0  0  0  0
   16.3734   42.9285    9.4715 N   0  0  0  0  0  0  0  0  0  0  0  0
   15.0144   41.3590    8.2466 N   0  0  0  0  0  0  0  0  0  0  0  0
   16.7802   46.5666    8.7214 N   0  0  0  0  0  0  0  0  0  0  0  0
   13.5067   43.3121    5.5764 N   0  0  0  0  0  0  0  0  0  0  0  0
   18.4419   46.9325   12.3309 S   0  0  0  0  0  0  0  0  0  0  0  0
  1 26  1  0
  2 26  1  0
  2  3  1  0
  4  5  1  0
  4 33  1  0
  6  7  2  0
  7 32  1  0
  8 30  2  0
  9 31  1  0
  9  5  2  0
 10 31  1  0
 11 10  1  6
 11 12  1  0
 11 28  1  0
 12 13  1  0
 13 14  1  0
 14 28  1  0
 15 32  1  6
 15 16  1  0
 16 17  1  0
 17 34  1  0
 18 34  1  0
 18 15  1  0
 19 20  1  0
 21 22  2  0
 23 24  2  0
 25 20  2  0
 31  3  1  0
 33 19  1  0
  2 27  2  0
  3  4  2  0
  5  6  1  0
  7  8  1  0
  9 30  1  0
 19 29  2  0
 20 21  1  0
 22 23  1  0
 24 25  1  0
M  END
>  <rmsd>  (91) 
0.182124659

$$$$
MolPort-002-859-468 CSSS00138420673 MCULE-9691580979
     RDKit          3D

 25 27  0  0  0  0  0  0  0  0999 V2000
   16.6944   46.4901    4.0212 C   0  0  0  0  0  0  0  0  0  0  0  0
   13.9037   44.3142    4.6717 C   0  0  0  0  0  0  0  0  0  0  0  0
   14.2420   42.7847    6.6805 C   0  0  0  0  0  0  0  0  0  0  0  0
   15.7470   42.4558    8.0783 C   0  0  0  0  0  0  0  0  0  0  0  0
   17.0018   41.6215    9.8669 C   0  0  0  0  0  0  0  0  0  0  0  0
   15.9555   40.7351   10.1891 C   0  0  0  0  0  0  0  0  0  0  0  0
   14.7856   40.7505    9.4077 C   0  0  0  0  0  0  0  0  0  0  0  0
   13.6366   39.8100    9.6609 C   0  0  2  0  0  0  0  0  0  0  0  0
   13.5259   39.3274   11.1024 C   0  0  0  0  0  0  0  0  0  0  0  0
   14.5675   37.7044    8.6395 C   0  0  0  0  0  0  0  0  0  0  0  0
   15.6529   37.6185    9.5263 C   0  0  0  0  0  0  0  0  0  0  0  0
   16.5848   36.5843    9.4058 C   0  0  0  0  0  0  0  0  0  0  0  0
   17.7310   36.5044   10.3476 C   0  0  0  0  0  0  0  0  0  0  0  0
   16.4380   35.6265    8.3992 C   0  0  0  0  0  0  0  0  0  0  0  0
   15.3592   35.7039    7.5142 C   0  0  0  0  0  0  0  0  0  0  0  0
   15.2021   34.6855    6.4437 C   0  0  0  0  0  0  0  0  0  0  0  0
   14.4280   36.7398    7.6353 C   0  0  0  0  0  0  0  0  0  0  0  0
   15.4303   45.8651    3.8961 O   0  0  0  0  0  0  0  0  0  0  0  0
   13.6119   38.7279    8.7258 O   0  0  0  0  0  0  0  0  0  0  0  0
   15.0573   44.8855    4.7847 N   0  0  0  0  0  0  0  0  0  0  0  0
   13.4800   43.2898    5.5782 N   0  0  0  0  0  0  0  0  0  0  0  0
   13.7746   41.8100    7.4971 N   0  0  0  0  0  0  0  0  0  0  0  0
   14.7453   41.6237    8.3693 N   0  0  0  0  0  0  0  0  0  0  0  0
   15.4873   43.2256    7.0083 N   0  0  0  0  0  0  0  0  0  0  0  0
   16.8873   42.4777    8.8098 N   0  0  0  0  0  0  0  0  0  0  0  0
  1 18  1  0
  2 21  1  0
  3 24  1  0
  4 25  1  0
  5  6  1  0
  7 23  1  0
  8  7  1  0
  8  9  1  1
  8 19  1  0
 10 19  1  0
 11 12  2  0
 13 12  1  0
 14 15  2  0
 16 15  1  0
 17 10  2  0
 18 20  1  0
 21  3  1  0
 23 22  1  0
 23  4  1  0
  2 20  2  0
  3 22  2  0
  4 24  2  0
  5 25  2  0
  6  7  2  0
 10 11  1  0
 12 14  1  0
 15 17  1  0
M  END
>  <rmsd>  (92) 
0.194248006

$$$$
MolPort-002-628-688 5499559 PubChem-1630919 ZINC000005499559 ZINC05499559
     RDKit          3D

 24 26  0  0  0  0  0  0  0  0999 V2000
   13.3617   38.5649   11.2192 C   0  0  0  0  0  0  0  0  0  0  0  0
   13.2320   40.0564   11.4656 C   0  0  0  0  0  0  0  0  0  0  0  0
   13.3093   40.8186   10.1552 C   0  0  0  0  0  0  0  0  0  0  0  0
   14.7472   40.8724    9.6558 C   0  0  0  0  0  0  0  0  0  0  0  0
   14.3428   42.6901    6.5869 C   0  0  0  0  0  0  0  0  0  0  0  0
   13.9395   44.2732    4.6271 C   0  0  0  0  0  0  0  0  0  0  0  0
   13.0435   44.6135    3.4894 C   0  0  0  0  0  0  0  0  0  0  0  0
   12.0693   45.6971    3.9065 C   0  0  0  0  0  0  0  0  0  0  0  0
   11.1618   46.0346    2.7426 C   0  0  0  0  0  0  0  0  0  0  0  0
   15.7115   42.4785    6.5444 C   0  0  0  0  0  0  0  0  0  0  0  0
   16.7059   42.7482    5.6094 C   0  0  0  0  0  0  0  0  0  0  0  0
   18.0065   42.3151    5.9195 C   0  0  0  0  0  0  0  0  0  0  0  0
   19.0605   42.5618    5.0373 C   0  0  0  0  0  0  0  0  0  0  0  0
   20.3515   42.1256    5.3514 C   0  0  0  0  0  0  0  0  0  0  0  0
   21.4710   42.3906    4.4110 C   0  0  0  0  0  0  0  0  0  0  0  0
   20.5933   41.4398    6.5469 C   0  0  0  0  0  0  0  0  0  0  0  0
   19.5474   41.1838    7.4393 C   0  0  0  0  0  0  0  0  0  0  0  0
   18.2526   41.6146    7.1408 C   0  0  0  0  0  0  0  0  0  0  0  0
   15.9837   41.7951    7.6937 C   0  0  0  0  0  0  0  0  0  0  0  0
   14.8538   41.5903    8.3885 N   0  0  0  0  0  0  0  0  0  0  0  0
   13.8402   42.1253    7.7122 N   0  0  0  0  0  0  0  0  0  0  0  0
   13.5170   43.3004    5.5877 N   0  0  0  0  0  0  0  0  0  0  0  0
   17.2288   41.3570    8.0088 N   0  0  0  0  0  0  0  0  0  0  0  0
   15.0199   44.9030    4.7739 O   0  0  0  0  0  0  0  0  0  0  0  0
  1  2  1  0
  2  3  1  0
  3  4  1  0
  4 20  1  0
  5 22  1  0
  5 10  1  0
  7  6  1  0
  7  8  1  0
  8  9  1  0
 11 12  2  0
 13 14  2  0
 15 14  1  0
 16 17  2  0
 18 23  2  0
 18 12  1  0
 19 20  1  0
 19 10  2  0
 20 21  1  0
 22  6  1  0
  5 21  2  0
  6 24  2  0
 10 11  1  0
 12 13  1  0
 14 16  1  0
 17 18  1  0
 19 23  1  0
M  END
>  <rmsd>  (93) 
0.163135812

$$$$
MolPort-006-844-843 20595011 ChemDiv-E135-0291 MCULE-3451746067 PubChem-17253599 ZINC000020595011 ZINC20595011
     RDKit          3D

 29 31  0  0  0  0  0  0  0  0999 V2000
   13.1733   38.5836   11.0747 C   0  0  0  0  0  0  0  0  0  0  0  0
   13.8314   39.8642   11.5529 C   0  0  0  0  0  0  0  0  0  0  0  0
   13.8210   40.9087   10.4513 C   0  0  0  0  0  0  0  0  0  0  0  0
   14.8733   40.5848    9.4026 C   0  0  0  0  0  0  0  0  0  0  0  0
   13.8410   41.7666    7.4704 C   0  0  0  0  0  0  0  0  0  0  0  0
   14.2537   42.7791    6.6348 C   0  0  0  0  0  0  0  0  0  0  0  0
   13.9001   44.3619    4.6696 C   0  0  0  0  0  0  0  0  0  0  0  0
   13.0058   44.8239    3.5793 C   0  0  0  0  0  0  0  0  0  0  0  0
   13.5674   45.4930    2.5586 C   0  0  0  0  0  0  0  0  0  0  0  0
   12.8831   46.0212    1.3499 C   0  0  0  0  0  0  0  0  0  0  0  0
   10.8869   44.1796    4.8203 C   0  0  0  0  0  0  0  0  0  0  0  0
   13.6631   46.8096    0.3693 C   0  0  0  0  0  0  0  0  0  0  0  0
   15.0271   47.0672    0.5790 C   0  0  0  0  0  0  0  0  0  0  0  0
   15.7611   47.8123   -0.3478 C   0  0  0  0  0  0  0  0  0  0  0  0
   15.1451   48.3123   -1.4986 C   0  0  0  0  0  0  0  0  0  0  0  0
   15.3614   49.5987   -3.6002 C   0  0  0  0  0  0  0  0  0  0  0  0
   13.7817   48.0589   -1.7145 C   0  0  0  0  0  0  0  0  0  0  0  0
   13.0481   47.3138   -0.7876 C   0  0  0  0  0  0  0  0  0  0  0  0
   15.5195   43.1676    7.0339 C   0  0  0  0  0  0  0  0  0  0  0  0
   14.8493   41.5780    8.3414 N   0  0  0  0  0  0  0  0  0  0  0  0
   13.4837   43.3114    5.5516 N   0  0  0  0  0  0  0  0  0  0  0  0
   11.6241   45.7955    1.1204 N   0  0  0  0  0  0  0  0  0  0  0  0
   11.5882   44.5573    3.6025 N   0  0  0  0  0  0  0  0  0  0  0  0
   15.8552   42.4005    8.0894 N   0  0  0  0  0  0  0  0  0  0  0  0
   15.0461   44.8754    4.7969 O   0  0  0  0  0  0  0  0  0  0  0  0
   10.2358   43.5871    1.5475 O   0  0  0  0  0  0  0  0  0  0  0  0
    9.4278   45.6821    2.5714 O   0  0  0  0  0  0  0  0  0  0  0  0
   15.9063   49.0537   -2.4062 O   0  0  0  0  0  0  0  0  0  0  0  0
   10.6418   44.8789    2.1980 S   0  0  0  0  0  0  0  0  0  0  0  0
  1  2  1  0
  2  3  1  0
  3  4  1  0
  4 20  1  0
  6 21  1  0
  6 19  1  0
  7  8  1  0
  9 10  1  0
 10 12  1  0
 11 23  1  0
 13 14  2  0
 15 28  1  0
 15 17  2  0
 16 28  1  0
 18 12  2  0
 20  5  1  0
 20 24  1  0
 21  7  1  0
 23  8  1  0
 29 22  1  0
 29 23  1  0
  5  6  2  0
  7 25  2  0
  8  9  2  0
 10 22  2  0
 12 13  1  0
 14 15  1  0
 17 18  1  0
 19 24  2  0
 29 26  2  0
 29 27  2  0
M  END
>  <rmsd>  (94) 
0.169874594

$$$$
MolPort-002-604-220 2379556 CSSS00132751994 LN00663321 MCULE-5847717623 PubChem-1987692 ZINC000002379556 ZINC02379556
     RDKit          3D

 21 23  0  0  0  0  0  0  0  0999 V2000
   13.3616   38.5626   11.2170 C   0  0  0  0  0  0  0  0  0  0  0  0
   13.2289   40.0536   11.4641 C   0  0  0  0  0  0  0  0  0  0  0  0
   13.3069   40.8168   10.1542 C   0  0  0  0  0  0  0  0  0  0  0  0
   14.7455   40.8733    9.6571 C   0  0  0  0  0  0  0  0  0  0  0  0
   14.3426   42.6920    6.5885 C   0  0  0  0  0  0  0  0  0  0  0  0
   13.9369   44.2774    4.6308 C   0  0  0  0  0  0  0  0  0  0  0  0
   13.0487   44.6053    3.4858 C   0  0  0  0  0  0  0  0  0  0  0  0
   15.7119   42.4827    6.5479 C   0  0  0  0  0  0  0  0  0  0  0  0
   16.7072   42.7540    5.6144 C   0  0  0  0  0  0  0  0  0  0  0  0
   18.0080   42.3225    5.9261 C   0  0  0  0  0  0  0  0  0  0  0  0
   19.0630   42.5709    5.0453 C   0  0  0  0  0  0  0  0  0  0  0  0
   20.3538   42.1359    5.3615 C   0  0  0  0  0  0  0  0  0  0  0  0
   20.5954   41.4503    6.5571 C   0  0  0  0  0  0  0  0  0  0  0  0
   19.5484   41.1927    7.4477 C   0  0  0  0  0  0  0  0  0  0  0  0
   18.2534   41.6219    7.1474 C   0  0  0  0  0  0  0  0  0  0  0  0
   15.9835   41.7991    7.6974 C   0  0  0  0  0  0  0  0  0  0  0  0
   14.8529   41.5922    8.3904 N   0  0  0  0  0  0  0  0  0  0  0  0
   13.8394   42.1259    7.7128 N   0  0  0  0  0  0  0  0  0  0  0  0
   13.5168   43.3010    5.5882 N   0  0  0  0  0  0  0  0  0  0  0  0
   17.2287   41.3626    8.0139 N   0  0  0  0  0  0  0  0  0  0  0  0
   15.0198   44.9032    4.7726 O   0  0  0  0  0  0  0  0  0  0  0  0
  1  2  1  0
  2  3  1  0
  3  4  1  0
  4 17  1  0
  5 19  1  0
  5  8  1  0
  7  6  1  0
  9 10  2  0
 11 12  2  0
 13 14  2  0
 15 20  2  0
 15 10  1  0
 16 17  1  0
 16  8  2  0
 17 18  1  0
 19  6  1  0
  5 18  2  0
  6 21  2  0
  8  9  1  0
 10 11  1  0
 12 13  1  0
 14 15  1  0
 16 20  1  0
M  END
>  <rmsd>  (95) 
0.162486181

$$$$
MolPort-002-614-058 2421009 PubChem-1626256 ZINC000002421009 ZINC02421009
     RDKit          3D

 27 30  0  0  0  0  0  0  0  0999 V2000
   12.7970   39.6921   11.7473 C   0  0  0  0  0  0  0  0  0  0  0  0
   13.7799   38.9627   10.8507 C   0  0  0  0  0  0  0  0  0  0  0  0
   13.9132   39.6777    9.5183 C   0  0  0  0  0  0  0  0  0  0  0  0
   14.7564   40.9326    9.6720 C   0  0  0  0  0  0  0  0  0  0  0  0
   14.3505   42.6983    6.5893 C   0  0  0  0  0  0  0  0  0  0  0  0
   13.9360   44.2706    4.6210 C   0  0  0  0  0  0  0  0  0  0  0  0
   13.0693   44.5749    3.4695 C   0  0  0  0  0  0  0  0  0  0  0  0
   13.4467   45.5377    2.5239 C   0  0  0  0  0  0  0  0  0  0  0  0
   11.4564   45.1673    1.2835 C   0  0  0  0  0  0  0  0  0  0  0  0
   11.0396   44.2000    2.1997 C   0  0  0  0  0  0  0  0  0  0  0  0
   11.8522   43.9053    3.2955 C   0  0  0  0  0  0  0  0  0  0  0  0
   15.7187   42.4810    6.5363 C   0  0  0  0  0  0  0  0  0  0  0  0
   16.7056   42.7369    5.5908 C   0  0  0  0  0  0  0  0  0  0  0  0
   18.0080   42.3033    5.8933 C   0  0  0  0  0  0  0  0  0  0  0  0
   19.0495   42.5404    4.9945 C   0  0  0  0  0  0  0  0  0  0  0  0
   20.3434   42.1072    5.2938 C   0  0  0  0  0  0  0  0  0  0  0  0
   20.6030   41.4339    6.4913 C   0  0  0  0  0  0  0  0  0  0  0  0
   19.5742   41.1843    7.4051 C   0  0  0  0  0  0  0  0  0  0  0  0
   19.8929   40.4610    8.6692 C   0  0  0  0  0  0  0  0  0  0  0  0
   18.2669   41.6143    7.1205 C   0  0  0  0  0  0  0  0  0  0  0  0
   15.9991   41.8097    7.6893 C   0  0  0  0  0  0  0  0  0  0  0  0
   14.8735   41.6146    8.3927 N   0  0  0  0  0  0  0  0  0  0  0  0
   13.8553   42.1478    7.7253 N   0  0  0  0  0  0  0  0  0  0  0  0
   13.5189   43.3008    5.5903 N   0  0  0  0  0  0  0  0  0  0  0  0
   12.6410   45.8108    1.4626 N   0  0  0  0  0  0  0  0  0  0  0  0
   17.2446   41.3711    7.9986 N   0  0  0  0  0  0  0  0  0  0  0  0
   15.0181   44.8990    4.7740 O   0  0  0  0  0  0  0  0  0  0  0  0
  1  2  1  0
  2  3  1  0
  3  4  1  0
  4 22  1  0
  5 24  1  0
  5 12  1  0
  6  7  1  0
  8 25  2  0
  9 10  2  0
 11  7  2  0
 13 14  2  0
 15 16  2  0
 17 18  2  0
 19 18  1  0
 20 26  2  0
 20 14  1  0
 21 22  1  0
 21 12  2  0
 22 23  1  0
 24  6  1  0
  5 23  2  0
  6 27  2  0
  7  8  1  0
  9 25  1  0
 10 11  1  0
 12 13  1  0
 14 15  1  0
 16 17  1  0
 18 20  1  0
 21 26  1  0
M  END
>  <rmsd>  (96) 
0.165461868

$$$$
MolPort-002-630-792 2343945 LN00716437 PubChem-1618750 ZINC000002343945 ZINC02343945
     RDKit          3D

 30 33  0  0  0  0  0  0  0  0999 V2000
   12.7750   39.6728   11.7367 C   0  0  0  0  0  0  0  0  0  0  0  0
   13.7714   38.9517   10.8483 C   0  0  0  0  0  0  0  0  0  0  0  0
   13.9116   39.6693    9.5180 C   0  0  0  0  0  0  0  0  0  0  0  0
   14.7442   40.9302    9.6807 C   0  0  0  0  0  0  0  0  0  0  0  0
   14.3497   42.6987    6.5978 C   0  0  0  0  0  0  0  0  0  0  0  0
   13.9397   44.2652    4.6264 C   0  0  0  0  0  0  0  0  0  0  0  0
   13.0399   44.5958    3.4906 C   0  0  0  0  0  0  0  0  0  0  0  0
   11.1424   46.1146    3.0318 C   0  0  0  0  0  0  0  0  0  0  0  0
   10.2752   47.1045    3.5067 C   0  0  0  0  0  0  0  0  0  0  0  0
    9.2876   47.6376    2.6727 C   0  0  0  0  0  0  0  0  0  0  0  0
    9.1626   47.1822    1.3571 C   0  0  0  0  0  0  0  0  0  0  0  0
   10.0249   46.1937    0.8749 C   0  0  0  0  0  0  0  0  0  0  0  0
   11.0122   45.6606    1.7086 C   0  0  0  0  0  0  0  0  0  0  0  0
   15.7204   42.4938    6.5559 C   0  0  0  0  0  0  0  0  0  0  0  0
   16.7140   42.7626    5.6200 C   0  0  0  0  0  0  0  0  0  0  0  0
   18.0172   42.3401    5.9347 C   0  0  0  0  0  0  0  0  0  0  0  0
   19.0698   42.5866    5.0511 C   0  0  0  0  0  0  0  0  0  0  0  0
   20.3671   42.1645    5.3618 C   0  0  0  0  0  0  0  0  0  0  0  0
   22.7434   42.0382    4.6863 C   0  0  0  0  0  0  0  0  0  0  0  0
   20.6073   41.4875    6.5703 C   0  0  0  0  0  0  0  0  0  0  0  0
   19.5632   41.2318    7.4638 C   0  0  0  0  0  0  0  0  0  0  0  0
   18.2666   41.6515    7.1612 C   0  0  0  0  0  0  0  0  0  0  0  0
   15.9968   41.8216    7.7106 C   0  0  0  0  0  0  0  0  0  0  0  0
   14.8668   41.6153    8.4037 N   0  0  0  0  0  0  0  0  0  0  0  0
   13.8500   42.1418    7.7288 N   0  0  0  0  0  0  0  0  0  0  0  0
   13.5207   43.2997    5.5954 N   0  0  0  0  0  0  0  0  0  0  0  0
   17.2440   41.3940    8.0308 N   0  0  0  0  0  0  0  0  0  0  0  0
   15.0165   44.9018    4.7678 O   0  0  0  0  0  0  0  0  0  0  0  0
   12.1186   45.6020    3.8900 O   0  0  0  0  0  0  0  0  0  0  0  0
   21.3969   42.4291    4.4549 O   0  0  0  0  0  0  0  0  0  0  0  0
  1  2  1  0
  2  3  1  0
  3  4  1  0
  4 24  1  0
  5 26  1  0
  5 14  1  0
  7  6  1  0
  7 29  1  0
  8 29  1  0
  9 10  2  0
 11 12  2  0
 13  8  2  0
 15 16  2  0
 17 18  2  0
 18 30  1  0
 19 30  1  0
 20 21  2  0
 22 27  2  0
 22 16  1  0
 23 24  1  0
 23 14  2  0
 24 25  1  0
 26  6  1  0
  5 25  2  0
  6 28  2  0
  8  9  1  0
 10 11  1  0
 12 13  1  0
 14 15  1  0
 16 17  1  0
 18 20  1  0
 21 22  1  0
 23 27  1  0
M  END
>  <rmsd>  (97) 
0.163969487

$$$$
MolPort-001-630-073 2865909 CHEMBL1306485 CSSS00132429918 MCULE-4256763631 PubChem-2219062 ZINC000002865909 ZINC02865909
     RDKit          3D

 22 23  0  0  0  0  0  0  0  0999 V2000
   13.1704   38.6475   11.0385 C   0  0  0  0  0  0  0  0  0  0  0  0
   13.8304   39.9341   11.4976 C   0  0  0  0  0  0  0  0  0  0  0  0
   13.8212   40.9624   10.3809 C   0  0  0  0  0  0  0  0  0  0  0  0
   14.8726   40.6222    9.3376 C   0  0  0  0  0  0  0  0  0  0  0  0
   14.2659   42.7649    6.6282 C   0  0  0  0  0  0  0  0  0  0  0  0
   13.9143   44.3425    4.6733 C   0  0  0  0  0  0  0  0  0  0  0  0
   12.9933   44.8251    3.6113 C   0  0  0  0  0  0  0  0  0  0  0  0
   11.1634   46.4723    3.3760 C   0  0  0  0  0  0  0  0  0  0  0  0
   10.3682   47.4526    3.9766 C   0  0  0  0  0  0  0  0  0  0  0  0
    9.3814   48.1106    3.2380 C   0  0  0  0  0  0  0  0  0  0  0  0
    9.1798   47.7945    1.8910 C   0  0  0  0  0  0  0  0  0  0  0  0
    9.9754   46.8097    1.2797 C   0  0  0  0  0  0  0  0  0  0  0  0
    9.7929   46.4432   -0.1530 C   0  0  0  0  0  0  0  0  0  0  0  0
   10.9614   46.1545    2.0236 C   0  0  0  0  0  0  0  0  0  0  0  0
   14.8475   41.6035    8.2666 N   0  0  0  0  0  0  0  0  0  0  0  0
   15.8555   42.4071    7.9748 N   0  0  0  0  0  0  0  0  0  0  0  0
   15.5176   43.1597    6.9400 N   0  0  0  0  0  0  0  0  0  0  0  0
   13.4831   43.3046    5.5591 N   0  0  0  0  0  0  0  0  0  0  0  0
   13.8286   41.7894    7.4447 N   0  0  0  0  0  0  0  0  0  0  0  0
   15.0480   44.8765    4.8000 O   0  0  0  0  0  0  0  0  0  0  0  0
   12.1416   45.8323    4.1412 O   0  0  0  0  0  0  0  0  0  0  0  0
    7.9270   48.6485    1.0032 Cl  0  0  0  0  0  0  0  0  0  0  0  0
  1  2  1  0
  2  3  1  0
  3  4  1  0
  4 15  1  0
  5 17  1  0
  5 18  1  0
  7  6  1  0
  7 21  1  0
  8 21  1  0
  9 10  2  0
 11 22  1  0
 11 12  2  0
 13 12  1  0
 14  8  2  0
 15 16  1  0
 15 19  1  0
 18  6  1  0
  5 19  2  0
  6 20  2  0
  8  9  1  0
 10 11  1  0
 12 14  1  0
 16 17  2  0
M  END
>  <rmsd>  (98) 
0.159457415

$$$$
MolPort-006-579-735 ChemDiv-V009-7327 MCULE-1583866068 PubChem-46040699 ZINC000037544396 ZINC37544396
     RDKit          3D

 30 33  0  0  0  0  0  0  0  0999 V2000
   12.4029   35.4343    5.0952 C   0  0  0  0  0  0  0  0  0  0  0  0
   11.9808   34.8230    7.4543 C   0  0  0  0  0  0  0  0  0  0  0  0
   11.9922   33.8327    8.4424 C   0  0  0  0  0  0  0  0  0  0  0  0
   11.6022   34.1356    9.7504 C   0  0  0  0  0  0  0  0  0  0  0  0
   11.1968   35.4326   10.0768 C   0  0  0  0  0  0  0  0  0  0  0  0
   11.1762   36.4277    9.0945 C   0  0  0  0  0  0  0  0  0  0  0  0
   10.7670   37.8184    9.4486 C   0  0  0  0  0  0  0  0  0  0  0  0
   12.4052   38.4924   11.2219 C   0  0  0  0  0  0  0  0  0  0  0  0
   13.2979   39.6676   11.6056 C   0  0  0  0  0  0  0  0  0  0  0  0
   14.4150   39.7901   10.5819 C   0  0  0  0  0  0  0  0  0  0  0  0
   12.6922   39.3240    8.8548 C   0  0  0  0  0  0  0  0  0  0  0  0
   14.4351   41.1256    8.4563 C   0  0  0  0  0  0  0  0  0  0  0  0
   15.7336   41.5879    8.7276 C   0  0  0  0  0  0  0  0  0  0  0  0
   16.3005   42.6094    7.9624 C   0  0  0  0  0  0  0  0  0  0  0  0
   15.5735   43.1844    6.9186 C   0  0  0  0  0  0  0  0  0  0  0  0
   14.2739   42.7431    6.6341 C   0  0  0  0  0  0  0  0  0  0  0  0
   13.8920   44.3584    4.6779 C   0  0  0  0  0  0  0  0  0  0  0  0
   12.9601   44.8178    3.6421 C   0  0  0  0  0  0  0  0  0  0  0  0
   11.6823   44.3251    3.4275 C   0  0  0  0  0  0  0  0  0  0  0  0
   11.0271   44.9613    2.3629 C   0  0  0  0  0  0  0  0  0  0  0  0
   11.7770   45.9531    1.7343 C   0  0  0  0  0  0  0  0  0  0  0  0
   13.7150   41.7202    7.4066 C   0  0  0  0  0  0  0  0  0  0  0  0
   11.5719   36.1246    7.7877 C   0  0  0  0  0  0  0  0  0  0  0  0
   12.3796   34.4900    6.1570 O   0  0  0  0  0  0  0  0  0  0  0  0
   12.3424   39.2913    7.6430 O   0  0  0  0  0  0  0  0  0  0  0  0
   15.0309   44.8900    4.7695 O   0  0  0  0  0  0  0  0  0  0  0  0
   11.9274   38.6085    9.8429 N   0  0  0  0  0  0  0  0  0  0  0  0
   13.8508   40.0798    9.2639 N   0  0  0  0  0  0  0  0  0  0  0  0
   13.4940   43.3096    5.5726 N   0  0  0  0  0  0  0  0  0  0  0  0
   13.2627   46.0268    2.5199 S   0  0  0  0  0  0  0  0  0  0  0  0
  1 24  1  0
  2 24  1  0
  3  4  2  0
  5  6  2  0
  7  6  1  0
  7 27  1  0
  8 27  1  0
  8  9  1  0
  9 10  1  0
 10 28  1  0
 11 27  1  0
 13 14  2  0
 15 16  2  0
 16 29  1  0
 17 18  1  0
 18 30  1  0
 19 20  1  0
 21 30  1  0
 22 12  2  0
 23  2  2  0
 28 11  1  0
 28 12  1  0
 29 17  1  0
  2  3  1  0
  4  5  1  0
  6 23  1  0
 11 25  2  0
 12 13  1  0
 14 15  1  0
 16 22  1  0
 17 26  2  0
 18 19  2  0
 20 21  2  0
M  END
>  <rmsd>  (99) 
0.249635026

$$$$
MolPort-010-691-620 ChemDiv-L497-0025 MCULE-6783665137 PubChem-50829217
     RDKit          3D

 30 33  0  0  0  0  0  0  0  0999 V2000
   16.5338   42.5102    5.4389 C   0  0  0  0  0  0  0  0  0  0  0  0
   15.6650   42.5232    6.6483 C   0  0  0  0  0  0  0  0  0  0  0  0
   14.3075   42.8512    6.7101 C   0  0  0  0  0  0  0  0  0  0  0  0
   13.9754   44.1969    4.5763 C   0  0  0  0  0  0  0  0  0  0  0  0
   13.1554   44.3519    3.3379 C   0  0  1  0  0  0  0  0  0  0  0  0
   12.6348   45.7911    3.2084 C   0  0  0  0  0  0  0  0  0  0  0  0
   13.8803   45.2747    1.2947 C   0  0  0  0  0  0  0  0  0  0  0  0
   13.9886   44.0394    2.0922 C   0  0  0  0  0  0  0  0  0  0  0  0
   12.8311   47.6050    1.4244 C   0  0  0  0  0  0  0  0  0  0  0  0
   12.0560   48.4971    2.1827 C   0  0  0  0  0  0  0  0  0  0  0  0
   11.7782   49.7810    1.7056 C   0  0  0  0  0  0  0  0  0  0  0  0
   12.2727   50.1872    0.4641 C   0  0  0  0  0  0  0  0  0  0  0  0
   13.0450   49.3092   -0.3000 C   0  0  0  0  0  0  0  0  0  0  0  0
   13.3222   48.0253    0.1780 C   0  0  0  0  0  0  0  0  0  0  0  0
   13.7257   42.6095    7.9608 C   0  0  0  0  0  0  0  0  0  0  0  0
   14.6446   42.1238    8.8805 C   0  0  0  0  0  0  0  0  0  0  0  0
   14.1034   39.6408   12.1198 C   0  0  0  0  0  0  0  0  0  0  0  0
   12.8564   38.7832   12.1256 C   0  0  0  0  0  0  0  0  0  0  0  0
   12.7431   38.2719   10.7190 C   0  0  0  0  0  0  0  0  0  0  0  0
   13.4324   39.3284    9.8930 C   0  0  0  0  0  0  0  0  0  0  0  0
   13.5217   43.3110    5.6036 N   0  0  0  0  0  0  0  0  0  0  0  0
   13.1098   46.2844    1.9272 N   0  0  0  0  0  0  0  0  0  0  0  0
   14.4381   39.9671   10.7353 N   0  0  0  0  0  0  0  0  0  0  0  0
   15.0220   44.8834    4.7345 O   0  0  0  0  0  0  0  0  0  0  0  0
   14.4240   45.4147    0.1676 O   0  0  0  0  0  0  0  0  0  0  0  0
   12.8861   42.1227   10.8795 O   0  0  0  0  0  0  0  0  0  0  0  0
   15.2514   42.3903   11.4494 O   0  0  0  0  0  0  0  0  0  0  0  0
   10.8108   50.8796    2.6645 Cl  0  0  0  0  0  0  0  0  0  0  0  0
   16.1488   41.9531    8.1520 S   0  0  0  0  0  0  0  0  0  0  0  0
   14.2850   41.6852   10.5391 S   0  0  0  0  0  0  0  0  0  0  0  0
  1  2  1  0
  2 29  1  0
  3 21  1  0
  3 15  1  0
  5  4  1  1
  5  6  1  0
  6 22  1  0
  8  7  1  0
  8  5  1  0
 10 11  2  0
 11 28  1  0
 12 13  2  0
 14  9  2  0
 16 29  1  0
 17 23  1  0
 17 18  1  0
 18 19  1  0
 19 20  1  0
 20 23  1  0
 21  4  1  0
 22  7  1  0
 22  9  1  0
 30 16  1  0
 30 23  1  0
  2  3  2  0
  4 24  2  0
  7 25  2  0
  9 10  1  0
 11 12  1  0
 13 14  1  0
 15 16  2  0
 30 26  2  0
 30 27  2  0
M  END
>  <rmsd>  (100) 
0.249630034

$$$$
MolPort-039-109-620 299761846 CSSS00159666548 MCULE-1474929588 PubChem-118771978 ZINC000299761846
     RDKit          3D

 26 29  0  0  0  0  0  0  0  0999 V2000
   16.2980   47.1298    2.7045 C   0  0  0  0  0  0  0  0  0  0  0  0
   16.3842   45.5913    0.7490 C   0  0  0  0  0  0  0  0  0  0  0  0
   15.4932   44.7272    0.1333 C   0  0  0  0  0  0  0  0  0  0  0  0
   14.5026   45.6370    1.7897 C   0  0  0  0  0  0  0  0  0  0  0  0
   13.4461   45.9933    2.7877 C   0  0  0  0  0  0  0  0  0  0  0  0
   11.7013   44.3033    3.4525 C   0  0  0  0  0  0  0  0  0  0  0  0
   11.3727   43.9802    2.0028 C   0  0  0  0  0  0  0  0  0  0  0  0
   11.7360   42.8669    2.9559 C   0  0  0  0  0  0  0  0  0  0  0  0
   13.9182   44.3652    4.6405 C   0  0  0  0  0  0  0  0  0  0  0  0
   14.1926   42.7459    6.6151 C   0  0  0  0  0  0  0  0  0  0  0  0
   13.5813   41.7383    7.3687 C   0  0  0  0  0  0  0  0  0  0  0  0
   14.2492   41.1444    8.4446 C   0  0  0  0  0  0  0  0  0  0  0  0
   14.1777   39.5049   10.3083 C   0  0  0  0  0  0  0  0  0  0  0  0
   13.4078   38.2352   10.6191 C   0  0  0  0  0  0  0  0  0  0  0  0
   13.1489   38.2531   12.1081 C   0  0  0  0  0  0  0  0  0  0  0  0
   13.1000   39.7148   12.4810 C   0  0  0  0  0  0  0  0  0  0  0  0
   14.0551   40.4038   11.5303 C   0  0  0  0  0  0  0  0  0  0  0  0
   15.5491   41.5660    8.7662 C   0  0  0  0  0  0  0  0  0  0  0  0
   16.1674   42.5710    8.0190 C   0  0  0  0  0  0  0  0  0  0  0  0
   15.4915   43.1589    6.9471 C   0  0  0  0  0  0  0  0  0  0  0  0
   15.7423   46.1516    1.7851 N   0  0  0  0  0  0  0  0  0  0  0  0
   14.3116   44.7588    0.7885 N   0  0  0  0  0  0  0  0  0  0  0  0
   13.0649   44.8216    3.5748 N   0  0  0  0  0  0  0  0  0  0  0  0
   13.4678   43.3236    5.5209 N   0  0  0  0  0  0  0  0  0  0  0  0
   15.0561   44.8854    4.7994 O   0  0  0  0  0  0  0  0  0  0  0  0
   13.6022   40.1387    9.1709 O   0  0  0  0  0  0  0  0  0  0  0  0
  1 21  1  0
  3 22  1  0
  4 21  1  0
  5  4  1  0
  5 23  1  0
  6 23  1  0
  6  7  1  0
  7  8  1  0
  8  6  1  0
  9 24  1  0
 11 12  2  0
 12 26  1  0
 13 26  1  0
 13 14  1  0
 14 15  1  0
 15 16  1  0
 16 17  1  0
 17 13  1  0
 18 19  2  0
 20 10  2  0
 21  2  1  0
 23  9  1  0
 24 10  1  0
  2  3  2  0
  4 22  2  0
  9 25  2  0
 10 11  1  0
 12 18  1  0
 19 20  1  0
M  END
>  <rmsd>  (101) 
0.249628723

$$$$
MolPort-002-790-869 CSC020584203 CSSS00020584203 LN01039988 MCULE-9411463443 PubChem-17161549
     RDKit          3D

 21 22  0  0  0  0  0  0  0  0999 V2000
   15.4424   37.5573    8.5987 C   0  0  0  0  0  0  0  0  0  0  0  0
   14.4375   37.7706    9.7141 C   0  0  0  0  0  0  0  0  0  0  0  0
   14.3478   39.2443   10.0654 C   0  0  2  0  0  0  0  0  0  0  0  0
   13.5429   39.4075   11.3377 C   0  0  0  0  0  0  0  0  0  0  0  0
   14.3358   40.9959    8.3154 C   0  0  0  0  0  0  0  0  0  0  0  0
   15.6440   41.4036    8.6206 C   0  0  0  0  0  0  0  0  0  0  0  0
   16.2408   42.4445    7.9056 C   0  0  0  0  0  0  0  0  0  0  0  0
   15.5346   43.0828    6.8831 C   0  0  0  0  0  0  0  0  0  0  0  0
   14.2266   42.6847    6.5685 C   0  0  0  0  0  0  0  0  0  0  0  0
   13.8984   44.3926    4.6829 C   0  0  0  0  0  0  0  0  0  0  0  0
   13.2348   45.9551    2.7599 C   0  0  0  0  0  0  0  0  0  0  0  0
   14.4530   46.6516    2.7269 C   0  0  0  0  0  0  0  0  0  0  0  0
   14.6530   47.6831    1.8049 C   0  0  0  0  0  0  0  0  0  0  0  0
   13.6365   48.0256    0.9092 C   0  0  0  0  0  0  0  0  0  0  0  0
   12.4211   47.3364    0.9362 C   0  0  0  0  0  0  0  0  0  0  0  0
   12.2225   46.3049    1.8591 C   0  0  0  0  0  0  0  0  0  0  0  0
   13.6368   41.6411    7.2900 C   0  0  0  0  0  0  0  0  0  0  0  0
   13.7108   39.9569    9.0112 O   0  0  0  0  0  0  0  0  0  0  0  0
   15.0489   44.8910    4.8113 O   0  0  0  0  0  0  0  0  0  0  0  0
   13.4699   43.3156    5.5259 N   0  0  0  0  0  0  0  0  0  0  0  0
   12.9921   44.8913    3.6910 N   0  0  0  0  0  0  0  0  0  0  0  0
  1  2  1  0
  3  2  1  0
  3  4  1  1
  3 18  1  0
  5 18  1  0
  6  7  2  0
  8  9  2  0
  9 20  1  0
 10 21  1  0
 12 13  2  0
 14 15  2  0
 16 11  2  0
 17  5  2  0
 20 10  1  0
 21 11  1  0
  5  6  1  0
  7  8  1  0
  9 17  1  0
 10 19  2  0
 11 12  1  0
 13 14  1  0
 15 16  1  0
M  END
>  <rmsd>  (102) 
0.249624521

$$$$
MolPort-051-503-666 CSSS09880955598 CUKKFBFHUUWVRM-UHFFFAOYSA-N MCULE-6661315209 PubChem-164697507
     RDKit          3D

 23 24  0  0  0  0  0  0  0  0999 V2000
   13.9306   44.3018    4.6374 C   0  0  0  0  0  0  0  0  0  0  0  0
   14.2312   42.8681    6.7074 C   0  0  0  0  0  0  0  0  0  0  0  0
   13.8182   41.9297    7.6159 C   0  0  0  0  0  0  0  0  0  0  0  0
   14.8436   41.8474    8.5125 C   0  0  0  0  0  0  0  0  0  0  0  0
   14.7940   40.9889    9.6066 C   0  0  0  0  0  0  0  0  0  0  0  0
   13.6434   40.1831    9.7579 C   0  0  0  0  0  0  0  0  0  0  0  0
   13.5128   39.2765   10.9469 C   0  0  0  0  0  0  0  0  0  0  0  0
   12.5774   40.2926    8.8281 C   0  0  0  0  0  0  0  0  0  0  0  0
   12.6577   41.1726    7.7330 C   0  0  0  0  0  0  0  0  0  0  0  0
   13.0418   44.6984    3.5091 C   0  0  0  0  0  0  0  0  0  0  0  0
   12.1342   45.8447    3.9214 C   0  0  0  0  0  0  0  0  0  0  0  0
    9.4001   47.5371    4.0182 C   0  0  0  0  0  0  0  0  0  0  0  0
   13.4859   43.3102    5.5685 N   0  0  0  0  0  0  0  0  0  0  0  0
   15.8345   42.6925    8.1726 N   0  0  0  0  0  0  0  0  0  0  0  0
   15.4570   43.3204    7.0612 N   0  0  0  0  0  0  0  0  0  0  0  0
   11.1021   45.3633    4.8266 N   0  0  0  0  0  0  0  0  0  0  0  0
   12.9367   39.9743   11.9919 F   0  0  0  0  0  0  0  0  0  0  0  0
   12.7175   38.1865   10.6381 F   0  0  0  0  0  0  0  0  0  0  0  0
   14.7571   38.8162   11.3419 F   0  0  0  0  0  0  0  0  0  0  0  0
   15.0489   44.8657    4.7741 O   0  0  0  0  0  0  0  0  0  0  0  0
    9.1689   46.2794    6.3694 O   0  0  0  0  0  0  0  0  0  0  0  0
   11.1346   47.7083    6.0608 O   0  0  0  0  0  0  0  0  0  0  0  0
   10.2081   46.7360    5.3855 S   0  0  0  0  0  0  0  0  0  0  0  0
  1 13  1  0
  2  3  1  0
  4  5  2  0
  4 14  1  0
  6  8  2  0
  7  6  1  0
  7 17  1  0
  7 18  1  0
  7 19  1  0
  9  3  2  0
 10  1  1  0
 10 11  1  0
 11 16  1  0
 13  2  1  0
 14 15  1  0
 23 16  1  0
 23 12  1  0
  1 20  2  0
  2 15  2  0
  3  4  1  0
  5  6  1  0
  8  9  1  0
 23 21  2  0
 23 22  2  0
M  END
>  <rmsd>  (103) 
0.249624446

$$$$
Molport-053-321-052 PubChem-110111373
     RDKit          3D

 27 29  0  0  0  0  0  0  0  0999 V2000
   12.4300   46.1598    1.7495 C   0  0  0  0  0  0  0  0  0  0  0  0
   13.3712   45.7272    2.8149 C   0  0  0  0  0  0  0  0  0  0  0  0
   14.6213   46.3327    2.9281 C   0  0  0  0  0  0  0  0  0  0  0  0
   15.4757   45.8994    3.9401 C   0  0  0  0  0  0  0  0  0  0  0  0
   13.8571   44.3290    4.6612 C   0  0  0  0  0  0  0  0  0  0  0  0
   14.2006   42.7373    6.6321 C   0  0  0  0  0  0  0  0  0  0  0  0
   16.1866   42.6767    7.9407 C   0  0  0  0  0  0  0  0  0  0  0  0
   15.6596   41.6574    8.7349 C   0  0  0  0  0  0  0  0  0  0  0  0
   14.3729   41.1731    8.4648 C   0  0  0  0  0  0  0  0  0  0  0  0
   13.6416   41.7177    7.4067 C   0  0  0  0  0  0  0  0  0  0  0  0
   13.7642   40.0811    9.2860 C   0  0  2  0  0  0  0  0  0  0  0  0
   13.6209   40.5069   10.7476 C   0  0  0  0  0  0  0  0  0  0  0  0
   13.0835   39.3510   11.5852 C   0  0  0  0  0  0  0  0  0  0  0  0
   13.9595   38.1179   11.3763 C   0  0  0  0  0  0  0  0  0  0  0  0
   14.5904   38.7965    9.1918 C   0  0  0  0  0  0  0  0  0  0  0  0
   14.7959   36.5569    9.8482 C   0  0  0  0  0  0  0  0  0  0  0  0
   14.1486   35.5458    8.9555 C   0  0  0  0  0  0  0  0  0  0  0  0
   13.1295   33.2824    8.5906 C   0  0  0  0  0  0  0  0  0  0  0  0
   13.9504   33.9134   10.8608 C   0  0  0  0  0  0  0  0  0  0  0  0
   16.8177   46.5182    4.0960 C   0  0  0  0  0  0  0  0  0  0  0  0
   15.0815   44.9109    4.7843 N   0  0  0  0  0  0  0  0  0  0  0  0
   13.0129   44.7415    3.6786 N   0  0  0  0  0  0  0  0  0  0  0  0
   13.4387   43.2863    5.5502 N   0  0  0  0  0  0  0  0  0  0  0  0
   15.4541   43.1902    6.9166 N   0  0  0  0  0  0  0  0  0  0  0  0
   13.9505   37.7331    9.9658 N   0  0  0  0  0  0  0  0  0  0  0  0
   13.7513   34.2640    9.4639 N   0  0  0  0  0  0  0  0  0  0  0  0
   13.9628   35.8307    7.7414 O   0  0  0  0  0  0  0  0  0  0  0  0
  1  2  1  0
  2 22  2  0
  3  4  2  0
  5 21  2  0
  5 23  1  0
  7 24  2  0
  8  9  2  0
 10  6  2  0
 11  9  1  6
 11 12  1  0
 12 13  1  0
 13 14  1  0
 14 25  1  0
 15 25  1  0
 15 11  1  0
 16 25  1  0
 16 17  1  0
 17 26  1  0
 18 26  1  0
 19 26  1  0
 20  4  1  0
 23  6  1  0
  2  3  1  0
  4 21  1  0
  5 22  1  0
  6 24  1  0
  7  8  1  0
  9 10  1  0
 17 27  2  0
M  END
>  <rmsd>  (104) 
0.249622315

$$$$
Molport-020-293-031 MCULE-3541316291 PubChem-110265498
     RDKit          3D

 26 28  0  0  0  0  0  0  0  0999 V2000
   16.7690   46.5382    4.0109 C   0  0  0  0  0  0  0  0  0  0  0  0
   15.4275   45.9105    3.8917 C   0  0  0  0  0  0  0  0  0  0  0  0
   13.8409   44.3199    4.6770 C   0  0  0  0  0  0  0  0  0  0  0  0
   12.9324   44.7213    3.6939 C   0  0  0  0  0  0  0  0  0  0  0  0
   13.2883   45.7342    2.8016 C   0  0  0  0  0  0  0  0  0  0  0  0
   14.5439   46.3356    2.8979 C   0  0  0  0  0  0  0  0  0  0  0  0
   14.2465   42.7289    6.6575 C   0  0  0  0  0  0  0  0  0  0  0  0
   15.5416   43.1854    6.9377 C   0  0  0  0  0  0  0  0  0  0  0  0
   16.2612   42.6173    7.9890 C   0  0  0  0  0  0  0  0  0  0  0  0
   15.6878   41.6013    8.7523 C   0  0  0  0  0  0  0  0  0  0  0  0
   14.3908   41.1650    8.4500 C   0  0  0  0  0  0  0  0  0  0  0  0
   13.7376   40.0761    9.2395 C   0  0  2  0  0  0  0  0  0  0  0  0
   13.5860   40.4701   10.7018 C   0  0  0  0  0  0  0  0  0  0  0  0
   12.8921   39.3462   11.4514 C   0  0  0  0  0  0  0  0  0  0  0  0
   13.6928   38.0504   11.3070 C   0  0  0  0  0  0  0  0  0  0  0  0
   14.5199   38.7643    9.1188 C   0  0  0  0  0  0  0  0  0  0  0  0
   11.5965   36.0344    6.9604 C   0  0  0  0  0  0  0  0  0  0  0  0
   13.7809   35.5121    7.5897 C   0  0  0  0  0  0  0  0  0  0  0  0
   15.0613   44.9220    4.7513 N   0  0  0  0  0  0  0  0  0  0  0  0
   13.4640   43.2785    5.5878 N   0  0  0  0  0  0  0  0  0  0  0  0
   13.7109   41.7357    7.4187 N   0  0  0  0  0  0  0  0  0  0  0  0
   13.9231   37.6736    9.9036 N   0  0  0  0  0  0  0  0  0  0  0  0
   12.8126   36.5932    7.5257 N   0  0  0  0  0  0  0  0  0  0  0  0
   12.4634   37.0841    9.1537 S   0  0  0  0  0  0  0  0  0  0  0  0
   11.9432   35.9115    9.9404 O   0  0  0  0  0  0  0  0  0  0  0  0
   11.4133   38.1610    9.1296 O   0  0  0  0  0  0  0  0  0  0  0  0
  1  2  1  0
  3 19  2  0
  3 20  1  0
  4  5  2  0
  6  2  2  0
  7 21  2  0
  8  9  2  0
 10 11  2  0
 12 11  1  6
 12 13  1  0
 13 14  1  0
 14 15  1  0
 15 22  1  0
 16 22  1  0
 16 12  1  0
 17 23  1  0
 18 23  1  0
 20  7  1  0
 24 22  1  0
 24 23  1  0
  2 19  1  0
  3  4  1  0
  5  6  1  0
  7  8  1  0
  9 10  1  0
 11 21  1  0
 24 25  2  0
 24 26  2  0
M  END
>  <rmsd>  (105) 
0.249615058

$$$$
Molport-020-278-742 MCULE-4235539066 PubChem-110255612
     RDKit          3D

 26 29  0  0  0  0  0  0  0  0999 V2000
   17.5292   43.1465    8.2295 C   0  0  0  0  0  0  0  0  0  0  0  0
   16.1632   42.6407    7.9365 C   0  0  0  0  0  0  0  0  0  0  0  0
   14.3813   41.1696    8.4398 C   0  0  0  0  0  0  0  0  0  0  0  0
   13.6341   41.7061    7.3914 C   0  0  0  0  0  0  0  0  0  0  0  0
   14.1943   42.7270    6.6241 C   0  0  0  0  0  0  0  0  0  0  0  0
   13.8579   44.3319    4.6634 C   0  0  0  0  0  0  0  0  0  0  0  0
   12.9905   44.7630    3.6560 C   0  0  0  0  0  0  0  0  0  0  0  0
   13.3945   45.7827    2.7924 C   0  0  0  0  0  0  0  0  0  0  0  0
   14.6558   46.3611    2.9414 C   0  0  0  0  0  0  0  0  0  0  0  0
   15.4970   45.9063    3.9585 C   0  0  0  0  0  0  0  0  0  0  0  0
   13.8004   40.0748    9.2717 C   0  0  2  0  0  0  0  0  0  0  0  0
   13.6870   40.5087   10.7347 C   0  0  0  0  0  0  0  0  0  0  0  0
   13.0900   39.3844   11.5784 C   0  0  0  0  0  0  0  0  0  0  0  0
   13.9514   38.1307   11.4603 C   0  0  0  0  0  0  0  0  0  0  0  0
   14.6424   38.8046    9.1520 C   0  0  0  0  0  0  0  0  0  0  0  0
   13.7379   36.4895    9.5475 C   0  0  0  0  0  0  0  0  0  0  0  0
   13.5361   34.9848    7.7215 C   0  0  0  0  0  0  0  0  0  0  0  0
   13.0184   34.0114    8.5763 C   0  0  0  0  0  0  0  0  0  0  0  0
   13.2171   35.5068   10.4010 C   0  0  0  0  0  0  0  0  0  0  0  0
   15.6309   41.6458    8.6926 N   0  0  0  0  0  0  0  0  0  0  0  0
   15.4473   43.1735    6.9122 N   0  0  0  0  0  0  0  0  0  0  0  0
   13.4350   43.2848    5.5450 N   0  0  0  0  0  0  0  0  0  0  0  0
   15.0851   44.9115    4.7897 N   0  0  0  0  0  0  0  0  0  0  0  0
   14.1126   37.7822   10.0500 N   0  0  0  0  0  0  0  0  0  0  0  0
   13.8833   36.1986    8.2244 N   0  0  0  0  0  0  0  0  0  0  0  0
   12.8703   34.2932    9.8970 N   0  0  0  0  0  0  0  0  0  0  0  0
  1  2  1  0
  2 21  2  0
  3 20  2  0
  4  5  2  0
  5 22  1  0
  6 23  2  0
  7  8  2  0
  9 10  2  0
 11  3  1  6
 11 12  1  0
 12 13  1  0
 13 14  1  0
 14 24  1  0
 15 24  1  0
 15 11  1  0
 17 25  2  0
 18 26  2  0
 19 16  2  0
 22  6  1  0
 24 16  1  0
  2 20  1  0
  3  4  1  0
  5 21  1  0
  6  7  1  0
  8  9  1  0
 10 23  1  0
 16 25  1  0
 17 18  1  0
 19 26  1  0
M  END
>  <rmsd>  (106) 
0.249603122

$$$$
MolPort-007-967-231 ChemDiv-L497-0056 MCULE-7478783920 PubChem-46385455 ZINC000033129565 ZINC33129565
     RDKit          3D

 28 30  0  0  0  0  0  0  0  0999 V2000
   16.3252   40.4462   -1.1527 C   0  0  0  0  0  0  0  0  0  0  0  0
   14.7574   41.2111    0.6098 C   0  0  0  0  0  0  0  0  0  0  0  0
   15.3369   42.4920    0.6175 C   0  0  0  0  0  0  0  0  0  0  0  0
   14.8579   43.4881    1.4682 C   0  0  0  0  0  0  0  0  0  0  0  0
   13.7875   43.2197    2.3214 C   0  0  0  0  0  0  0  0  0  0  0  0
   13.2931   44.2733    3.2527 C   0  0  0  0  0  0  0  0  0  0  0  0
   14.0075   44.1833    4.5569 C   0  0  0  0  0  0  0  0  0  0  0  0
   14.2501   42.8597    6.7130 C   0  0  0  0  0  0  0  0  0  0  0  0
   15.6038   42.5121    6.6947 C   0  0  0  0  0  0  0  0  0  0  0  0
   16.5066   42.4751    5.5107 C   0  0  0  0  0  0  0  0  0  0  0  0
   14.5112   42.1498    8.8993 C   0  0  0  0  0  0  0  0  0  0  0  0
   13.6274   42.6386    7.9477 C   0  0  0  0  0  0  0  0  0  0  0  0
   13.8570   39.2107   10.0268 C   0  0  0  0  0  0  0  0  0  0  0  0
   13.6763   38.0376   10.9573 C   0  0  0  0  0  0  0  0  0  0  0  0
   13.3876   38.6723   12.2862 C   0  0  0  0  0  0  0  0  0  0  0  0
   12.7539   40.0022   11.9417 C   0  0  0  0  0  0  0  0  0  0  0  0
   13.2070   41.9491    2.3299 C   0  0  0  0  0  0  0  0  0  0  0  0
   13.6749   40.9365    1.4842 C   0  0  0  0  0  0  0  0  0  0  0  0
   13.3750   38.5503    0.7910 C   0  0  0  0  0  0  0  0  0  0  0  0
   15.2475   40.2234   -0.2526 O   0  0  0  0  0  0  0  0  0  0  0  0
   15.0388   44.8804    4.7512 O   0  0  0  0  0  0  0  0  0  0  0  0
   13.3475   42.8915   11.1654 O   0  0  0  0  0  0  0  0  0  0  0  0
   15.3372   41.4780   11.3402 O   0  0  0  0  0  0  0  0  0  0  0  0
   13.0291   39.6933    1.5601 O   0  0  0  0  0  0  0  0  0  0  0  0
   13.5057   43.3152    5.5772 N   0  0  0  0  0  0  0  0  0  0  0  0
   13.0731   40.3236   10.5524 N   0  0  0  0  0  0  0  0  0  0  0  0
   16.0345   41.9498    8.2174 S   0  0  0  0  0  0  0  0  0  0  0  0
   14.0839   41.7352   10.5484 S   0  0  0  0  0  0  0  0  0  0  0  0
  1 20  1  0
  2 20  1  0
  3  4  2  0
  5 17  2  0
  6  5  1  0
  6  7  1  0
  7 25  1  0
  9 27  1  0
 10  9  1  0
 11 27  1  0
 12  8  1  0
 13 26  1  0
 13 14  1  0
 14 15  1  0
 15 16  1  0
 16 26  1  0
 18 24  1  0
 18  2  2  0
 19 24  1  0
 25  8  1  0
 28 11  1  0
 28 26  1  0
  2  3  1  0
  4  5  1  0
  7 21  2  0
  8  9  2  0
 11 12  2  0
 17 18  1  0
 28 22  2  0
 28 23  2  0
M  END
>  <rmsd>  (107) 
0.249598399

$$$$
MolPort-007-967-220 ChemDiv-L497-0033 MCULE-5991978792 PubChem-46385444 ZINC000033129554
     RDKit          3D

 28 30  0  0  0  0  0  0  0  0999 V2000
   14.2741   41.6869   10.5402 S   0  0  0  0  0  0  0  0  0  0  0  0
   16.1430   41.9527    8.1568 S   0  0  0  0  0  0  0  0  0  0  0  0
   15.2328   42.4000   11.4522 O   0  0  0  0  0  0  0  0  0  0  0  0
   12.8715   42.1168   10.8742 O   0  0  0  0  0  0  0  0  0  0  0  0
   13.1243   47.2251    3.7585 O   0  0  0  0  0  0  0  0  0  0  0  0
   15.0224   44.8842    4.7342 O   0  0  0  0  0  0  0  0  0  0  0  0
   14.4367   39.9703   10.7416 N   0  0  0  0  0  0  0  0  0  0  0  0
   13.5213   43.3113    5.6029 N   0  0  0  0  0  0  0  0  0  0  0  0
   11.9708   45.1986    3.6641 N   0  0  0  0  0  0  0  0  0  0  0  0
   14.0963   39.6453   12.1251 C   0  0  0  0  0  0  0  0  0  0  0  0
   12.8556   38.7790   12.1259 C   0  0  0  0  0  0  0  0  0  0  0  0
   12.7540   38.2634   10.7201 C   0  0  0  0  0  0  0  0  0  0  0  0
   13.4398   39.3232    9.8954 C   0  0  0  0  0  0  0  0  0  0  0  0
   14.6371   42.1234    8.8819 C   0  0  0  0  0  0  0  0  0  0  0  0
   15.6625   42.5227    6.6518 C   0  0  0  0  0  0  0  0  0  0  0  0
   14.3046   42.8502    6.7104 C   0  0  0  0  0  0  0  0  0  0  0  0
   13.9739   44.2037    4.5803 C   0  0  0  0  0  0  0  0  0  0  0  0
   13.1470   44.3975    3.3562 C   0  0  0  0  0  0  0  0  0  0  0  0
   12.0280   46.6128    3.8799 C   0  0  0  0  0  0  0  0  0  0  0  0
   10.8065   47.3533    4.2402 C   0  0  0  0  0  0  0  0  0  0  0  0
   10.8527   48.7394    4.4519 C   0  0  0  0  0  0  0  0  0  0  0  0
    9.6933   49.4410    4.7954 C   0  0  0  0  0  0  0  0  0  0  0  0
    8.4795   48.7618    4.9300 C   0  0  0  0  0  0  0  0  0  0  0  0
    8.4248   47.3812    4.7213 C   0  0  0  0  0  0  0  0  0  0  0  0
    9.5841   46.6795    4.3778 C   0  0  0  0  0  0  0  0  0  0  0  0
    7.2472   49.5075    5.2953 C   0  0  0  0  0  0  0  0  0  0  0  0
   13.7202   42.6089    7.9601 C   0  0  0  0  0  0  0  0  0  0  0  0
   16.5341   42.5106    5.4445 C   0  0  0  0  0  0  0  0  0  0  0  0
  1  7  1  0
  1 14  1  0
  8 17  1  0
  9 19  1  0
 10  7  1  0
 10 11  1  0
 11 12  1  0
 12 13  1  0
 13  7  1  0
 14  2  1  0
 15  2  1  0
 16  8  1  0
 16 27  1  0
 18 17  1  0
 18  9  1  0
 19 20  1  0
 21 22  2  0
 23 24  2  0
 25 20  2  0
 26 23  1  0
 28 15  1  0
  1  3  2  0
  1  4  2  0
 15 16  2  0
 17  6  2  0
 19  5  2  0
 20 21  1  0
 22 23  1  0
 24 25  1  0
 27 14  2  0
M  END
>  <rmsd>  (108) 
0.249592885

$$$$
MolPort-020-298-488 MCULE-2685163120 PubChem-110269683
     RDKit          3D

 27 29  0  0  0  0  0  0  0  0999 V2000
   16.8172   46.5198    4.0986 C   0  0  0  0  0  0  0  0  0  0  0  0
   15.4741   45.9042    3.9377 C   0  0  0  0  0  0  0  0  0  0  0  0
   13.8524   44.3230    4.6676 C   0  0  0  0  0  0  0  0  0  0  0  0
   12.9735   44.7405    3.6646 C   0  0  0  0  0  0  0  0  0  0  0  0
   13.3627   45.7567    2.7902 C   0  0  0  0  0  0  0  0  0  0  0  0
   14.6209   46.3454    2.9244 C   0  0  0  0  0  0  0  0  0  0  0  0
   14.2216   42.7318    6.6328 C   0  0  0  0  0  0  0  0  0  0  0  0
   16.2180   42.6456    7.9031 C   0  0  0  0  0  0  0  0  0  0  0  0
   14.4356   41.1967    8.4641 C   0  0  0  0  0  0  0  0  0  0  0  0
   13.6703   41.7252    7.4247 C   0  0  0  0  0  0  0  0  0  0  0  0
   13.8659   40.1158    9.3200 C   0  0  2  0  0  0  0  0  0  0  0  0
   13.7892   40.5582   10.7835 C   0  0  0  0  0  0  0  0  0  0  0  0
   13.5778   39.3870   11.7488 C   0  0  0  0  0  0  0  0  0  0  0  0
   13.1554   38.1180   11.0128 C   0  0  0  0  0  0  0  0  0  0  0  0
   14.6711   38.8196    9.1741 C   0  0  0  0  0  0  0  0  0  0  0  0
   13.6784   36.6190    9.1999 C   0  0  0  0  0  0  0  0  0  0  0  0
   12.4257   36.9549    8.4283 C   0  0  0  0  0  0  0  0  0  0  0  0
   11.0773   35.3588    9.8320 C   0  0  0  0  0  0  0  0  0  0  0  0
    9.9731   36.6443    8.0008 C   0  0  0  0  0  0  0  0  0  0  0  0
   17.5943   43.1436    8.1597 C   0  0  0  0  0  0  0  0  0  0  0  0
   15.0761   44.9128    4.7795 N   0  0  0  0  0  0  0  0  0  0  0  0
   13.4443   43.2814    5.5624 N   0  0  0  0  0  0  0  0  0  0  0  0
   15.4842   43.1714    6.8880 N   0  0  0  0  0  0  0  0  0  0  0  0
   15.6944   41.6647    8.6833 N   0  0  0  0  0  0  0  0  0  0  0  0
   14.1765   37.7223   10.0298 N   0  0  0  0  0  0  0  0  0  0  0  0
   11.1768   36.3254    8.7505 N   0  0  0  0  0  0  0  0  0  0  0  0
   12.4893   37.7777    7.4751 O   0  0  0  0  0  0  0  0  0  0  0  0
  1  2  1  0
  3 21  2  0
  3 22  1  0
  4  5  2  0
  6  2  2  0
  8 23  2  0
  9 24  2  0
 10  7  2  0
 11  9  1  6
 11 12  1  0
 12 13  1  0
 13 14  1  0
 14 25  1  0
 15 25  1  0
 15 11  1  0
 16 25  1  0
 16 17  1  0
 17 26  1  0
 18 26  1  0
 19 26  1  0
 20  8  1  0
 22  7  1  0
  2 21  1  0
  3  4  1  0
  5  6  1  0
  7 23  1  0
  8 24  1  0
  9 10  1  0
 17 27  2  0
M  END
>  <rmsd>  (109) 
0.249584526

$$$$
MolPort-001-980-337 871460 MCULE-2877066735 PubChem-1131055 ZINC000000871460
     RDKit          3D

 27 29  0  0  0  0  0  0  0  0999 V2000
   14.3176   42.6721    6.5353 C   0  0  0  0  0  0  0  0  0  0  0  0
   13.9403   44.2990    4.6182 C   0  0  0  0  0  0  0  0  0  0  0  0
   13.0564   44.6874    3.4883 C   0  0  0  0  0  0  0  0  0  0  0  0
   11.2103   46.2783    3.0634 C   0  0  0  0  0  0  0  0  0  0  0  0
   10.3871   47.2970    3.5560 C   0  0  0  0  0  0  0  0  0  0  0  0
    9.4087   47.8715    2.7388 C   0  0  0  0  0  0  0  0  0  0  0  0
    9.2488   47.4290    1.4226 C   0  0  0  0  0  0  0  0  0  0  0  0
   10.0673   46.4121    0.9227 C   0  0  0  0  0  0  0  0  0  0  0  0
   11.0456   45.8377    1.7395 C   0  0  0  0  0  0  0  0  0  0  0  0
   15.1825   41.4647    8.5582 C   0  0  0  0  0  0  0  0  0  0  0  0
   16.1300   41.5893    7.5349 C   0  0  0  0  0  0  0  0  0  0  0  0
   17.5121   41.0257    7.6163 C   0  0  0  0  0  0  0  0  0  0  0  0
   15.6403   42.2494    6.3919 C   0  0  0  0  0  0  0  0  0  0  0  0
   16.3995   42.3684    5.1712 C   0  0  0  0  0  0  0  0  0  0  0  0
   15.4000   40.8623    9.8944 C   0  0  0  0  0  0  0  0  0  0  0  0
   14.4790   40.2239   12.1320 C   0  0  0  0  0  0  0  0  0  0  0  0
   14.1535   38.7982   12.5828 C   0  0  0  0  0  0  0  0  0  0  0  0
   12.8763   38.2311   11.9421 C   0  0  0  0  0  0  0  0  0  0  0  0
   12.1334   39.2447   11.0730 C   0  0  0  0  0  0  0  0  0  0  0  0
   13.0871   39.8531   10.0472 C   0  0  0  0  0  0  0  0  0  0  0  0
   13.4955   43.3105    5.5510 N   0  0  0  0  0  0  0  0  0  0  0  0
   17.0098   42.4612    4.1923 N   0  0  0  0  0  0  0  0  0  0  0  0
   14.3121   40.3506   10.6837 N   0  0  0  0  0  0  0  0  0  0  0  0
   12.1762   45.7223    3.9063 O   0  0  0  0  0  0  0  0  0  0  0  0
   15.0297   44.9070    4.7910 O   0  0  0  0  0  0  0  0  0  0  0  0
   16.5717   40.8143   10.3585 O   0  0  0  0  0  0  0  0  0  0  0  0
   13.7510   42.1901    8.0380 S   0  0  0  0  0  0  0  0  0  0  0  0
  1 21  1  0
  1 27  1  0
  3  2  1  0
  3 24  1  0
  4 24  1  0
  5  6  2  0
  7  8  2  0
  9  4  2  0
 10 27  1  0
 10 15  1  0
 11 13  1  0
 12 11  1  0
 13 14  1  0
 15 23  1  0
 16 23  1  0
 16 17  1  0
 17 18  1  0
 18 19  1  0
 19 20  1  0
 20 23  1  0
 21  2  1  0
  2 25  2  0
  4  5  1  0
  6  7  1  0
  8  9  1  0
 10 11  2  0
 13  1  2  0
 15 26  2  0
 14 22  3  0
M  END
>  <rmsd>  (110) 
0.249556586

$$$$
MolPort-039-218-911 299761789 MCULE-6935341986 ZINC000299761789
     RDKit          3D

 23 25  0  0  0  0  0  0  0  0999 V2000
   17.5168   44.5804    0.2779 N   0  0  0  0  0  0  0  0  0  0  0  0
   15.7419   45.4309    1.7142 N   0  0  0  0  0  0  0  0  0  0  0  0
   13.0603   44.8060    3.5957 N   0  0  0  0  0  0  0  0  0  0  0  0
   13.4676   43.3215    5.5219 N   0  0  0  0  0  0  0  0  0  0  0  0
   14.0327   44.4909    0.6033 N   0  0  0  0  0  0  0  0  0  0  0  0
   15.1406   44.1483   -0.0304 N   0  0  0  0  0  0  0  0  0  0  0  0
   16.1503   44.7197    0.6473 C   0  0  0  0  0  0  0  0  0  0  0  0
   14.4069   45.2631    1.6405 C   0  0  0  0  0  0  0  0  0  0  0  0
   13.4501   45.8279    2.6342 C   0  0  0  0  0  0  0  0  0  0  0  0
   13.9205   44.3621    4.6468 C   0  0  0  0  0  0  0  0  0  0  0  0
   14.1913   42.7436    6.6169 C   0  0  0  0  0  0  0  0  0  0  0  0
   15.4894   43.1578    6.9512 C   0  0  0  0  0  0  0  0  0  0  0  0
   16.1643   42.5703    8.0239 C   0  0  0  0  0  0  0  0  0  0  0  0
   15.5459   41.5644    8.7699 C   0  0  0  0  0  0  0  0  0  0  0  0
   14.2468   41.1416    8.4463 C   0  0  0  0  0  0  0  0  0  0  0  0
   14.1744   39.5014   10.3094 C   0  0  0  0  0  0  0  0  0  0  0  0
   14.0493   40.3997   11.5316 C   0  0  0  0  0  0  0  0  0  0  0  0
   13.0969   39.7075   12.4827 C   0  0  0  0  0  0  0  0  0  0  0  0
   13.1482   38.2463   12.1080 C   0  0  0  0  0  0  0  0  0  0  0  0
   13.4055   38.2308   10.6186 C   0  0  0  0  0  0  0  0  0  0  0  0
   13.5798   41.7350    7.3696 C   0  0  0  0  0  0  0  0  0  0  0  0
   15.0570   44.8869    4.7978 O   0  0  0  0  0  0  0  0  0  0  0  0
   13.5999   40.1350    9.1714 O   0  0  0  0  0  0  0  0  0  0  0  0
  1  7  1  0
  3 10  1  0
  4 11  1  0
  6  5  1  0
  6  7  1  0
  8  2  1  0
  9  8  1  0
  9  3  1  0
 10  4  1  0
 12 13  2  0
 14 15  2  0
 15 23  1  0
 16 23  1  0
 16 17  1  0
 17 18  1  0
 18 19  1  0
 19 20  1  0
 20 16  1  0
 21 11  2  0
  7  2  2  0
  8  5  2  0
 10 22  2  0
 11 12  1  0
 13 14  1  0
 15 21  1  0
M  END
>  <rmsd>  (111) 
0.24952279

$$$$
Molport-046-959-955 MCULE-9815740437 PubChem-110097712
     RDKit          3D

 26 29  0  0  0  0  0  0  0  0999 V2000
    8.9359   38.6145    7.6630 C   0  0  0  0  0  0  0  0  0  0  0  0
   10.9571   37.5767    8.6567 C   0  0  0  0  0  0  0  0  0  0  0  0
   12.2558   37.3888    8.2331 C   0  0  0  0  0  0  0  0  0  0  0  0
   12.3597   37.9356    6.9678 C   0  0  0  0  0  0  0  0  0  0  0  0
   13.3690   36.7534    9.0181 C   0  0  0  0  0  0  0  0  0  0  0  0
   13.1158   38.0789   11.0118 C   0  0  0  0  0  0  0  0  0  0  0  0
   13.6092   39.3301   11.7352 C   0  0  0  0  0  0  0  0  0  0  0  0
   13.6901   40.5235   10.7787 C   0  0  0  0  0  0  0  0  0  0  0  0
   13.8433   40.0977    9.3144 C   0  0  2  0  0  0  0  0  0  0  0  0
   14.6490   38.7995    9.1906 C   0  0  0  0  0  0  0  0  0  0  0  0
   14.4326   41.1906    8.4834 C   0  0  0  0  0  0  0  0  0  0  0  0
   13.6844   41.7242    7.4318 C   0  0  0  0  0  0  0  0  0  0  0  0
   14.2272   42.7431    6.6452 C   0  0  0  0  0  0  0  0  0  0  0  0
   16.2297   42.7020    7.9294 C   0  0  0  0  0  0  0  0  0  0  0  0
   15.7191   41.6833    8.7353 C   0  0  0  0  0  0  0  0  0  0  0  0
   13.8508   44.3208    4.6701 C   0  0  0  0  0  0  0  0  0  0  0  0
   15.4501   45.9008    3.9141 C   0  0  0  0  0  0  0  0  0  0  0  0
   14.5697   46.3141    2.9133 C   0  0  0  0  0  0  0  0  0  0  0  0
   12.9722   44.7369    3.6675 C   0  0  0  0  0  0  0  0  0  0  0  0
   10.3291   38.2109    7.6531 N   0  0  0  0  0  0  0  0  0  0  0  0
   11.1509   38.4321    6.6409 N   0  0  0  0  0  0  0  0  0  0  0  0
   14.0420   37.6790    9.9380 N   0  0  0  0  0  0  0  0  0  0  0  0
   15.4811   43.2056    6.9117 N   0  0  0  0  0  0  0  0  0  0  0  0
   13.4487   43.2810    5.5696 N   0  0  0  0  0  0  0  0  0  0  0  0
   15.0721   44.9146    4.7694 N   0  0  0  0  0  0  0  0  0  0  0  0
   13.3500   45.7231    2.8119 N   0  0  0  0  0  0  0  0  0  0  0  0
  1 20  1  0
  3  4  1  0
  5  3  1  0
  5 22  1  0
  6 22  1  0
  6  7  1  0
  7  8  1  0
  8  9  1  0
  9 10  1  0
  9 11  1  6
 10 22  1  0
 12 13  2  0
 13 24  1  0
 14 23  2  0
 15 11  2  0
 17 25  2  0
 18 26  2  0
 19 16  2  0
 20  2  1  0
 20 21  1  0
 24 16  1  0
  2  3  2  0
  4 21  2  0
 11 12  1  0
 13 23  1  0
 14 15  1  0
 16 25  1  0
 17 18  1  0
 19 26  1  0
M  END
>  <rmsd>  (112) 
0.249518186

$$$$
MolPort-020-293-036 MCULE-6240120053 PubChem-110265503
     RDKit          3D

 27 30  0  0  0  0  0  0  0  0999 V2000
   12.7204   43.3507   14.1953 C   0  0  0  0  0  0  0  0  0  0  0  0
   12.4263   44.0451   12.9093 C   0  0  0  0  0  0  0  0  0  0  0  0
   12.7299   45.4058   12.7948 C   0  0  0  0  0  0  0  0  0  0  0  0
   12.4597   46.0909   11.6067 C   0  0  0  0  0  0  0  0  0  0  0  0
   11.8887   45.4161   10.5250 C   0  0  0  0  0  0  0  0  0  0  0  0
   11.5889   44.0550   10.6303 C   0  0  0  0  0  0  0  0  0  0  0  0
   11.8493   43.3634   11.8198 C   0  0  0  0  0  0  0  0  0  0  0  0
   11.5382   41.9018   11.8898 C   0  0  0  0  0  0  0  0  0  0  0  0
   12.7253   39.8891   12.1166 C   0  0  0  0  0  0  0  0  0  0  0  0
   13.5806   38.8108   11.4264 C   0  0  0  0  0  0  0  0  0  0  0  0
   14.3901   39.3780   10.2597 C   0  0  0  0  0  0  0  0  0  0  0  0
   13.4910   40.1369    9.2644 C   0  0  1  0  0  0  0  0  0  0  0  0
   12.2992   40.8026    9.9633 C   0  0  0  0  0  0  0  0  0  0  0  0
   14.2380   41.1541    8.4431 C   0  0  0  0  0  0  0  0  0  0  0  0
   14.1934   42.6989    6.6244 C   0  0  0  0  0  0  0  0  0  0  0  0
   15.5194   43.0668    6.8871 C   0  0  0  0  0  0  0  0  0  0  0  0
   16.2022   42.4702    7.9462 C   0  0  0  0  0  0  0  0  0  0  0  0
   15.5633   41.5119    8.7311 C   0  0  0  0  0  0  0  0  0  0  0  0
   13.8613   44.3264    4.6591 C   0  0  0  0  0  0  0  0  0  0  0  0
   13.3639   45.7293    2.8190 C   0  0  0  0  0  0  0  0  0  0  0  0
   14.6088   46.3447    2.9348 C   0  0  0  0  0  0  0  0  0  0  0  0
   15.4657   45.9145    3.9459 C   0  0  0  0  0  0  0  0  0  0  0  0
   12.6443   41.1328   11.3439 N   0  0  0  0  0  0  0  0  0  0  0  0
   13.5960   41.7574    7.4044 N   0  0  0  0  0  0  0  0  0  0  0  0
   13.4434   43.2837    5.5505 N   0  0  0  0  0  0  0  0  0  0  0  0
   13.0133   44.7376    3.6791 N   0  0  0  0  0  0  0  0  0  0  0  0
   15.0810   44.9182    4.7849 N   0  0  0  0  0  0  0  0  0  0  0  0
  1  2  1  0
  3  4  2  0
  5  6  2  0
  7  2  2  0
  8  7  1  0
  8 23  1  0
  9 23  1  0
  9 10  1  0
 10 11  1  0
 11 12  1  0
 12 13  1  0
 12 14  1  1
 13 23  1  0
 15 24  2  0
 15 25  1  0
 16 17  2  0
 18 14  2  0
 19 27  2  0
 20 26  2  0
 21 22  2  0
 25 19  1  0
  2  3  1  0
  4  5  1  0
  6  7  1  0
 14 24  1  0
 15 16  1  0
 17 18  1  0
 19 26  1  0
 20 21  1  0
 22 27  1  0
M  END
>  <rmsd>  (113) 
0.249516696

$$$$
Molport-053-318-354 PubChem-110097713
     RDKit          3D

 26 29  0  0  0  0  0  0  0  0999 V2000
    8.9378   38.6126    7.6625 C   0  0  0  0  0  0  0  0  0  0  0  0
   10.9597   37.5760    8.6558 C   0  0  0  0  0  0  0  0  0  0  0  0
   12.2586   37.3892    8.2322 C   0  0  0  0  0  0  0  0  0  0  0  0
   12.3620   37.9363    6.9669 C   0  0  0  0  0  0  0  0  0  0  0  0
   13.3722   36.7545    9.0168 C   0  0  0  0  0  0  0  0  0  0  0  0
   13.1187   38.0800   11.0106 C   0  0  0  0  0  0  0  0  0  0  0  0
   13.6116   39.3314   11.7339 C   0  0  0  0  0  0  0  0  0  0  0  0
   13.6920   40.5249   10.7774 C   0  0  0  0  0  0  0  0  0  0  0  0
   13.8453   40.0990    9.3130 C   0  0  2  0  0  0  0  0  0  0  0  0
   14.6514   38.8011    9.1892 C   0  0  0  0  0  0  0  0  0  0  0  0
   14.4342   41.1921    8.4821 C   0  0  0  0  0  0  0  0  0  0  0  0
   13.6859   41.7256    7.4305 C   0  0  0  0  0  0  0  0  0  0  0  0
   14.2282   42.7447    6.6439 C   0  0  0  0  0  0  0  0  0  0  0  0
   16.2308   42.7042    7.9280 C   0  0  0  0  0  0  0  0  0  0  0  0
   15.7206   41.6852    8.7339 C   0  0  0  0  0  0  0  0  0  0  0  0
   13.8489   44.3221    4.6675 C   0  0  0  0  0  0  0  0  0  0  0  0
   15.4470   45.8989    3.9149 C   0  0  0  0  0  0  0  0  0  0  0  0
   14.5763   46.3198    2.9117 C   0  0  0  0  0  0  0  0  0  0  0  0
   13.3289   45.7051    2.8191 C   0  0  0  0  0  0  0  0  0  0  0  0
   10.3313   38.2100    7.6523 N   0  0  0  0  0  0  0  0  0  0  0  0
   11.1529   38.4320    6.6401 N   0  0  0  0  0  0  0  0  0  0  0  0
   14.0449   37.6803    9.9367 N   0  0  0  0  0  0  0  0  0  0  0  0
   15.4819   43.2075    6.9104 N   0  0  0  0  0  0  0  0  0  0  0  0
   13.4493   43.2822    5.5684 N   0  0  0  0  0  0  0  0  0  0  0  0
   15.0710   44.9131    4.7706 N   0  0  0  0  0  0  0  0  0  0  0  0
   12.9890   44.7226    3.6936 N   0  0  0  0  0  0  0  0  0  0  0  0
  1 20  1  0
  3  4  1  0
  5  3  1  0
  5 22  1  0
  6 22  1  0
  6  7  1  0
  7  8  1  0
  8  9  1  0
  9 10  1  0
  9 11  1  6
 10 22  1  0
 12 13  2  0
 13 24  1  0
 14 23  2  0
 15 11  2  0
 16 26  2  0
 17 25  2  0
 18 19  2  0
 20  2  1  0
 20 21  1  0
 24 16  1  0
  2  3  2  0
  4 21  2  0
 11 12  1  0
 13 23  1  0
 14 15  1  0
 16 25  1  0
 17 18  1  0
 19 26  1  0
M  END
>  <rmsd>  (114) 
0.249506682

$$$$
MolPort-006-580-049 ChemDiv-V019-1762 MCULE-8391059656 PubChem-46041015 ZINC000037544724 ZINC37544724
     RDKit          3D

 29 31  0  0  0  0  0  0  0  0999 V2000
    7.4221   43.6066    8.1994 C   0  0  0  0  0  0  0  0  0  0  0  0
    8.4836   41.5619    9.0994 C   0  0  0  0  0  0  0  0  0  0  0  0
    7.9325   41.7567   10.3769 C   0  0  0  0  0  0  0  0  0  0  0  0
    8.2002   40.8493   11.4057 C   0  0  0  0  0  0  0  0  0  0  0  0
    9.0178   39.7421   11.1650 C   0  0  0  0  0  0  0  0  0  0  0  0
    9.5638   39.5382    9.8939 C   0  0  0  0  0  0  0  0  0  0  0  0
   10.4626   38.3744    9.6456 C   0  0  0  0  0  0  0  0  0  0  0  0
   12.3844   38.5581   11.2514 C   0  0  0  0  0  0  0  0  0  0  0  0
   13.3049   39.7124   11.6276 C   0  0  0  0  0  0  0  0  0  0  0  0
   14.4107   39.8074   10.5849 C   0  0  0  0  0  0  0  0  0  0  0  0
   12.6425   39.3749    8.8873 C   0  0  0  0  0  0  0  0  0  0  0  0
   14.4395   41.1046    8.4355 C   0  0  0  0  0  0  0  0  0  0  0  0
   15.7585   41.5257    8.6717 C   0  0  0  0  0  0  0  0  0  0  0  0
   16.3380   42.5261    7.8881 C   0  0  0  0  0  0  0  0  0  0  0  0
   15.6025   43.1216    6.8617 C   0  0  0  0  0  0  0  0  0  0  0  0
   14.2824   42.7215    6.6126 C   0  0  0  0  0  0  0  0  0  0  0  0
   13.8896   44.3625    4.6824 C   0  0  0  0  0  0  0  0  0  0  0  0
   13.2634   45.9100    2.7770 C   0  0  0  0  0  0  0  0  0  0  0  0
   12.8825   47.2138    3.4022 C   0  0  0  0  0  0  0  0  0  0  0  0
   13.5995   47.7365    4.3936 C   0  0  0  0  0  0  0  0  0  0  0  0
   13.7121   41.7183    7.4019 C   0  0  0  0  0  0  0  0  0  0  0  0
    9.3011   40.4510    8.8666 C   0  0  0  0  0  0  0  0  0  0  0  0
    8.2380   42.4527    8.0511 O   0  0  0  0  0  0  0  0  0  0  0  0
   12.2787   39.3207    7.6806 O   0  0  0  0  0  0  0  0  0  0  0  0
   15.0295   44.8932    4.7748 O   0  0  0  0  0  0  0  0  0  0  0  0
   11.8478   38.7430    9.9049 N   0  0  0  0  0  0  0  0  0  0  0  0
   13.8405   40.0849    9.2647 N   0  0  0  0  0  0  0  0  0  0  0  0
   13.4935   43.3088    5.5691 N   0  0  0  0  0  0  0  0  0  0  0  0
   12.9728   44.8044    3.6798 N   0  0  0  0  0  0  0  0  0  0  0  0
  1 23  1  0
  2 23  1  0
  3  4  2  0
  5  6  2  0
  7  6  1  0
  7 26  1  0
  8 26  1  0
  8  9  1  0
  9 10  1  0
 10 27  1  0
 11 26  1  0
 13 14  2  0
 15 16  2  0
 16 28  1  0
 17 29  1  0
 18 29  1  0
 18 19  1  0
 21 12  2  0
 22  2  2  0
 27 11  1  0
 27 12  1  0
 28 17  1  0
  2  3  1  0
  4  5  1  0
  6 22  1  0
 11 24  2  0
 12 13  1  0
 14 15  1  0
 16 21  1  0
 17 25  2  0
 19 20  2  0
M  END
>  <rmsd>  (115) 
0.249452397

$$$$
MolPort-020-295-159 MCULE-8672316029 PubChem-110267252
     RDKit          3D

 24 26  0  0  0  0  0  0  0  0999 V2000
   11.6028   44.1337    3.5172 C   0  0  0  0  0  0  0  0  0  0  0  0
   12.9533   44.7459    3.6674 C   0  0  0  0  0  0  0  0  0  0  0  0
   13.8425   44.3232    4.6695 C   0  0  0  0  0  0  0  0  0  0  0  0
   15.4610   45.9035    3.9237 C   0  0  0  0  0  0  0  0  0  0  0  0
   14.6024   46.3469    2.9176 C   0  0  0  0  0  0  0  0  0  0  0  0
   13.3425   45.7619    2.7925 C   0  0  0  0  0  0  0  0  0  0  0  0
   14.2430   42.7411    6.6430 C   0  0  0  0  0  0  0  0  0  0  0  0
   16.2429   42.6936    7.9092 C   0  0  0  0  0  0  0  0  0  0  0  0
   15.7264   41.6761    8.7080 C   0  0  0  0  0  0  0  0  0  0  0  0
   14.4366   41.2070    8.4376 C   0  0  0  0  0  0  0  0  0  0  0  0
   13.8252   40.1166    9.2572 C   0  0  2  0  0  0  0  0  0  0  0  0
   13.6432   40.5509   10.7131 C   0  0  0  0  0  0  0  0  0  0  0  0
   13.0740   39.4099   11.5607 C   0  0  0  0  0  0  0  0  0  0  0  0
   13.6245   38.0393   11.1468 C   0  0  0  0  0  0  0  0  0  0  0  0
   14.6272   38.8082    9.1269 C   0  0  0  0  0  0  0  0  0  0  0  0
   14.3540   35.6220    9.1807 C   0  0  0  0  0  0  0  0  0  0  0  0
   15.0674   44.9129    4.7682 N   0  0  0  0  0  0  0  0  0  0  0  0
   13.4540   43.2794    5.5752 N   0  0  0  0  0  0  0  0  0  0  0  0
   15.4971   43.2057    6.8964 N   0  0  0  0  0  0  0  0  0  0  0  0
   13.7255   41.7484    7.4140 N   0  0  0  0  0  0  0  0  0  0  0  0
   14.8899   38.1805   10.4267 N   0  0  0  0  0  0  0  0  0  0  0  0
   15.5123   36.5888   10.1277 S   0  0  0  0  0  0  0  0  0  0  0  0
   16.8036   36.6918    9.3656 O   0  0  0  0  0  0  0  0  0  0  0  0
   15.7718   35.8988   11.4374 O   0  0  0  0  0  0  0  0  0  0  0  0
  1  2  1  0
  3 17  2  0
  3 18  1  0
  4  5  2  0
  6  2  2  0
  7 20  2  0
  8 19  2  0
  9 10  2  0
 11 10  1  6
 11 12  1  0
 12 13  1  0
 13 14  1  0
 14 21  1  0
 15 21  1  0
 15 11  1  0
 18  7  1  0
 22 21  1  0
 22 16  1  0
  2  3  1  0
  4 17  1  0
  5  6  1  0
  7 19  1  0
  8  9  1  0
 10 20  1  0
 22 23  2  0
 22 24  2  0
M  END
>  <rmsd>  (116) 
0.249444798

$$$$
MolPort-047-586-240 MCULE-2060819155 PubChem-157292296 PubChem-159458611 PubChem-57934984
     RDKit          3D

 31 32  0  0  0  0  0  0  0  0999 V2000
   13.7828   41.7376   10.2596 B   0  0  0  0  0  0  0  0  0  0  0  0
   14.3621   40.7682   11.1742 O   0  0  0  0  0  0  0  0  0  0  0  0
   12.3374   41.8254   10.3831 O   0  0  0  0  0  0  0  0  0  0  0  0
   17.7533   42.0048    3.3419 O   0  0  0  0  0  0  0  0  0  0  0  0
   18.3675   41.4079    5.4903 O   0  0  0  0  0  0  0  0  0  0  0  0
   15.0410   44.8948    4.7990 O   0  0  0  0  0  0  0  0  0  0  0  0
   13.1431   44.6297    3.4995 O   0  0  0  0  0  0  0  0  0  0  0  0
   13.3341   39.8174   11.2625 C   0  0  0  0  0  0  0  0  0  0  0  0
   12.0071   40.5095   10.7402 C   0  0  0  0  0  0  0  0  0  0  0  0
   11.3909   39.8163    9.5230 C   0  0  0  0  0  0  0  0  0  0  0  0
   10.9071   40.5820   11.7956 C   0  0  0  0  0  0  0  0  0  0  0  0
   13.2487   39.3678   12.7184 C   0  0  0  0  0  0  0  0  0  0  0  0
   13.7427   38.5842   10.4542 C   0  0  0  0  0  0  0  0  0  0  0  0
   14.4293   41.9170    8.8442 C   0  0  0  0  0  0  0  0  0  0  0  0
   13.7059   42.5234    7.8141 C   0  0  0  0  0  0  0  0  0  0  0  0
   14.2748   42.7015    6.5486 C   0  0  0  0  0  0  0  0  0  0  0  0
   15.5809   42.2233    6.2961 C   0  0  0  0  0  0  0  0  0  0  0  0
   16.2984   41.6181    7.3393 C   0  0  0  0  0  0  0  0  0  0  0  0
   15.7310   41.4722    8.6058 C   0  0  0  0  0  0  0  0  0  0  0  0
   17.4412   41.8996    4.5582 C   0  0  0  0  0  0  0  0  0  0  0  0
   19.6969   40.9892    5.1737 C   0  0  0  0  0  0  0  0  0  0  0  0
   20.4998   42.1414    4.5951 C   0  0  0  0  0  0  0  0  0  0  0  0
   19.6760   39.8311    4.1912 C   0  0  0  0  0  0  0  0  0  0  0  0
   20.3737   40.5255    6.4460 C   0  0  0  0  0  0  0  0  0  0  0  0
   13.9433   44.3040    4.6027 C   0  0  0  0  0  0  0  0  0  0  0  0
   13.4919   45.5898    2.4995 C   0  0  0  0  0  0  0  0  0  0  0  0
   13.6490   46.9709    3.1119 C   0  0  0  0  0  0  0  0  0  0  0  0
   14.7773   45.1896    1.7956 C   0  0  0  0  0  0  0  0  0  0  0  0
   12.3810   45.6453    1.4725 C   0  0  0  0  0  0  0  0  0  0  0  0
   16.1291   42.2987    4.9708 N   0  0  0  0  0  0  0  0  0  0  0  0
   13.4770   43.3198    5.5305 N   0  0  0  0  0  0  0  0  0  0  0  0
  1  2  1  0
  1 14  1  0
  1  3  1  0
  8  2  1  0
  8  9  1  0
  8 12  1  0
  8 13  1  0
  9  3  1  0
  9 10  1  0
  9 11  1  0
 15 16  2  0
 16 31  1  0
 17 18  2  0
 17 30  1  0
 19 14  2  0
 20  5  1  0
 21  5  1  0
 21 22  1  0
 21 23  1  0
 21 24  1  0
 25  7  1  0
 26  7  1  0
 26 27  1  0
 26 28  1  0
 26 29  1  0
 30 20  1  0
 31 25  1  0
 14 15  1  0
 16 17  1  0
 18 19  1  0
 20  4  2  0
 25  6  2  0
M  END
>  <rmsd>  (117) 
0.24944438

$$$$
MolPort-020-293-082 MCULE-3613256932 PubChem-110265549
     RDKit          3D

 32 35  0  0  0  0  0  0  0  0999 V2000
   10.1127   29.9809    9.8268 C   0  0  0  0  0  0  0  0  0  0  0  0
   10.9972   31.1074   10.3173 C   0  0  0  0  0  0  0  0  0  0  0  0
   12.2025   33.0462    9.3571 C   0  0  0  0  0  0  0  0  0  0  0  0
   12.5474   33.8009    8.2221 C   0  0  0  0  0  0  0  0  0  0  0  0
   13.3598   34.9324    8.3538 C   0  0  0  0  0  0  0  0  0  0  0  0
   13.8474   35.3084    9.6086 C   0  0  0  0  0  0  0  0  0  0  0  0
   13.5080   34.5625   10.7402 C   0  0  0  0  0  0  0  0  0  0  0  0
   12.6914   33.4361   10.6156 C   0  0  0  0  0  0  0  0  0  0  0  0
   14.6948   36.5265    9.7450 C   0  0  0  0  0  0  0  0  0  0  0  0
   13.8159   38.0644   11.2839 C   0  0  0  0  0  0  0  0  0  0  0  0
   12.9426   39.3003   11.4852 C   0  0  0  0  0  0  0  0  0  0  0  0
   13.5206   40.4675   10.6913 C   0  0  0  0  0  0  0  0  0  0  0  0
   13.7146   40.0698    9.2275 C   0  0  2  0  0  0  0  0  0  0  0  0
   14.5317   38.7789    9.1374 C   0  0  0  0  0  0  0  0  0  0  0  0
   14.3656   41.1720    8.4538 C   0  0  0  0  0  0  0  0  0  0  0  0
   14.2316   42.7399    6.6636 C   0  0  0  0  0  0  0  0  0  0  0  0
   15.5119   43.2186    6.9730 C   0  0  0  0  0  0  0  0  0  0  0  0
   16.2188   42.6597    8.0377 C   0  0  0  0  0  0  0  0  0  0  0  0
   15.6476   41.6308    8.7854 C   0  0  0  0  0  0  0  0  0  0  0  0
   13.8401   44.3250    4.6700 C   0  0  0  0  0  0  0  0  0  0  0  0
   12.9406   44.7422    3.6747 C   0  0  0  0  0  0  0  0  0  0  0  0
   13.3187   45.7561    2.7925 C   0  0  0  0  0  0  0  0  0  0  0  0
   14.5781   46.3446    2.9030 C   0  0  0  0  0  0  0  0  0  0  0  0
   15.4477   45.9065    3.9020 C   0  0  0  0  0  0  0  0  0  0  0  0
   11.5901   44.1266    3.5397 C   0  0  0  0  0  0  0  0  0  0  0  0
   12.0259   33.4366    6.8732 C   0  0  0  0  0  0  0  0  0  0  0  0
   11.3810   31.9213    9.2173 O   0  0  0  0  0  0  0  0  0  0  0  0
   10.7929   34.0541    6.6627 O   0  0  0  0  0  0  0  0  0  0  0  0
   13.8549   37.7072    9.8654 N   0  0  0  0  0  0  0  0  0  0  0  0
   13.6977   41.7346    7.4101 N   0  0  0  0  0  0  0  0  0  0  0  0
   13.4607   43.2812    5.5815 N   0  0  0  0  0  0  0  0  0  0  0  0
   15.0647   44.9180    4.7535 N   0  0  0  0  0  0  0  0  0  0  0  0
  1  2  1  0
  2 27  1  0
  3 27  1  0
  4  5  2  0
  6  7  2  0
  8  3  2  0
  9  6  1  0
  9 29  1  0
 10 29  1  0
 10 11  1  0
 11 12  1  0
 12 13  1  0
 13 14  1  0
 13 15  1  6
 14 29  1  0
 16 30  2  0
 16 31  1  0
 17 18  2  0
 19 15  2  0
 20 32  2  0
 21 22  2  0
 23 24  2  0
 25 21  1  0
 26  4  1  0
 26 28  1  0
 31 20  1  0
  3  4  1  0
  5  6  1  0
  7  8  1  0
 15 30  1  0
 16 17  1  0
 18 19  1  0
 20 21  1  0
 22 23  1  0
 24 32  1  0
M  END
>  <rmsd>  (118) 
0.249423519

$$$$
MolPort-020-292-447 MCULE-8894391081 PubChem-110264915
     RDKit          3D

 30 32  0  0  0  0  0  0  0  0999 V2000
   13.7715   32.3291    8.7201 C   0  0  0  0  0  0  0  0  0  0  0  0
   14.1326   33.1266    9.9599 C   0  0  0  0  0  0  0  0  0  0  0  0
   12.4183   34.6069   10.9979 C   0  0  0  0  0  0  0  0  0  0  0  0
   11.0314   34.6441   10.3820 C   0  0  0  0  0  0  0  0  0  0  0  0
   13.8238   35.4655    9.0809 C   0  0  0  0  0  0  0  0  0  0  0  0
   13.1716   36.8088    9.1463 C   0  0  0  0  0  0  0  0  0  0  0  0
   12.9953   38.1647   11.0524 C   0  0  0  0  0  0  0  0  0  0  0  0
   13.5529   39.3916   11.7703 C   0  0  0  0  0  0  0  0  0  0  0  0
   13.7591   40.5559   10.7971 C   0  0  0  0  0  0  0  0  0  0  0  0
   13.7769   40.1050    9.3333 C   0  0  2  0  0  0  0  0  0  0  0  0
   14.4938   38.7572    9.1822 C   0  0  0  0  0  0  0  0  0  0  0  0
   14.4065   41.1423    8.4652 C   0  0  0  0  0  0  0  0  0  0  0  0
   16.2999   42.4464    7.8672 C   0  0  0  0  0  0  0  0  0  0  0  0
   15.5806   43.0538    6.8368 C   0  0  0  0  0  0  0  0  0  0  0  0
   14.2426   42.6980    6.6229 C   0  0  0  0  0  0  0  0  0  0  0  0
   13.6563   41.7337    7.4451 C   0  0  0  0  0  0  0  0  0  0  0  0
   13.8534   44.3139    4.6618 C   0  0  0  0  0  0  0  0  0  0  0  0
   15.4389   45.9013    3.9025 C   0  0  0  0  0  0  0  0  0  0  0  0
   14.5748   46.2932    2.8822 C   0  0  0  0  0  0  0  0  0  0  0  0
   13.3362   45.6607    2.7857 C   0  0  0  0  0  0  0  0  0  0  0  0
   12.3880   46.0432    1.7080 C   0  0  0  0  0  0  0  0  0  0  0  0
   16.7685   46.5509    4.0427 C   0  0  0  0  0  0  0  0  0  0  0  0
   17.7199   42.8161    8.0979 C   0  0  0  0  0  0  0  0  0  0  0  0
   13.4249   34.4004    9.9644 N   0  0  0  0  0  0  0  0  0  0  0  0
   13.9291   37.6846   10.0246 N   0  0  0  0  0  0  0  0  0  0  0  0
   15.7051   41.5101    8.6527 N   0  0  0  0  0  0  0  0  0  0  0  0
   13.4571   43.2791    5.5728 N   0  0  0  0  0  0  0  0  0  0  0  0
   15.0662   44.9240    4.7689 N   0  0  0  0  0  0  0  0  0  0  0  0
   12.9992   44.6874    3.6722 N   0  0  0  0  0  0  0  0  0  0  0  0
   14.7563   35.2863    8.2521 O   0  0  0  0  0  0  0  0  0  0  0  0
  1  2  1  0
  2 24  1  0
  3 24  1  0
  3  4  1  0
  6  5  1  0
  6 25  1  0
  7 25  1  0
  7  8  1  0
  8  9  1  0
  9 10  1  0
 10 11  1  0
 10 12  1  6
 11 25  1  0
 13 26  2  0
 14 15  2  0
 15 27  1  0
 16 12  2  0
 17 29  2  0
 18 28  2  0
 19 20  2  0
 21 20  1  0
 22 18  1  0
 23 13  1  0
 24  5  1  0
 27 17  1  0
  5 30  2  0
 12 26  1  0
 13 14  1  0
 15 16  1  0
 17 28  1  0
 18 19  1  0
 20 29  1  0
M  END
>  <rmsd>  (119) 
0.24941507

$$$$
MolPort-020-281-700 MCULE-7223028372 PubChem-110257379
     RDKit          3D

 20 22  0  0  0  0  0  0  0  0999 V2000
   14.8085   36.5620    9.8561 C   0  0  0  0  0  0  0  0  0  0  0  0
   13.9581   38.1167   11.3802 C   0  0  0  0  0  0  0  0  0  0  0  0
   13.0802   39.3493   11.5848 C   0  0  0  0  0  0  0  0  0  0  0  0
   13.6188   40.5042   10.7465 C   0  0  0  0  0  0  0  0  0  0  0  0
   13.7634   40.0765    9.2855 C   0  0  2  0  0  0  0  0  0  0  0  0
   14.5917   38.7926    9.1943 C   0  0  0  0  0  0  0  0  0  0  0  0
   14.3727   41.1684    8.4645 C   0  0  0  0  0  0  0  0  0  0  0  0
   13.6417   41.7139    7.4067 C   0  0  0  0  0  0  0  0  0  0  0  0
   14.2009   42.7340    6.6329 C   0  0  0  0  0  0  0  0  0  0  0  0
   16.1865   42.6727    7.9419 C   0  0  0  0  0  0  0  0  0  0  0  0
   15.6593   41.6529    8.7353 C   0  0  0  0  0  0  0  0  0  0  0  0
   13.8590   44.3275    4.6641 C   0  0  0  0  0  0  0  0  0  0  0  0
   15.4769   45.9034    3.9399 C   0  0  0  0  0  0  0  0  0  0  0  0
   14.6118   46.3287    2.9307 C   0  0  0  0  0  0  0  0  0  0  0  0
   12.9958   44.7554    3.6531 C   0  0  0  0  0  0  0  0  0  0  0  0
   13.9551   37.7300    9.9704 N   0  0  0  0  0  0  0  0  0  0  0  0
   15.4542   43.1868    6.9179 N   0  0  0  0  0  0  0  0  0  0  0  0
   13.4394   43.2838    5.5512 N   0  0  0  0  0  0  0  0  0  0  0  0
   15.0821   44.9135    4.7834 N   0  0  0  0  0  0  0  0  0  0  0  0
   13.3903   45.7454    2.8093 N   0  0  0  0  0  0  0  0  0  0  0  0
  1 16  1  0
  2 16  1  0
  2  3  1  0
  3  4  1  0
  4  5  1  0
  5  6  1  0
  5  7  1  6
  6 16  1  0
  8  9  2  0
  9 18  1  0
 10 17  2  0
 11  7  2  0
 13 19  2  0
 14 20  2  0
 15 12  2  0
 18 12  1  0
  7  8  1  0
  9 17  1  0
 10 11  1  0
 12 19  1  0
 13 14  1  0
 15 20  1  0
M  END
>  <rmsd>  (120) 
0.249390125

$$$$
MolPort-000-061-005 1361298 MCULE-4841259958 PubChem-1455182 ZINC000001361298 ZINC01361298
     RDKit          3D

 29 31  0  0  0  0  0  0  0  0999 V2000
   13.0142   43.4537    2.4842 C   0  0  0  0  0  0  0  0  0  0  0  0
   13.1494   44.6505    3.4051 C   0  0  0  0  0  0  0  0  0  0  0  0
   13.9604   44.2885    4.5995 C   0  0  0  0  0  0  0  0  0  0  0  0
   14.2309   42.7271    6.5872 C   0  0  0  0  0  0  0  0  0  0  0  0
   13.6404   42.6255    7.8503 C   0  0  0  0  0  0  0  0  0  0  0  0
   14.3345   42.0449    8.9130 C   0  0  0  0  0  0  0  0  0  0  0  0
   15.6276   41.5398    8.7259 C   0  0  0  0  0  0  0  0  0  0  0  0
   15.9494   40.6712   11.1352 C   0  0  0  0  0  0  0  0  0  0  0  0
   14.5421   40.8810   11.5808 C   0  0  0  0  0  0  0  0  0  0  0  0
   12.0256   40.2319   11.6077 C   0  0  0  0  0  0  0  0  0  0  0  0
   11.7718   39.7618   14.0836 C   0  0  0  0  0  0  0  0  0  0  0  0
   10.8229   39.6150   15.1180 C   0  0  0  0  0  0  0  0  0  0  0  0
   11.2108   39.1147   16.3648 C   0  0  0  0  0  0  0  0  0  0  0  0
   12.5402   38.7597   16.5994 C   0  0  0  0  0  0  0  0  0  0  0  0
   13.4879   38.9039   15.5861 C   0  0  0  0  0  0  0  0  0  0  0  0
   13.1046   39.4030   14.3393 C   0  0  0  0  0  0  0  0  0  0  0  0
   16.2101   41.6153    7.4577 C   0  0  0  0  0  0  0  0  0  0  0  0
   15.5253   42.1976    6.3864 C   0  0  0  0  0  0  0  0  0  0  0  0
   16.1668   42.1595    5.0415 C   0  0  0  0  0  0  0  0  0  0  0  0
   15.0514   44.8822    4.8094 O   0  0  0  0  0  0  0  0  0  0  0  0
   16.7767   40.1968   11.9559 O   0  0  0  0  0  0  0  0  0  0  0  0
   13.4663   43.3163    5.5274 N   0  0  0  0  0  0  0  0  0  0  0  0
   16.3791   40.9428    9.7930 N   0  0  0  0  0  0  0  0  0  0  0  0
   11.3104   40.8706   10.6644 N   0  0  0  0  0  0  0  0  0  0  0  0
   10.2371   41.3258   11.2942 N   0  0  0  0  0  0  0  0  0  0  0  0
   10.2815   40.9806   12.5719 N   0  0  0  0  0  0  0  0  0  0  0  0
   11.3889   40.2934   12.7978 N   0  0  0  0  0  0  0  0  0  0  0  0
   13.5661   39.3836   11.2590 S   0  0  0  0  0  0  0  0  0  0  0  0
    9.5198   39.9352   14.9243 F   0  0  0  0  0  0  0  0  0  0  0  0
  1  2  1  0
  2  3  1  0
  3 22  1  0
  5  6  2  0
  7 23  1  0
  7 17  2  0
  9  8  1  0
  9 28  1  0
 10 28  1  0
 12 29  1  0
 12 13  2  0
 14 15  2  0
 16 11  2  0
 18  4  2  0
 19 18  1  0
 22  4  1  0
 23  8  1  0
 24 25  1  0
 27 26  1  0
 27 11  1  0
 27 10  1  0
  3 20  2  0
  4  5  1  0
  6  7  1  0
  8 21  2  0
 10 24  2  0
 11 12  1  0
 13 14  1  0
 15 16  1  0
 17 18  1  0
 25 26  2  0
M  END
>  <rmsd>  (121) 
0.249389678

$$$$
Molport-047-869-455 PubChem-165915902
     RDKit          3D

 18 19  0  0  0  0  0  0  0  0999 V2000
   13.4072   39.4028   11.2162 C   0  0  0  0  0  0  0  0  0  0  0  0
   14.3232   39.2845   10.0097 C   0  0  1  0  0  0  0  0  0  0  0  0
   14.4356   37.8641    9.5611 C   0  0  0  0  0  0  0  0  0  0  0  0
   12.6586   40.1325    8.2917 C   0  0  0  0  0  0  0  0  0  0  0  0
   13.7818   41.6709    7.3527 C   0  0  0  0  0  0  0  0  0  0  0  0
   14.2814   42.7089    6.5783 C   0  0  0  0  0  0  0  0  0  0  0  0
   16.3196   42.5457    7.8167 C   0  0  0  0  0  0  0  0  0  0  0  0
   14.5491   41.1143    8.3144 C   0  0  0  0  0  0  0  0  0  0  0  0
   13.8894   44.3809    4.6983 C   0  0  0  0  0  0  0  0  0  0  0  0
   12.9433   44.9013    3.6776 C   0  0  0  0  0  0  0  0  0  0  0  0
   15.5645   37.3101    9.5243 O   0  0  0  0  0  0  0  0  0  0  0  0
   13.3052   37.1521    9.1778 O   0  0  0  0  0  0  0  0  0  0  0  0
   15.0370   44.8904    4.7949 O   0  0  0  0  0  0  0  0  0  0  0  0
   13.8637   40.1422    8.9221 N   0  0  0  0  0  0  0  0  0  0  0  0
   12.5759   41.0741    7.3090 N   0  0  0  0  0  0  0  0  0  0  0  0
   15.5590   43.1276    6.8338 N   0  0  0  0  0  0  0  0  0  0  0  0
   15.8148   41.5236    8.5720 N   0  0  0  0  0  0  0  0  0  0  0  0
   13.4793   43.3091    5.5539 N   0  0  0  0  0  0  0  0  0  0  0  0
  2  1  1  1
  2  3  1  0
  2 14  1  0
  3 12  1  0
  5 15  1  0
  6 16  2  0
  6 18  1  0
  7 17  2  0
  8 14  1  0
  8  5  2  0
 10  9  1  0
 14  4  1  0
 18  9  1  0
  3 11  2  0
  4 15  2  0
  5  6  1  0
  7 16  1  0
  8 17  1  0
  9 13  2  0
M  END
>  <rmsd>  (122) 
0.24938564

$$$$
MolPort-002-790-936 CSC007976600 CSSS00007976600 LN01161734 MCULE-1365855620 PubChem-17161525
     RDKit          3D

 19 19  0  0  0  0  0  0  0  0999 V2000
   15.4402   37.5539    8.6006 C   0  0  0  0  0  0  0  0  0  0  0  0
   14.4347   37.7670    9.7155 C   0  0  0  0  0  0  0  0  0  0  0  0
   14.3447   39.2408   10.0668 C   0  0  2  0  0  0  0  0  0  0  0  0
   13.5392   39.4039   11.3388 C   0  0  0  0  0  0  0  0  0  0  0  0
   14.3336   40.9924    8.3169 C   0  0  0  0  0  0  0  0  0  0  0  0
   15.6417   41.4002    8.6229 C   0  0  0  0  0  0  0  0  0  0  0  0
   16.2388   42.4411    7.9084 C   0  0  0  0  0  0  0  0  0  0  0  0
   15.5331   43.0796    6.8857 C   0  0  0  0  0  0  0  0  0  0  0  0
   14.2254   42.6814    6.5703 C   0  0  0  0  0  0  0  0  0  0  0  0
   13.9029   44.3901    4.6870 C   0  0  0  0  0  0  0  0  0  0  0  0
   12.9669   44.9423    3.6663 C   0  0  0  0  0  0  0  0  0  0  0  0
   11.9707   45.9000    4.3056 C   0  0  0  0  0  0  0  0  0  0  0  0
   12.6115   47.2069    4.6349 C   0  0  0  0  0  0  0  0  0  0  0  0
   13.6350   41.6377    7.2913 C   0  0  0  0  0  0  0  0  0  0  0  0
   13.7083   39.9534    9.0123 O   0  0  0  0  0  0  0  0  0  0  0  0
   15.0506   44.8945    4.8088 O   0  0  0  0  0  0  0  0  0  0  0  0
   12.7027   47.6167    5.9579 O   0  0  0  0  0  0  0  0  0  0  0  0
   13.0582   47.9442    3.7175 O   0  0  0  0  0  0  0  0  0  0  0  0
   13.4696   43.3133    5.5283 N   0  0  0  0  0  0  0  0  0  0  0  0
  1  2  1  0
  3  2  1  0
  3  4  1  1
  3 15  1  0
  5 15  1  0
  6  7  2  0
  8  9  2  0
  9 19  1  0
 11 10  1  0
 11 12  1  0
 12 13  1  0
 13 17  1  0
 14  5  2  0
 19 10  1  0
  5  6  1  0
  7  8  1  0
  9 14  1  0
 10 16  2  0
 13 18  2  0
M  END
>  <rmsd>  (123) 
0.249363229

$$$$
MolPort-029-891-160 96136481 CSC046102906 CSSS00046102906 MCULE-3429289033 PubChem-72855602 ZINC000096136481 ZINC96136481
     RDKit          3D

 28 31  0  0  0  0  0  0  0  0999 V2000
   15.0561   44.8847    4.7974 O   0  0  0  0  0  0  0  0  0  0  0  0
   13.6142   40.1283    9.1653 O   0  0  0  0  0  0  0  0  0  0  0  0
   13.5503   46.2677    0.3589 O   0  0  0  0  0  0  0  0  0  0  0  0
   13.9158   44.3671    4.6451 C   0  0  0  0  0  0  0  0  0  0  0  0
   14.1920   42.7499    6.6212 C   0  0  0  0  0  0  0  0  0  0  0  0
   13.5877   41.7319    7.3668 C   0  0  0  0  0  0  0  0  0  0  0  0
   14.2537   41.1447    8.4477 C   0  0  0  0  0  0  0  0  0  0  0  0
   14.1878   39.4996   10.3065 C   0  0  0  0  0  0  0  0  0  0  0  0
   13.4395   38.2128   10.6075 C   0  0  0  0  0  0  0  0  0  0  0  0
   12.7182   38.4276   11.9207 C   0  0  0  0  0  0  0  0  0  0  0  0
   13.4911   39.5135   12.6289 C   0  0  0  0  0  0  0  0  0  0  0  0
   14.0328   40.3940   11.5263 C   0  0  0  0  0  0  0  0  0  0  0  0
   15.5444   41.5839    8.7826 C   0  0  0  0  0  0  0  0  0  0  0  0
   16.1555   42.5996    8.0439 C   0  0  0  0  0  0  0  0  0  0  0  0
   15.4815   43.1807    6.9671 C   0  0  0  0  0  0  0  0  0  0  0  0
   11.7262   44.2243    3.4411 C   0  0  0  0  0  0  0  0  0  0  0  0
   10.8711   44.9712    2.4203 C   0  0  0  0  0  0  0  0  0  0  0  0
   12.9310   45.7891    1.3457 C   0  0  0  0  0  0  0  0  0  0  0  0
   13.5265   45.9095    2.7134 C   0  0  0  0  0  0  0  0  0  0  0  0
   11.0943   44.7558   -0.0761 C   0  0  0  0  0  0  0  0  0  0  0  0
   11.9162   44.6205   -1.2079 C   0  0  0  0  0  0  0  0  0  0  0  0
   11.3865   44.1919   -2.4282 C   0  0  0  0  0  0  0  0  0  0  0  0
   10.0273   43.8885   -2.5313 C   0  0  0  0  0  0  0  0  0  0  0  0
    9.1986   44.0120   -1.4142 C   0  0  0  0  0  0  0  0  0  0  0  0
    9.7294   44.4407   -0.1943 C   0  0  0  0  0  0  0  0  0  0  0  0
   13.4688   43.3214    5.5226 N   0  0  0  0  0  0  0  0  0  0  0  0
   13.0610   44.8243    3.5870 N   0  0  0  0  0  0  0  0  0  0  0  0
   11.6348   45.1826    1.1940 N   0  0  0  0  0  0  0  0  0  0  0  0
  4 26  1  0
  4 27  1  0
  6  7  2  0
  7  2  1  0
  8  2  1  0
  8  9  1  0
  9 10  1  0
 10 11  1  0
 11 12  1  0
 12  8  1  0
 13 14  2  0
 15  5  2  0
 16 27  1  0
 16 17  1  0
 17 28  1  0
 19 18  1  0
 19 27  1  0
 21 22  2  0
 23 24  2  0
 25 20  2  0
 26  5  1  0
 28 18  1  0
 28 20  1  0
  4  1  2  0
  5  6  1  0
  7 13  1  0
 14 15  1  0
 18  3  2  0
 20 21  1  0
 22 23  1  0
 24 25  1  0
M  END
>  <rmsd>  (124) 
0.249331847

$$$$
MolPort-046-949-852 141560344 MCULE-9951375541 PubChem-46951964 ZINC000141560344
     RDKit          3D

 29 32  0  0  0  0  0  0  0  0999 V2000
   13.0179   39.4961   11.8163 C   0  0  0  0  0  0  0  0  0  0  0  0
   13.2851   38.8010   10.4937 C   0  0  0  0  0  0  0  0  0  0  0  0
   14.7406   40.4803    9.3790 C   0  0  0  0  0  0  0  0  0  0  0  0
   15.8233   40.2473   10.2533 C   0  0  0  0  0  0  0  0  0  0  0  0
   17.0159   40.9854   10.1336 C   0  0  0  0  0  0  0  0  0  0  0  0
   17.1481   41.9666    9.1399 C   0  0  0  0  0  0  0  0  0  0  0  0
   16.0697   42.1787    8.2864 C   0  0  0  0  0  0  0  0  0  0  0  0
   14.3594   42.7720    6.6608 C   0  0  0  0  0  0  0  0  0  0  0  0
   13.8741   44.3451    4.7029 C   0  0  0  0  0  0  0  0  0  0  0  0
   12.8610   44.8126    3.7149 C   0  0  0  0  0  0  0  0  0  0  0  0
   12.0463   47.0004    4.7675 C   0  0  0  0  0  0  0  0  0  0  0  0
   11.0265   48.7425    6.3328 C   0  0  0  0  0  0  0  0  0  0  0  0
   10.2227   46.2834    6.0566 C   0  0  0  0  0  0  0  0  0  0  0  0
    8.7671   46.6200    5.6963 C   0  0  0  0  0  0  0  0  0  0  0  0
    7.7980   45.5339    6.1618 C   0  0  0  0  0  0  0  0  0  0  0  0
    7.9471   45.3005    7.6602 C   0  0  0  0  0  0  0  0  0  0  0  0
    9.3689   44.8520    7.9756 C   0  0  0  0  0  0  0  0  0  0  0  0
   10.3693   45.9237    7.5444 C   0  0  0  0  0  0  0  0  0  0  0  0
   10.7789   45.1970    5.1671 C   0  0  0  0  0  0  0  0  0  0  0  0
   14.8885   41.4591    8.3913 C   0  0  0  0  0  0  0  0  0  0  0  0
   13.5430   39.7603    9.4739 O   0  0  0  0  0  0  0  0  0  0  0  0
   15.0059   44.8955    4.7327 O   0  0  0  0  0  0  0  0  0  0  0  0
   12.9682   47.7405    4.3313 O   0  0  0  0  0  0  0  0  0  0  0  0
   10.3559   44.0099    5.1334 O   0  0  0  0  0  0  0  0  0  0  0  0
   15.9405   43.2745    7.0234 S   0  0  0  0  0  0  0  0  0  0  0  0
   13.5289   43.3016    5.6210 N   0  0  0  0  0  0  0  0  0  0  0  0
   11.8681   45.6533    4.3711 N   0  0  0  0  0  0  0  0  0  0  0  0
   11.0906   47.4173    5.7334 N   0  0  0  0  0  0  0  0  0  0  0  0
   13.9305   41.7876    7.4864 N   0  0  0  0  0  0  0  0  0  0  0  0
  1  2  1  0
  2 21  1  0
  3 21  1  0
  4  5  2  0
  6  7  2  0
  7 25  1  0
  8 25  1  0
  8 26  1  0
 10  9  1  0
 10 27  1  0
 11 28  1  0
 12 28  1  0
 13 28  1  0
 13 14  1  0
 13 19  1  0
 14 15  1  0
 15 16  1  0
 16 17  1  0
 17 18  1  0
 18 13  1  0
 19 27  1  0
 20 29  1  0
 20  3  2  0
 26  9  1  0
 27 11  1  0
  3  4  1  0
  5  6  1  0
  8 29  2  0
  9 22  2  0
 11 23  2  0
 19 24  2  0
 20  7  1  0
M  END
>  <rmsd>  (125) 
0.249259651

$$$$
MolPort-003-121-662 9058316 CSSS03437103792 MCULE-8574513420 PubChem-16939933 ZINC000009058316 ZINC09058316
     RDKit          3D

 30 33  0  0  0  0  0  0  0  0999 V2000
   13.3560   39.5218   11.3316 C   0  0  0  0  0  0  0  0  0  0  0  0
   10.9103   40.0487   11.1363 C   0  0  0  0  0  0  0  0  0  0  0  0
   11.0032   40.8357    9.9566 C   0  0  0  0  0  0  0  0  0  0  0  0
   12.5317   41.8283    8.1389 C   0  0  0  0  0  0  0  0  0  0  0  0
   13.9133   41.9405    7.6518 C   0  0  0  0  0  0  0  0  0  0  0  0
   14.3436   42.6317    6.5190 C   0  0  0  0  0  0  0  0  0  0  0  0
   13.9172   44.3160    4.6444 C   0  0  0  0  0  0  0  0  0  0  0  0
   13.0302   44.7251    3.5308 C   0  0  0  0  0  0  0  0  0  0  0  0
   11.7744   44.1195    3.3039 C   0  0  0  0  0  0  0  0  0  0  0  0
   10.9746   44.5419    2.2370 C   0  0  0  0  0  0  0  0  0  0  0  0
   11.4091   45.5622    1.3892 C   0  0  0  0  0  0  0  0  0  0  0  0
   12.6483   46.1661    1.6043 C   0  0  0  0  0  0  0  0  0  0  0  0
   13.4522   45.7494    2.6678 C   0  0  0  0  0  0  0  0  0  0  0  0
   15.7035   42.4198    6.4728 C   0  0  0  0  0  0  0  0  0  0  0  0
   17.9272   42.4153    5.7330 C   0  0  0  0  0  0  0  0  0  0  0  0
   18.3013   41.6396    6.8538 C   0  0  0  0  0  0  0  0  0  0  0  0
   17.3290   41.2409    7.7885 C   0  0  0  0  0  0  0  0  0  0  0  0
   16.0206   41.6500    7.5561 C   0  0  0  0  0  0  0  0  0  0  0  0
    9.8322   41.3903    9.4147 C   0  0  0  0  0  0  0  0  0  0  0  0
    8.5917   41.1791   10.0161 C   0  0  0  0  0  0  0  0  0  0  0  0
    8.5034   40.4074   11.1724 C   0  0  0  0  0  0  0  0  0  0  0  0
    9.6557   39.8483   11.7253 C   0  0  0  0  0  0  0  0  0  0  0  0
   12.0074   39.4430   11.7702 O   0  0  0  0  0  0  0  0  0  0  0  0
   11.5951   42.3991    7.5180 O   0  0  0  0  0  0  0  0  0  0  0  0
   15.0218   44.9024    4.8051 O   0  0  0  0  0  0  0  0  0  0  0  0
   14.9457   41.3724    8.2566 O   0  0  0  0  0  0  0  0  0  0  0  0
   12.2727   41.0638    9.3246 N   0  0  0  0  0  0  0  0  0  0  0  0
   13.5057   43.3003    5.5670 N   0  0  0  0  0  0  0  0  0  0  0  0
   16.6258   42.7923    5.5510 N   0  0  0  0  0  0  0  0  0  0  0  0
   11.3122   43.1237    4.1002 F   0  0  0  0  0  0  0  0  0  0  0  0
  1 23  1  0
  2 23  1  0
  3 27  1  0
  3 19  2  0
  4  5  1  0
  5 26  1  0
  6 28  1  0
  6 14  1  0
  7  8  1  0
  9 30  1  0
  9 10  2  0
 11 12  2  0
 13  8  2  0
 15 29  2  0
 16 17  2  0
 18 26  1  0
 18 14  2  0
 20 21  2  0
 22  2  2  0
 27  4  1  0
 28  7  1  0
  2  3  1  0
  4 24  2  0
  5  6  2  0
  7 25  2  0
  8  9  1  0
 10 11  1  0
 12 13  1  0
 14 29  1  0
 15 16  1  0
 17 18  1  0
 19 20  1  0
 21 22  1  0
M  END
>  <rmsd>  (126) 
0.249255925

$$$$
MolPort-006-579-716 ChemDiv-V002-8400 MCULE-7113003043 PubChem-46040680 ZINC000037544389 ZINC37544389
     RDKit          3D

 30 33  0  0  0  0  0  0  0  0999 V2000
   12.3123   32.5795    8.1319 F   0  0  0  0  0  0  0  0  0  0  0  0
   11.6395   33.2084   10.7410 F   0  0  0  0  0  0  0  0  0  0  0  0
   11.9320   33.8397    8.4548 C   0  0  0  0  0  0  0  0  0  0  0  0
   11.8822   34.8252    7.4640 C   0  0  0  0  0  0  0  0  0  0  0  0
   11.4907   36.1269    7.7906 C   0  0  0  0  0  0  0  0  0  0  0  0
   11.1442   36.4448    9.1083 C   0  0  0  0  0  0  0  0  0  0  0  0
   10.7489   37.8397    9.4621 C   0  0  0  0  0  0  0  0  0  0  0  0
   12.3990   38.5030   11.2287 C   0  0  0  0  0  0  0  0  0  0  0  0
   13.2999   39.6733   11.6081 C   0  0  0  0  0  0  0  0  0  0  0  0
   14.4143   39.7883   10.5804 C   0  0  0  0  0  0  0  0  0  0  0  0
   12.6836   39.3296    8.8595 C   0  0  0  0  0  0  0  0  0  0  0  0
   14.4334   41.1230    8.4545 C   0  0  0  0  0  0  0  0  0  0  0  0
   15.7341   41.5809    8.7223 C   0  0  0  0  0  0  0  0  0  0  0  0
   16.3028   42.6000    7.9553 C   0  0  0  0  0  0  0  0  0  0  0  0
   15.5753   43.1773    6.9131 C   0  0  0  0  0  0  0  0  0  0  0  0
   14.2734   42.7405    6.6321 C   0  0  0  0  0  0  0  0  0  0  0  0
   13.8916   44.3574    4.6781 C   0  0  0  0  0  0  0  0  0  0  0  0
   12.9558   44.8126    3.6448 C   0  0  0  0  0  0  0  0  0  0  0  0
   13.2014   45.8073    2.7214 C   0  0  0  0  0  0  0  0  0  0  0  0
   12.0436   45.8823    1.9668 C   0  0  0  0  0  0  0  0  0  0  0  0
   11.1753   44.9330    2.4785 C   0  0  0  0  0  0  0  0  0  0  0  0
   13.7128   41.7198    7.4062 C   0  0  0  0  0  0  0  0  0  0  0  0
   11.1994   35.4598   10.1005 C   0  0  0  0  0  0  0  0  0  0  0  0
   11.5904   34.1576    9.7749 C   0  0  0  0  0  0  0  0  0  0  0  0
   11.9176   38.6200    9.8509 N   0  0  0  0  0  0  0  0  0  0  0  0
   13.8473   40.0799    9.2642 N   0  0  0  0  0  0  0  0  0  0  0  0
   13.4931   43.3090    5.5719 N   0  0  0  0  0  0  0  0  0  0  0  0
   12.3304   39.2966    7.6488 O   0  0  0  0  0  0  0  0  0  0  0  0
   15.0304   44.8904    4.7695 O   0  0  0  0  0  0  0  0  0  0  0  0
   11.7566   44.3161    3.4787 O   0  0  0  0  0  0  0  0  0  0  0  0
  3  1  1  0
  4  5  2  0
  6 23  2  0
  7  6  1  0
  7 25  1  0
  8 25  1  0
  8  9  1  0
  9 10  1  0
 10 26  1  0
 11 25  1  0
 13 14  2  0
 15 16  2  0
 16 27  1  0
 17 18  1  0
 18 30  1  0
 19 20  1  0
 21 30  1  0
 22 12  2  0
 24  2  1  0
 24  3  2  0
 26 11  1  0
 26 12  1  0
 27 17  1  0
  3  4  1  0
  5  6  1  0
 11 28  2  0
 12 13  1  0
 14 15  1  0
 16 22  1  0
 17 29  2  0
 18 19  2  0
 20 21  2  0
 23 24  1  0
M  END
>  <rmsd>  (127) 
0.249247044

$$$$
MolPort-020-278-602 MCULE-1424883929 MCULE-1992094285 PubChem-110255474
     RDKit          3D

 22 24  0  0  0  0  0  0  0  0999 V2000
   16.7747   46.5353    4.0198 C   0  0  0  0  0  0  0  0  0  0  0  0
   15.4326   45.9094    3.8970 C   0  0  0  0  0  0  0  0  0  0  0  0
   13.8423   44.3200    4.6772 C   0  0  0  0  0  0  0  0  0  0  0  0
   12.9363   44.7234    3.6924 C   0  0  0  0  0  0  0  0  0  0  0  0
   13.2956   45.7366    2.8019 C   0  0  0  0  0  0  0  0  0  0  0  0
   14.5517   46.3364    2.9015 C   0  0  0  0  0  0  0  0  0  0  0  0
   14.2426   42.7273    6.6569 C   0  0  0  0  0  0  0  0  0  0  0  0
   14.4005   41.1777    8.4437 C   0  0  0  0  0  0  0  0  0  0  0  0
   16.2348   42.5991    7.9942 C   0  0  0  0  0  0  0  0  0  0  0  0
   15.5358   43.1808    6.9390 C   0  0  0  0  0  0  0  0  0  0  0  0
   17.6099   43.0593    8.3181 C   0  0  0  0  0  0  0  0  0  0  0  0
   13.7733   40.0919    9.2524 C   0  0  2  0  0  0  0  0  0  0  0  0
   13.5996   40.5297   10.7075 C   0  0  0  0  0  0  0  0  0  0  0  0
   13.0379   39.3898   11.5618 C   0  0  0  0  0  0  0  0  0  0  0  0
   13.5935   38.0200   11.1502 C   0  0  0  0  0  0  0  0  0  0  0  0
   14.5764   38.7840    9.1237 C   0  0  0  0  0  0  0  0  0  0  0  0
   15.3372   36.8241   10.1518 C   0  0  0  0  0  0  0  0  0  0  0  0
   15.0632   44.9207    4.7548 N   0  0  0  0  0  0  0  0  0  0  0  0
   13.4622   43.2782    5.5864 N   0  0  0  0  0  0  0  0  0  0  0  0
   13.7064   41.7360    7.4171 N   0  0  0  0  0  0  0  0  0  0  0  0
   15.6589   41.6116    8.7265 N   0  0  0  0  0  0  0  0  0  0  0  0
   14.8524   38.1646   10.4231 N   0  0  0  0  0  0  0  0  0  0  0  0
  1  2  1  0
  3 18  2  0
  3 19  1  0
  4  5  2  0
  6  2  2  0
  8 20  2  0
  9 21  2  0
 10  7  2  0
 11  9  1  0
 12  8  1  6
 12 13  1  0
 13 14  1  0
 14 15  1  0
 15 22  1  0
 16 22  1  0
 16 12  1  0
 17 22  1  0
 19  7  1  0
  2 18  1  0
  3  4  1  0
  5  6  1  0
  7 20  1  0
  8 21  1  0
  9 10  1  0
M  END
>  <rmsd>  (128) 
0.249232113

$$$$
MolPort-047-015-083 MCULE-6651060413 PubChem-155985066
     RDKit          3D

 28 31  0  0  0  0  0  0  0  0999 V2000
   16.0456   37.0382   10.0587 S   0  0  0  0  0  0  0  0  0  0  0  0
   12.9400   44.9175    3.4307 S   0  0  0  0  0  0  0  0  0  0  0  0
   16.9729   37.2523    8.8950 O   0  0  0  0  0  0  0  0  0  0  0  0
   15.1508   35.8667    9.7578 O   0  0  0  0  0  0  0  0  0  0  0  0
   15.0969   38.4657   10.3229 N   0  0  0  0  0  0  0  0  0  0  0  0
   13.6147   41.7203    7.3995 N   0  0  0  0  0  0  0  0  0  0  0  0
   13.4442   43.2744    5.5695 N   0  0  0  0  0  0  0  0  0  0  0  0
   15.0822   44.9285    4.7633 N   0  0  0  0  0  0  0  0  0  0  0  0
   17.6696   35.8265   13.3570 N   0  0  0  0  0  0  0  0  0  0  0  0
   18.1468   37.3324   11.7930 N   0  0  0  0  0  0  0  0  0  0  0  0
   14.1586   38.1862   11.4170 C   0  0  0  0  0  0  0  0  0  0  0  0
   13.0666   39.2617   11.5555 C   0  0  0  0  0  0  0  0  0  0  0  0
   13.3419   40.4765   10.6718 C   0  0  0  0  0  0  0  0  0  0  0  0
   13.5692   40.0530    9.2150 C   0  0  1  0  0  0  0  0  0  0  0  0
   14.2566   41.1381    8.4487 C   0  0  0  0  0  0  0  0  0  0  0  0
   15.5482   41.5592    8.7928 C   0  0  0  0  0  0  0  0  0  0  0  0
   16.1559   42.5719    8.0519 C   0  0  0  0  0  0  0  0  0  0  0  0
   15.4756   43.1521    6.9814 C   0  0  0  0  0  0  0  0  0  0  0  0
   14.1848   42.7106    6.6600 C   0  0  0  0  0  0  0  0  0  0  0  0
   13.8791   44.3162    4.6873 C   0  0  0  0  0  0  0  0  0  0  0  0
   14.1301   46.0100    2.9660 C   0  0  0  0  0  0  0  0  0  0  0  0
   15.2306   45.8790    3.8022 C   0  0  0  0  0  0  0  0  0  0  0  0
   14.0196   46.9672    1.8349 C   0  0  0  0  0  0  0  0  0  0  0  0
   14.3355   38.7267    9.1017 C   0  0  0  0  0  0  0  0  0  0  0  0
   17.0021   36.6902   11.4864 C   0  0  0  0  0  0  0  0  0  0  0  0
   16.6875   35.7533   12.4465 C   0  0  0  0  0  0  0  0  0  0  0  0
   18.5361   36.7736   12.9568 C   0  0  0  0  0  0  0  0  0  0  0  0
   17.7765   35.0273   14.5625 C   0  0  0  0  0  0  0  0  0  0  0  0
  1  5  1  0
  1 25  1  0
  7 20  1  0
  9 27  1  0
 11  5  1  0
 11 12  1  0
 12 13  1  0
 13 14  1  0
 14 15  1  6
 14 24  1  0
 15  6  2  0
 16 17  2  0
 18 19  2  0
 19  7  1  0
 20  2  1  0
 21  2  1  0
 22  8  1  0
 23 21  1  0
 24  5  1  0
 25 10  1  0
 26  9  1  0
 28  9  1  0
  1  3  2  0
  1  4  2  0
 15 16  1  0
 17 18  1  0
 19  6  1  0
 20  8  2  0
 21 22  2  0
 25 26  2  0
 27 10  2  0
M  END
>  <rmsd>  (129) 
0.249229074

$$$$
MolPort-047-073-941 MCULE-8308762370 PubChem-132767230
     RDKit          3D

 32 35  0  0  0  0  0  0  0  0999 V2000
   15.2414   45.8757    3.8181 C   0  0  0  0  0  0  0  0  0  0  0  0
   14.1768   46.0128    2.9201 C   0  0  0  0  0  0  0  0  0  0  0  0
   13.8977   44.2967    4.6677 C   0  0  0  0  0  0  0  0  0  0  0  0
   14.2104   42.6832    6.6060 C   0  0  0  0  0  0  0  0  0  0  0  0
   13.5986   41.7848    7.4774 C   0  0  0  0  0  0  0  0  0  0  0  0
   14.3653   41.2052    8.4886 C   0  0  0  0  0  0  0  0  0  0  0  0
   13.7321   40.2121    9.4061 C   0  0  2  0  0  0  0  0  0  0  0  0
   13.9783   40.5541   10.8774 C   0  0  0  0  0  0  0  0  0  0  0  0
   13.3142   39.5192   11.7936 C   0  0  0  0  0  0  0  0  0  0  0  0
   13.2847   38.1186   11.1709 C   0  0  0  0  0  0  0  0  0  0  0  0
   14.3740   36.5627    9.7973 C   0  0  0  0  0  0  0  0  0  0  0  0
   15.6864   35.9466   10.0145 C   0  0  0  0  0  0  0  0  0  0  0  0
   14.1772   38.7803    9.0550 C   0  0  0  0  0  0  0  0  0  0  0  0
   16.2686   42.3861    7.7373 C   0  0  0  0  0  0  0  0  0  0  0  0
   17.7120   42.7048    7.8708 C   0  0  0  0  0  0  0  0  0  0  0  0
   16.4491   46.7097    3.7520 C   0  0  0  0  0  0  0  0  0  0  0  0
   18.6581   47.3897    4.7898 C   0  0  0  0  0  0  0  0  0  0  0  0
   18.3018   48.6448    5.5141 C   0  0  0  0  0  0  0  0  0  0  0  0
   18.0190   49.8143    4.7973 C   0  0  0  0  0  0  0  0  0  0  0  0
   17.6615   50.9844    5.4777 C   0  0  0  0  0  0  0  0  0  0  0  0
   17.5829   50.9850    6.8747 C   0  0  0  0  0  0  0  0  0  0  0  0
   17.8605   49.8160    7.5918 C   0  0  0  0  0  0  0  0  0  0  0  0
   18.2179   48.6459    6.9122 C   0  0  0  0  0  0  0  0  0  0  0  0
   13.0059   44.8896    3.3810 S   0  0  0  0  0  0  0  0  0  0  0  0
   13.4366   43.2741    5.5555 N   0  0  0  0  0  0  0  0  0  0  0  0
   14.4036   37.9455   10.2448 N   0  0  0  0  0  0  0  0  0  0  0  0
   16.7268   35.4642   10.1961 N   0  0  0  0  0  0  0  0  0  0  0  0
   15.6861   41.5103    8.5961 N   0  0  0  0  0  0  0  0  0  0  0  0
   15.5335   42.9637    6.7507 N   0  0  0  0  0  0  0  0  0  0  0  0
   15.0836   44.9293    4.7841 N   0  0  0  0  0  0  0  0  0  0  0  0
   17.4980   46.5134    4.7052 N   0  0  0  0  0  0  0  0  0  0  0  0
   16.5563   47.5980    2.8630 O   0  0  0  0  0  0  0  0  0  0  0  0
  1 16  1  0
  1 30  1  0
  2 24  1  0
  3 24  1  0
  3 25  1  0
  4 29  2  0
  5  6  2  0
  7  6  1  6
  7  8  1  0
  8  9  1  0
  9 10  1  0
 10 26  1  0
 11 26  1  0
 11 12  1  0
 13 26  1  0
 13  7  1  0
 14 28  2  0
 15 14  1  0
 16 31  1  0
 17 31  1  0
 17 18  1  0
 19 20  2  0
 21 22  2  0
 23 18  2  0
 25  4  1  0
  1  2  2  0
  3 30  2  0
  4  5  1  0
  6 28  1  0
 14 29  1  0
 16 32  2  0
 18 19  1  0
 20 21  1  0
 22 23  1  0
 12 27  3  0
M  END
>  <rmsd>  (130) 
0.249228641

$$$$
MolPort-046-956-527 MCULE-7643606038 PubChem-110095462
     RDKit          3D

 27 30  0  0  0  0  0  0  0  0999 V2000
   17.6161   43.1014    8.1269 C   0  0  0  0  0  0  0  0  0  0  0  0
   16.2280   42.6272    7.8910 C   0  0  0  0  0  0  0  0  0  0  0  0
   14.4261   41.2141    8.4825 C   0  0  0  0  0  0  0  0  0  0  0  0
   13.6595   41.7466    7.4460 C   0  0  0  0  0  0  0  0  0  0  0  0
   14.2200   42.7365    6.6394 C   0  0  0  0  0  0  0  0  0  0  0  0
   13.8645   44.2996    4.6478 C   0  0  0  0  0  0  0  0  0  0  0  0
   13.0099   44.6675    3.6036 C   0  0  0  0  0  0  0  0  0  0  0  0
   13.4107   45.6571    2.7039 C   0  0  0  0  0  0  0  0  0  0  0  0
   14.6555   46.2707    2.8559 C   0  0  0  0  0  0  0  0  0  0  0  0
   15.4835   45.8809    3.9120 C   0  0  0  0  0  0  0  0  0  0  0  0
   13.8542   40.1330    9.3383 C   0  0  2  0  0  0  0  0  0  0  0  0
   13.8272   40.5530   10.8110 C   0  0  0  0  0  0  0  0  0  0  0  0
   13.5373   39.3763   11.7516 C   0  0  0  0  0  0  0  0  0  0  0  0
   13.1422   38.1166   10.9814 C   0  0  0  0  0  0  0  0  0  0  0  0
   14.6347   38.8227    9.1513 C   0  0  0  0  0  0  0  0  0  0  0  0
   13.6609   36.6835    9.1888 C   0  0  0  0  0  0  0  0  0  0  0  0
   14.0343   35.3340    9.7162 C   0  0  0  0  0  0  0  0  0  0  0  0
   13.8583   33.3579   10.5027 C   0  0  0  0  0  0  0  0  0  0  0  0
   15.2031   33.6193   10.2913 C   0  0  0  0  0  0  0  0  0  0  0  0
   16.5198   35.5421    9.4172 C   0  0  0  0  0  0  0  0  0  0  0  0
   15.6958   41.6611    8.6839 N   0  0  0  0  0  0  0  0  0  0  0  0
   15.4933   43.1548    6.8760 N   0  0  0  0  0  0  0  0  0  0  0  0
   13.4453   43.2809    5.5641 N   0  0  0  0  0  0  0  0  0  0  0  0
   15.0751   44.9134    4.7770 N   0  0  0  0  0  0  0  0  0  0  0  0
   14.2047   37.7279   10.0434 N   0  0  0  0  0  0  0  0  0  0  0  0
   13.1269   34.4352   10.1363 N   0  0  0  0  0  0  0  0  0  0  0  0
   15.2917   34.8633    9.7957 N   0  0  0  0  0  0  0  0  0  0  0  0
  1  2  1  0
  2 22  2  0
  3 21  2  0
  4  5  2  0
  5 23  1  0
  6 24  2  0
  7  8  2  0
  9 10  2  0
 11  3  1  6
 11 12  1  0
 12 13  1  0
 13 14  1  0
 14 25  1  0
 15 25  1  0
 15 11  1  0
 16 25  1  0
 16 17  1  0
 18 26  1  0
 19 27  1  0
 20 27  1  0
 23  6  1  0
 27 17  1  0
  2 21  1  0
  3  4  1  0
  5 22  1  0
  6  7  1  0
  8  9  1  0
 10 24  1  0
 17 26  2  0
 18 19  2  0
M  END
>  <rmsd>  (131) 
0.249213159

$$$$
MolPort-003-871-640 60917 CSC048446353 LN01829905 MCULE-2085106535 PubChem-690635 ZINC000000060917 ZINC00060917
     RDKit          3D

 22 24  0  0  0  0  0  0  0  0999 V2000
   10.0213   44.9180    1.5463 C   0  0  0  0  0  0  0  0  0  0  0  0
   11.3402   45.0748    2.2141 C   0  0  0  0  0  0  0  0  0  0  0  0
   11.7653   44.3378    3.3056 C   0  0  0  0  0  0  0  0  0  0  0  0
   13.0328   44.8307    3.5668 C   0  0  0  0  0  0  0  0  0  0  0  0
   13.9181   44.3666    4.6484 C   0  0  0  0  0  0  0  0  0  0  0  0
   14.1918   42.7496    6.6223 C   0  0  0  0  0  0  0  0  0  0  0  0
   13.5866   41.7322    7.3681 C   0  0  0  0  0  0  0  0  0  0  0  0
   14.2523   41.1444    8.4486 C   0  0  0  0  0  0  0  0  0  0  0  0
   14.1852   39.4993   10.3075 C   0  0  0  0  0  0  0  0  0  0  0  0
   13.4357   38.2132   10.6087 C   0  0  0  0  0  0  0  0  0  0  0  0
   12.7152   38.4287   11.9224 C   0  0  0  0  0  0  0  0  0  0  0  0
   13.4896   39.5137   12.6302 C   0  0  0  0  0  0  0  0  0  0  0  0
   14.0314   40.3938   11.5274 C   0  0  0  0  0  0  0  0  0  0  0  0
   15.5435   41.5822    8.7833 C   0  0  0  0  0  0  0  0  0  0  0  0
   16.1554   42.5972    8.0445 C   0  0  0  0  0  0  0  0  0  0  0  0
   15.4818   43.1791    6.9678 C   0  0  0  0  0  0  0  0  0  0  0  0
   13.2840   45.8179    2.6289 C   0  0  0  0  0  0  0  0  0  0  0  0
   14.5200   46.6403    2.5033 C   0  0  0  0  0  0  0  0  0  0  0  0
   15.0566   44.8864    4.7973 O   0  0  0  0  0  0  0  0  0  0  0  0
   13.6118   40.1285    9.1665 O   0  0  0  0  0  0  0  0  0  0  0  0
   12.2513   45.9395    1.8340 O   0  0  0  0  0  0  0  0  0  0  0  0
   13.4690   43.3221    5.5239 N   0  0  0  0  0  0  0  0  0  0  0  0
  1  2  1  0
  2 21  1  0
  3  4  1  0
  4  5  1  0
  5 22  1  0
  7  8  2  0
  8 20  1  0
  9 20  1  0
  9 10  1  0
 10 11  1  0
 11 12  1  0
 12 13  1  0
 13  9  1  0
 14 15  2  0
 16  6  2  0
 17 21  1  0
 18 17  1  0
 22  6  1  0
  2  3  2  0
  4 17  2  0
  5 19  2  0
  6  7  1  0
  8 14  1  0
 15 16  1  0
M  END
>  <rmsd>  (132) 
0.249206498

$$$$
Molport-047-073-963 MCULE-9259942802 PubChem-155997553
     RDKit          3D

 28 31  0  0  0  0  0  0  0  0999 V2000
   15.2190   45.8834    3.8005 C   0  0  0  0  0  0  0  0  0  0  0  0
   14.1214   46.0441    2.9486 C   0  0  0  0  0  0  0  0  0  0  0  0
   13.8806   44.3198    4.6926 C   0  0  0  0  0  0  0  0  0  0  0  0
   14.1903   42.7192    6.6654 C   0  0  0  0  0  0  0  0  0  0  0  0
   15.4708   43.1823    6.9980 C   0  0  0  0  0  0  0  0  0  0  0  0
   16.1532   42.6113    8.0720 C   0  0  0  0  0  0  0  0  0  0  0  0
   15.5574   41.5862    8.8055 C   0  0  0  0  0  0  0  0  0  0  0  0
   14.2760   41.1436    8.4505 C   0  0  0  0  0  0  0  0  0  0  0  0
   13.6013   40.0464    9.2106 C   0  0  2  0  0  0  0  0  0  0  0  0
   13.3456   40.4665   10.6631 C   0  0  0  0  0  0  0  0  0  0  0  0
   13.0526   39.2497   11.5388 C   0  0  0  0  0  0  0  0  0  0  0  0
   14.1306   38.1596   11.4000 C   0  0  0  0  0  0  0  0  0  0  0  0
   15.8864   37.2532   10.1300 C   0  0  0  0  0  0  0  0  0  0  0  0
   17.1919   37.3784   10.7837 C   0  0  0  0  0  0  0  0  0  0  0  0
   14.3902   38.7321    9.1062 C   0  0  0  0  0  0  0  0  0  0  0  0
   16.4494   46.6882    3.6614 C   0  0  0  0  0  0  0  0  0  0  0  0
   18.7010   47.4130    4.5008 C   0  0  0  0  0  0  0  0  0  0  0  0
   19.1824   47.4590    5.9203 C   0  0  0  0  0  0  0  0  0  0  0  0
   18.0609   46.7647    6.6744 C   0  0  0  0  0  0  0  0  0  0  0  0
   12.9518   44.9366    3.4458 S   0  0  0  0  0  0  0  0  0  0  0  0
   13.4477   43.2753    5.5721 N   0  0  0  0  0  0  0  0  0  0  0  0
   15.1094   38.4608   10.3492 N   0  0  0  0  0  0  0  0  0  0  0  0
   18.2228   37.4774   11.3000 N   0  0  0  0  0  0  0  0  0  0  0  0
   13.6316   41.7177    7.3984 N   0  0  0  0  0  0  0  0  0  0  0  0
   15.0813   44.9277    4.7603 N   0  0  0  0  0  0  0  0  0  0  0  0
   17.5480   46.5440    4.5766 N   0  0  0  0  0  0  0  0  0  0  0  0
   16.5393   47.5100    2.7082 O   0  0  0  0  0  0  0  0  0  0  0  0
   17.4075   45.9129    5.7696 O   0  0  0  0  0  0  0  0  0  0  0  0
  1 16  1  0
  1 25  1  0
  2 20  1  0
  3 20  1  0
  3 21  1  0
  4 24  2  0
  5  6  2  0
  7  8  2  0
  9  8  1  1
  9 10  1  0
 10 11  1  0
 11 12  1  0
 12 22  1  0
 13 22  1  0
 13 14  1  0
 15 22  1  0
 15  9  1  0
 16 26  1  0
 17 26  1  0
 17 18  1  0
 18 19  1  0
 19 28  1  0
 21  4  1  0
 26 28  1  0
  1  2  2  0
  3 25  2  0
  4  5  1  0
  6  7  1  0
  8 24  1  0
 16 27  2  0
 14 23  3  0
M  END
>  <rmsd>  (133) 
0.249188498

$$$$
MolPort-019-951-899 72401769 CSSS00160620296 MCULE-3708651023 PubChem-60176406 ZINC000072401769
     RDKit          3D

 25 27  0  0  0  0  0  0  0  0999 V2000
   13.3735   37.8895   10.4854 C   0  0  0  0  0  0  0  0  0  0  0  0
   13.5574   39.3185   10.9639 C   0  0  0  0  0  0  0  0  0  0  0  0
   14.8139   39.3710   11.8191 C   0  0  0  0  0  0  0  0  0  0  0  0
   12.3767   39.6997   11.8387 C   0  0  0  0  0  0  0  0  0  0  0  0
   13.6438   40.2529    9.7777 C   0  0  0  0  0  0  0  0  0  0  0  0
   12.5568   40.3380    8.8631 C   0  0  0  0  0  0  0  0  0  0  0  0
   12.6214   41.2019    7.7552 C   0  0  0  0  0  0  0  0  0  0  0  0
   13.7839   41.9466    7.6158 C   0  0  0  0  0  0  0  0  0  0  0  0
   14.2157   42.8691    6.6996 C   0  0  0  0  0  0  0  0  0  0  0  0
   13.9453   44.2874    4.6122 C   0  0  0  0  0  0  0  0  0  0  0  0
   13.0727   44.6665    3.4828 C   0  0  0  0  0  0  0  0  0  0  0  0
   13.5553   45.1328    2.2308 C   0  0  0  0  0  0  0  0  0  0  0  0
   11.3163   45.5352    1.5349 C   0  0  0  0  0  0  0  0  0  0  0  0
   10.8421   45.0420    2.7456 C   0  0  0  0  0  0  0  0  0  0  0  0
   14.9777   45.1120    1.8344 C   0  0  0  0  0  0  0  0  0  0  0  0
   14.8099   41.8491    8.5017 C   0  0  0  0  0  0  0  0  0  0  0  0
   13.4805   43.3149    5.5555 N   0  0  0  0  0  0  0  0  0  0  0  0
   12.6536   45.5665    1.3075 N   0  0  0  0  0  0  0  0  0  0  0  0
   11.7268   44.6238    3.6855 N   0  0  0  0  0  0  0  0  0  0  0  0
   15.4561   43.2921    7.0456 N   0  0  0  0  0  0  0  0  0  0  0  0
   15.8245   42.6625    8.1599 N   0  0  0  0  0  0  0  0  0  0  0  0
   14.7630   41.0216    9.5738 N   0  0  0  0  0  0  0  0  0  0  0  0
   15.0538   44.8623    4.7852 O   0  0  0  0  0  0  0  0  0  0  0  0
   15.4308   45.9942    0.8613 O   0  0  0  0  0  0  0  0  0  0  0  0
   15.7733   44.2566    2.3042 O   0  0  0  0  0  0  0  0  0  0  0  0
  1  2  1  0
  2  3  1  0
  2  4  1  0
  2  5  1  0
  5 22  2  0
  6  7  2  0
  8  9  1  0
  9 17  1  0
 10 11  1  0
 11 19  2  0
 12 18  2  0
 12 15  1  0
 13 14  2  0
 15 24  1  0
 16  8  2  0
 17 10  1  0
 21 20  1  0
 21 16  1  0
  5  6  1  0
  7  8  1  0
  9 20  2  0
 10 23  2  0
 11 12  1  0
 13 18  1  0
 14 19  1  0
 15 25  2  0
 16 22  1  0
M  END
>  <rmsd>  (134) 
0.249180272

$$$$
MolPort-029-901-363 CSSS00160095993 MCULE-4458820928 PubChem-72911839
     RDKit          3D

 25 27  0  0  0  0  0  0  0  0999 V2000
   10.5102   43.9537   -0.5600 C   0  0  0  0  0  0  0  0  0  0  0  0
   10.6194   45.3980   -1.0098 C   0  0  0  0  0  0  0  0  0  0  0  0
   12.0472   45.8957   -0.8477 C   0  0  0  0  0  0  0  0  0  0  0  0
   13.4126   45.3202    1.2422 C   0  0  0  0  0  0  0  0  0  0  0  0
   13.4444   45.8631    2.6798 C   0  0  1  0  0  0  0  0  0  0  0  0
   12.4388   47.0176    2.7673 C   0  0  0  0  0  0  0  0  0  0  0  0
   11.8419   47.0486    1.4199 C   0  0  0  0  0  0  0  0  0  0  0  0
   13.9177   44.3644    4.6504 C   0  0  0  0  0  0  0  0  0  0  0  0
   14.1901   42.7483    6.6225 C   0  0  0  0  0  0  0  0  0  0  0  0
   13.5844   41.7312    7.3684 C   0  0  0  0  0  0  0  0  0  0  0  0
   14.2500   41.1429    8.4489 C   0  0  0  0  0  0  0  0  0  0  0  0
   14.1823   39.4976   10.3076 C   0  0  0  0  0  0  0  0  0  0  0  0
   13.4320   38.2120   10.6090 C   0  0  0  0  0  0  0  0  0  0  0  0
   12.7144   38.4266   11.9244 C   0  0  0  0  0  0  0  0  0  0  0  0
   13.4900   39.5115   12.6311 C   0  0  0  0  0  0  0  0  0  0  0  0
   14.0295   40.3921   11.5275 C   0  0  0  0  0  0  0  0  0  0  0  0
   15.5416   41.5798    8.7833 C   0  0  0  0  0  0  0  0  0  0  0  0
   16.1540   42.5944    8.0443 C   0  0  0  0  0  0  0  0  0  0  0  0
   15.4806   43.1769    6.9678 C   0  0  0  0  0  0  0  0  0  0  0  0
   12.3770   46.0657    0.5605 N   0  0  0  0  0  0  0  0  0  0  0  0
   13.0556   44.8103    3.6038 N   0  0  0  0  0  0  0  0  0  0  0  0
   13.4676   43.3213    5.5241 N   0  0  0  0  0  0  0  0  0  0  0  0
   10.9551   47.8688    1.0645 O   0  0  0  0  0  0  0  0  0  0  0  0
   15.0562   44.8864    4.7962 O   0  0  0  0  0  0  0  0  0  0  0  0
   13.6091   40.1273    9.1668 O   0  0  0  0  0  0  0  0  0  0  0  0
  1  2  1  0
  2  3  1  0
  3 20  1  0
  4 20  1  0
  4  5  1  0
  5  6  1  0
  5 21  1  1
  6  7  1  0
  7 20  1  0
  8 22  1  0
 10 11  2  0
 11 25  1  0
 12 25  1  0
 12 13  1  0
 13 14  1  0
 14 15  1  0
 15 16  1  0
 16 12  1  0
 17 18  2  0
 19  9  2  0
 21  8  1  0
 22  9  1  0
  7 23  2  0
  8 24  2  0
  9 10  1  0
 11 17  1  0
 18 19  1  0
M  END
>  <rmsd>  (135) 
0.249158487

$$$$
Molport-046-654-148 MCULE-3101607215 PubChem-165827910
     RDKit          3D

 32 36  0  0  0  0  0  0  0  0999 V2000
   13.4114   39.3996   11.2147 C   0  0  0  0  0  0  0  0  0  0  0  0
   14.3321   39.2893   10.0105 C   0  0  1  0  0  0  0  0  0  0  0  0
   14.5534   41.1205    8.3156 C   0  0  0  0  0  0  0  0  0  0  0  0
   13.7859   41.6731    7.3518 C   0  0  0  0  0  0  0  0  0  0  0  0
   14.2823   42.7137    6.5789 C   0  0  0  0  0  0  0  0  0  0  0  0
   16.3179   42.5609    7.8230 C   0  0  0  0  0  0  0  0  0  0  0  0
   13.8838   44.3842    4.6975 C   0  0  0  0  0  0  0  0  0  0  0  0
   13.2888   45.9559    2.8847 C   0  0  0  0  0  0  0  0  0  0  0  0
   13.2578   47.2746    3.6509 C   0  0  0  0  0  0  0  0  0  0  0  0
   13.6886   48.4024    2.7547 C   0  0  0  0  0  0  0  0  0  0  0  0
   12.6729   49.3225    2.5675 C   0  0  0  0  0  0  0  0  0  0  0  0
   12.8443   50.4629    1.7844 C   0  0  0  0  0  0  0  0  0  0  0  0
   14.0949   50.6622    1.1784 C   0  0  0  0  0  0  0  0  0  0  0  0
   15.1365   49.7332    1.3679 C   0  0  0  0  0  0  0  0  0  0  0  0
   14.9393   48.5926    2.1639 C   0  0  0  0  0  0  0  0  0  0  0  0
   11.5182   48.8785    3.3105 C   0  0  0  0  0  0  0  0  0  0  0  0
   11.8405   47.6915    3.9432 C   0  0  0  0  0  0  0  0  0  0  0  0
   10.9105   47.0460    4.7608 C   0  0  0  0  0  0  0  0  0  0  0  0
    9.6385   47.6228    4.9126 C   0  0  0  0  0  0  0  0  0  0  0  0
    9.3172   48.8280    4.2585 C   0  0  0  0  0  0  0  0  0  0  0  0
   10.2645   49.4722    3.4471 C   0  0  0  0  0  0  0  0  0  0  0  0
   12.6679   40.1292    8.2879 C   0  0  0  0  0  0  0  0  0  0  0  0
   14.4677   37.8698    9.5606 C   0  0  0  0  0  0  0  0  0  0  0  0
   13.8711   40.1450    8.9215 N   0  0  0  0  0  0  0  0  0  0  0  0
   15.5569   43.1391    6.8381 N   0  0  0  0  0  0  0  0  0  0  0  0
   15.8162   41.5363    8.5767 N   0  0  0  0  0  0  0  0  0  0  0  0
   13.4792   43.3103    5.5532 N   0  0  0  0  0  0  0  0  0  0  0  0
   12.5831   41.0703    7.3050 N   0  0  0  0  0  0  0  0  0  0  0  0
   12.9815   44.8663    3.7471 O   0  0  0  0  0  0  0  0  0  0  0  0
   15.0363   44.8879    4.7959 O   0  0  0  0  0  0  0  0  0  0  0  0
   15.7222   37.2766    9.5336 O   0  0  0  0  0  0  0  0  0  0  0  0
   13.4568   37.2103    9.1997 O   0  0  0  0  0  0  0  0  0  0  0  0
  2  1  1  1
  2 24  1  0
  2 23  1  0
  3 26  2  0
  4  5  2  0
  4 28  1  0
  5 27  1  0
  6 25  2  0
  7 29  1  0
  8 29  1  0
  8  9  1  0
  9 10  1  0
  9 17  1  0
 10 11  2  0
 11 16  1  0
 12 13  2  0
 14 15  2  0
 17 18  2  0
 19 20  2  0
 21 16  2  0
 22 24  1  0
 23 31  1  0
 24  3  1  0
 27  7  1  0
  3  4  1  0
  5 25  1  0
  6 26  1  0
  7 30  2  0
 11 12  1  0
 13 14  1  0
 15 10  1  0
 16 17  1  0
 18 19  1  0
 20 21  1  0
 22 28  2  0
 23 32  2  0
M  END
>  <rmsd>  (136) 
0.249151543

$$$$
Molport-053-137-707 MCULE-7939376285
     RDKit          3D

 21 23  0  0  0  0  0  0  0  0999 V2000
   14.2274   42.7408    6.6718 C   0  0  0  0  0  0  0  0  0  0  0  0
   16.2211   42.6845    7.9467 C   0  0  0  0  0  0  0  0  0  0  0  0
   15.6938   41.6730    8.7466 C   0  0  0  0  0  0  0  0  0  0  0  0
   14.4009   41.2138    8.4741 C   0  0  0  0  0  0  0  0  0  0  0  0
   13.7820   40.1219    9.2860 C   0  0  2  0  0  0  0  0  0  0  0  0
   13.6812   40.5052   10.7636 C   0  0  0  0  0  0  0  0  0  0  0  0
   13.0712   39.3648   11.5831 C   0  0  0  0  0  0  0  0  0  0  0  0
   13.4965   37.9825   11.0701 C   0  0  0  0  0  0  0  0  0  0  0  0
   15.1266   36.7105    9.9736 C   0  0  0  0  0  0  0  0  0  0  0  0
   16.5084   36.4010   10.5139 C   0  0  0  0  0  0  0  0  0  0  0  0
   14.5222   38.7873    9.0754 C   0  0  0  0  0  0  0  0  0  0  0  0
   13.8793   44.2981    4.6882 C   0  0  0  0  0  0  0  0  0  0  0  0
   14.1111   45.9787    2.9057 C   0  0  0  0  0  0  0  0  0  0  0  0
   15.2039   45.8556    3.7658 C   0  0  0  0  0  0  0  0  0  0  0  0
   15.4837   43.1980    6.9284 N   0  0  0  0  0  0  0  0  0  0  0  0
   14.7554   38.0672   10.3322 N   0  0  0  0  0  0  0  0  0  0  0  0
   13.6994   41.7540    7.4433 N   0  0  0  0  0  0  0  0  0  0  0  0
   13.4542   43.2709    5.5900 N   0  0  0  0  0  0  0  0  0  0  0  0
   15.0713   44.9253    4.7506 N   0  0  0  0  0  0  0  0  0  0  0  0
   16.8738   35.1086   10.1406 O   0  0  0  0  0  0  0  0  0  0  0  0
   12.9494   44.8713    3.4217 S   0  0  0  0  0  0  0  0  0  0  0  0
  1 18  1  0
  1 17  2  0
  2 15  2  0
  3  4  2  0
  5  4  1  6
  5  6  1  0
  6  7  1  0
  7  8  1  0
  8 16  1  0
  9 16  1  0
  9 10  1  0
 10 20  1  0
 11 16  1  0
 11  5  1  0
 12 21  1  0
 13 21  1  0
 14 19  1  0
 18 12  1  0
  1 15  1  0
  2  3  1  0
  4 17  1  0
 12 19  2  0
 13 14  2  0
M  END
>  <rmsd>  (137) 
0.249145329

$$$$
MolPort-039-120-590 CSSS00160134734 MCULE-9974437556 PubChem-118789298
     RDKit          3D

 23 25  0  0  0  0  0  0  0  0999 V2000
   15.0571   44.8863    4.7973 O   0  0  0  0  0  0  0  0  0  0  0  0
   14.5292   46.3862   -0.8203 O   0  0  0  0  0  0  0  0  0  0  0  0
   13.5190   44.1254   -0.6058 O   0  0  0  0  0  0  0  0  0  0  0  0
   13.6070   40.1301    9.1694 O   0  0  0  0  0  0  0  0  0  0  0  0
   13.9196   44.3627    4.6492 C   0  0  0  0  0  0  0  0  0  0  0  0
   13.4419   45.8419    2.6510 C   0  0  1  0  0  0  0  0  0  0  0  0
   14.4645   45.2830    1.6535 C   0  0  0  0  0  0  0  0  0  0  0  0
   12.2495   46.1711    0.5798 C   0  0  0  0  0  0  0  0  0  0  0  0
   12.2232   46.3105    1.8997 C   0  0  0  0  0  0  0  0  0  0  0  0
   14.1920   42.7455    6.6204 C   0  0  0  0  0  0  0  0  0  0  0  0
   13.5839   41.7323    7.3695 C   0  0  0  0  0  0  0  0  0  0  0  0
   14.2505   41.1415    8.4480 C   0  0  0  0  0  0  0  0  0  0  0  0
   14.1813   39.4985   10.3088 C   0  0  0  0  0  0  0  0  0  0  0  0
   13.4256   38.2172   10.6142 C   0  0  0  0  0  0  0  0  0  0  0  0
   12.7145   38.4367   11.9323 C   0  0  0  0  0  0  0  0  0  0  0  0
   13.4984   39.5182   12.6349 C   0  0  0  0  0  0  0  0  0  0  0  0
   14.0380   40.3949   11.5283 C   0  0  0  0  0  0  0  0  0  0  0  0
   15.5456   41.5720    8.7770 C   0  0  0  0  0  0  0  0  0  0  0  0
   16.1606   42.5826    8.0346 C   0  0  0  0  0  0  0  0  0  0  0  0
   15.4861   43.1674    6.9601 C   0  0  0  0  0  0  0  0  0  0  0  0
   13.0571   44.8086    3.6012 N   0  0  0  0  0  0  0  0  0  0  0  0
   13.4684   43.3208    5.5238 N   0  0  0  0  0  0  0  0  0  0  0  0
   13.7342   45.4580    0.0533 S   0  0  0  0  0  0  0  0  0  0  0  0
  5 21  1  0
  5 22  1  0
  6 21  1  1
  6  7  1  0
  6  9  1  0
  7 23  1  0
 11 12  2  0
 12  4  1  0
 13  4  1  0
 13 14  1  0
 14 15  1  0
 15 16  1  0
 16 17  1  0
 17 13  1  0
 18 19  2  0
 20 10  2  0
 22 10  1  0
 23  8  1  0
  5  1  2  0
  8  9  2  0
 10 11  1  0
 12 18  1  0
 19 20  1  0
 23  2  2  0
 23  3  2  0
M  END
>  <rmsd>  (138) 
0.249132335

$$$$
MolPort-020-292-547 MCULE-4697441922 PubChem-110265015
     RDKit          3D

 32 35  0  0  0  0  0  0  0  0999 V2000
   11.6454   44.1036    3.4492 C   0  0  0  0  0  0  0  0  0  0  0  0
   12.9897   44.7234    3.6217 C   0  0  0  0  0  0  0  0  0  0  0  0
   13.8563   44.3201    4.6514 C   0  0  0  0  0  0  0  0  0  0  0  0
   15.4845   45.8966    3.9201 C   0  0  0  0  0  0  0  0  0  0  0  0
   14.6472   46.3227    2.8891 C   0  0  0  0  0  0  0  0  0  0  0  0
   13.3935   45.7300    2.7428 C   0  0  0  0  0  0  0  0  0  0  0  0
   14.1993   42.7393    6.6549 C   0  0  0  0  0  0  0  0  0  0  0  0
   13.6194   41.7286    7.4267 C   0  0  0  0  0  0  0  0  0  0  0  0
   14.3312   41.1790    8.4963 C   0  0  0  0  0  0  0  0  0  0  0  0
   16.1764   42.6076    8.0414 C   0  0  0  0  0  0  0  0  0  0  0  0
   15.4922   43.1817    6.9686 C   0  0  0  0  0  0  0  0  0  0  0  0
   17.5484   43.0688    8.3785 C   0  0  0  0  0  0  0  0  0  0  0  0
   13.7111   40.0896    9.3068 C   0  0  2  0  0  0  0  0  0  0  0  0
   13.6665   40.4671   10.7812 C   0  0  0  0  0  0  0  0  0  0  0  0
   13.0465   39.3283   11.5753 C   0  0  0  0  0  0  0  0  0  0  0  0
   13.8371   38.0363   11.3378 C   0  0  0  0  0  0  0  0  0  0  0  0
   14.4838   38.7781    9.1219 C   0  0  0  0  0  0  0  0  0  0  0  0
   12.5871   37.3209    9.4185 C   0  0  0  0  0  0  0  0  0  0  0  0
   12.6890   36.3861    8.2601 C   0  0  0  0  0  0  0  0  0  0  0  0
   12.2353   36.7728    7.0009 C   0  0  0  0  0  0  0  0  0  0  0  0
   12.8565   34.6706    6.1166 C   0  0  0  0  0  0  0  0  0  0  0  0
   13.2205   35.1050    8.4114 C   0  0  0  0  0  0  0  0  0  0  0  0
   12.9262   33.7333    4.9604 C   0  0  0  0  0  0  0  0  0  0  0  0
   11.6075   32.9985    4.7856 C   0  0  0  0  0  0  0  0  0  0  0  0
   10.2268   31.4412    5.5177 C   0  0  0  0  0  0  0  0  0  0  0  0
   15.0763   44.9162    4.7689 N   0  0  0  0  0  0  0  0  0  0  0  0
   13.4489   43.2854    5.5609 N   0  0  0  0  0  0  0  0  0  0  0  0
   15.5887   41.6253    8.7762 N   0  0  0  0  0  0  0  0  0  0  0  0
   13.9166   37.6754    9.9148 N   0  0  0  0  0  0  0  0  0  0  0  0
   12.3259   35.9117    5.9546 N   0  0  0  0  0  0  0  0  0  0  0  0
   13.2935   34.2722    7.3408 N   0  0  0  0  0  0  0  0  0  0  0  0
   11.4265   32.0846    5.8235 O   0  0  0  0  0  0  0  0  0  0  0  0
  1  2  1  0
  3 26  2  0
  3 27  1  0
  4  5  2  0
  6  2  2  0
  8  9  2  0
 10 28  2  0
 11  7  2  0
 12 10  1  0
 13  9  1  6
 13 14  1  0
 14 15  1  0
 15 16  1  0
 16 29  1  0
 17 29  1  0
 17 13  1  0
 18 29  1  0
 18 19  1  0
 20 30  2  0
 21 31  2  0
 22 19  2  0
 23 21  1  0
 23 24  1  0
 24 32  1  0
 25 32  1  0
 27  7  1  0
  2  3  1  0
  4 26  1  0
  5  6  1  0
  7  8  1  0
  9 28  1  0
 10 11  1  0
 19 20  1  0
 21 30  1  0
 22 31  1  0
M  END
>  <rmsd>  (139) 
0.249122784

$$$$
MolPort-047-073-921 MCULE-9217073820 PubChem-132766369
     RDKit          3D

 29 32  0  0  0  0  0  0  0  0999 V2000
   15.2467   45.8792    3.8224 C   0  0  0  0  0  0  0  0  0  0  0  0
   14.1588   46.0548    2.9616 C   0  0  0  0  0  0  0  0  0  0  0  0
   13.8848   44.3206    4.6880 C   0  0  0  0  0  0  0  0  0  0  0  0
   14.1867   42.7154    6.6374 C   0  0  0  0  0  0  0  0  0  0  0  0
   13.6209   41.6973    7.4043 C   0  0  0  0  0  0  0  0  0  0  0  0
   14.3639   41.1599    8.4551 C   0  0  0  0  0  0  0  0  0  0  0  0
   13.7769   40.0686    9.2877 C   0  0  2  0  0  0  0  0  0  0  0  0
   13.6568   40.5069   10.7408 C   0  0  0  0  0  0  0  0  0  0  0  0
   13.0728   39.3706   11.5634 C   0  0  0  0  0  0  0  0  0  0  0  0
   13.9496   38.1231   11.4188 C   0  0  0  0  0  0  0  0  0  0  0  0
   12.8289   37.2384    9.4805 C   0  0  0  0  0  0  0  0  0  0  0  0
   12.7140   35.7871    9.6487 C   0  0  0  0  0  0  0  0  0  0  0  0
   14.6281   38.7963    9.1875 C   0  0  0  0  0  0  0  0  0  0  0  0
   16.1518   42.6252    7.9547 C   0  0  0  0  0  0  0  0  0  0  0  0
   17.5185   43.1274    8.2507 C   0  0  0  0  0  0  0  0  0  0  0  0
   16.4869   46.6767    3.7440 C   0  0  0  0  0  0  0  0  0  0  0  0
   17.9589   48.3590    2.6053 C   0  0  0  0  0  0  0  0  0  0  0  0
   18.1478   48.5594    1.1315 C   0  0  0  0  0  0  0  0  0  0  0  0
   17.0710   47.6695    0.5349 C   0  0  0  0  0  0  0  0  0  0  0  0
   12.9757   44.9513    3.4340 S   0  0  0  0  0  0  0  0  0  0  0  0
   13.4345   43.2755    5.5559 N   0  0  0  0  0  0  0  0  0  0  0  0
   14.1056   37.7016   10.0175 N   0  0  0  0  0  0  0  0  0  0  0  0
   12.6229   34.6412    9.7816 N   0  0  0  0  0  0  0  0  0  0  0  0
   15.6143   41.6329    8.7108 N   0  0  0  0  0  0  0  0  0  0  0  0
   15.4402   43.1587    6.9279 N   0  0  0  0  0  0  0  0  0  0  0  0
   15.0879   44.9216    4.7781 N   0  0  0  0  0  0  0  0  0  0  0  0
   16.7234   47.6109    2.6771 N   0  0  0  0  0  0  0  0  0  0  0  0
   17.3531   46.5378    4.6504 O   0  0  0  0  0  0  0  0  0  0  0  0
   16.0581   47.5292    1.4972 O   0  0  0  0  0  0  0  0  0  0  0  0
  1 16  1  0
  1 26  1  0
  2 20  1  0
  3 20  1  0
  3 21  1  0
  4 25  2  0
  5  6  2  0
  7  6  1  6
  7  8  1  0
  8  9  1  0
  9 10  1  0
 10 22  1  0
 11 22  1  0
 11 12  1  0
 13 22  1  0
 13  7  1  0
 14 24  2  0
 15 14  1  0
 16 27  1  0
 17 27  1  0
 17 18  1  0
 18 19  1  0
 19 29  1  0
 21  4  1  0
 27 29  1  0
  1  2  2  0
  3 26  2  0
  4  5  1  0
  6 24  1  0
 14 25  1  0
 16 28  2  0
 12 23  3  0
M  END
>  <rmsd>  (140) 
0.249114916

$$$$
MolPort-002-775-237 ChemDiv-F018-3391 MCULE-2524880567 PubChem-19591198
     RDKit          3D

 27 29  0  0  0  0  0  0  0  0999 V2000
   13.6205   39.5366   11.0919 C   0  0  0  0  0  0  0  0  0  0  0  0
   14.5573   41.1005    9.8505 C   0  0  0  0  0  0  0  0  0  0  0  0
   15.5704   42.4265    6.7060 C   0  0  0  0  0  0  0  0  0  0  0  0
   16.5950   42.5983    5.6399 C   0  0  0  0  0  0  0  0  0  0  0  0
   14.2200   42.7366    6.6357 C   0  0  0  0  0  0  0  0  0  0  0  0
   13.9829   44.2481    4.5961 C   0  0  0  0  0  0  0  0  0  0  0  0
   13.1932   44.5680    3.3676 C   0  0  1  0  0  0  0  0  0  0  0  0
   12.8425   43.3113    2.5867 C   0  0  0  0  0  0  0  0  0  0  0  0
   10.4993   46.8996    3.5573 C   0  0  0  0  0  0  0  0  0  0  0  0
    9.9814   45.8998    4.3588 C   0  0  0  0  0  0  0  0  0  0  0  0
   10.9340   44.9612    4.4281 C   0  0  0  0  0  0  0  0  0  0  0  0
   10.3950   43.6069    4.6624 C   0  0  0  0  0  0  0  0  0  0  0  0
    8.8873   43.8765    4.8534 C   0  0  0  0  0  0  0  0  0  0  0  0
    8.6192   45.3588    4.5160 C   0  0  0  0  0  0  0  0  0  0  0  0
    9.7337   48.0285    2.9444 C   0  0  0  0  0  0  0  0  0  0  0  0
   13.6811   42.2541    7.8053 C   0  0  0  0  0  0  0  0  0  0  0  0
   12.2461   42.3140    8.2091 C   0  0  0  0  0  0  0  0  0  0  0  0
   13.7715   39.9504    9.7696 O   0  0  0  0  0  0  0  0  0  0  0  0
   15.0503   44.8778    4.8178 O   0  0  0  0  0  0  0  0  0  0  0  0
   14.6763   41.7118    8.5353 N   0  0  0  0  0  0  0  0  0  0  0  0
   15.8222   41.8055    7.8769 N   0  0  0  0  0  0  0  0  0  0  0  0
   13.4801   43.3035    5.5477 N   0  0  0  0  0  0  0  0  0  0  0  0
   11.9989   45.3438    3.6942 N   0  0  0  0  0  0  0  0  0  0  0  0
   11.7422   46.5331    3.1639 N   0  0  0  0  0  0  0  0  0  0  0  0
    9.0550   47.5731    1.8297 F   0  0  0  0  0  0  0  0  0  0  0  0
   10.6032   49.0358    2.5685 F   0  0  0  0  0  0  0  0  0  0  0  0
    8.8264   48.5346    3.8571 F   0  0  0  0  0  0  0  0  0  0  0  0
  1 18  1  0
  2 18  1  0
  2 20  1  0
  3  5  1  0
  4  3  1  0
  5 22  1  0
  7  6  1  0
  7  8  1  1
  7 23  1  0
  9 10  1  0
 11 23  1  0
 12 11  1  0
 12 13  1  0
 13 14  1  0
 14 10  1  0
 15  9  1  0
 15 25  1  0
 15 26  1  0
 15 27  1  0
 16 20  1  0
 17 16  1  0
 20 21  1  0
 22  6  1  0
 23 24  1  0
  3 21  2  0
  5 16  2  0
  6 19  2  0
  9 24  2  0
 10 11  2  0
M  END
>  <rmsd>  (141) 
0.249113917

$$$$
Molport-020-293-022 MCULE-4916102994 PubChem-110265489
     RDKit          3D

 29 32  0  0  0  0  0  0  0  0999 V2000
   20.0570   31.3928   10.7151 C   0  0  0  0  0  0  0  0  0  0  0  0
   19.4140   33.7135   10.1505 C   0  0  0  0  0  0  0  0  0  0  0  0
   19.5639   34.8093    9.2935 C   0  0  0  0  0  0  0  0  0  0  0  0
   18.8434   35.9860    9.5193 C   0  0  0  0  0  0  0  0  0  0  0  0
   17.9700   36.0752   10.6082 C   0  0  0  0  0  0  0  0  0  0  0  0
   17.8110   34.9816   11.4655 C   0  0  0  0  0  0  0  0  0  0  0  0
   18.5313   33.8053   11.2395 C   0  0  0  0  0  0  0  0  0  0  0  0
   17.1891   37.3216   10.8374 C   0  0  0  0  0  0  0  0  0  0  0  0
   15.8627   37.2491   10.1010 C   0  0  0  0  0  0  0  0  0  0  0  0
   14.1412   38.1800   11.3986 C   0  0  0  0  0  0  0  0  0  0  0  0
   13.0809   39.2850   11.5535 C   0  0  0  0  0  0  0  0  0  0  0  0
   13.3753   40.4958   10.6699 C   0  0  0  0  0  0  0  0  0  0  0  0
   13.5999   40.0698    9.2137 C   0  0  2  0  0  0  0  0  0  0  0  0
   14.3698   38.7447    9.1002 C   0  0  0  0  0  0  0  0  0  0  0  0
   14.2809   41.1554    8.4425 C   0  0  0  0  0  0  0  0  0  0  0  0
   14.1968   42.7243    6.6505 C   0  0  0  0  0  0  0  0  0  0  0  0
   15.4867   43.1713    6.9676 C   0  0  0  0  0  0  0  0  0  0  0  0
   16.1728   42.5963    8.0372 C   0  0  0  0  0  0  0  0  0  0  0  0
   15.5717   41.5825    8.7819 C   0  0  0  0  0  0  0  0  0  0  0  0
   13.8556   44.3234    4.6640 C   0  0  0  0  0  0  0  0  0  0  0  0
   12.9757   44.7337    3.6586 C   0  0  0  0  0  0  0  0  0  0  0  0
   13.3615   45.7468    2.7792 C   0  0  0  0  0  0  0  0  0  0  0  0
   14.6179   46.3397    2.9100 C   0  0  0  0  0  0  0  0  0  0  0  0
   15.4724   45.9058    3.9253 C   0  0  0  0  0  0  0  0  0  0  0  0
   20.1487   32.5518    9.8980 O   0  0  0  0  0  0  0  0  0  0  0  0
   15.1063   38.4669   10.3313 N   0  0  0  0  0  0  0  0  0  0  0  0
   13.6335   41.7330    7.3943 N   0  0  0  0  0  0  0  0  0  0  0  0
   13.4477   43.2819    5.5613 N   0  0  0  0  0  0  0  0  0  0  0  0
   15.0775   44.9172    4.7721 N   0  0  0  0  0  0  0  0  0  0  0  0
  1 25  1  0
  2 25  1  0
  3  4  2  0
  5  6  2  0
  7  2  2  0
  8  5  1  0
  8  9  1  0
  9 26  1  0
 10 26  1  0
 10 11  1  0
 11 12  1  0
 12 13  1  0
 13 14  1  0
 13 15  1  6
 14 26  1  0
 16 27  2  0
 16 28  1  0
 17 18  2  0
 19 15  2  0
 20 29  2  0
 21 22  2  0
 23 24  2  0
 28 20  1  0
  2  3  1  0
  4  5  1  0
  6  7  1  0
 15 27  1  0
 16 17  1  0
 18 19  1  0
 20 21  1  0
 22 23  1  0
 24 29  1  0
M  END
>  <rmsd>  (142) 
0.249042645

$$$$
MolPort-016-720-375 MCULE-9130697247 PubChem-46977361
     RDKit          3D

 25 27  0  0  0  0  0  0  0  0999 V2000
   13.0232   39.4830   11.8224 C   0  0  0  0  0  0  0  0  0  0  0  0
   13.2932   38.7989   10.4948 C   0  0  0  0  0  0  0  0  0  0  0  0
   14.7406   40.4881    9.3852 C   0  0  0  0  0  0  0  0  0  0  0  0
   14.8865   41.4678    8.3981 C   0  0  0  0  0  0  0  0  0  0  0  0
   16.0684   42.1859    8.2902 C   0  0  0  0  0  0  0  0  0  0  0  0
   17.1490   41.9723    9.1406 C   0  0  0  0  0  0  0  0  0  0  0  0
   17.0179   40.9913   10.1346 C   0  0  0  0  0  0  0  0  0  0  0  0
   15.8250   40.2541   10.2570 C   0  0  0  0  0  0  0  0  0  0  0  0
   14.3570   42.7784    6.6654 C   0  0  0  0  0  0  0  0  0  0  0  0
   13.8792   44.3375    4.6918 C   0  0  0  0  0  0  0  0  0  0  0  0
   12.8977   44.7707    3.6555 C   0  0  2  0  0  0  0  0  0  0  0  0
   11.6427   45.3299    4.3105 C   0  0  0  0  0  0  0  0  0  0  0  0
   10.6521   45.7411    3.2339 C   0  0  0  0  0  0  0  0  0  0  0  0
   10.3354   44.5409    2.3367 C   0  0  0  0  0  0  0  0  0  0  0  0
   12.5359   43.5974    2.7363 C   0  0  0  0  0  0  0  0  0  0  0  0
   12.1256   44.9089    0.7689 C   0  0  0  0  0  0  0  0  0  0  0  0
   11.6369   44.6606   -0.6244 C   0  0  0  0  0  0  0  0  0  0  0  0
   13.5437   39.7671    9.4816 O   0  0  0  0  0  0  0  0  0  0  0  0
   15.0078   44.8938    4.7330 O   0  0  0  0  0  0  0  0  0  0  0  0
   10.8328   43.7234   -0.8748 O   0  0  0  0  0  0  0  0  0  0  0  0
   15.9396   43.2785    7.0246 S   0  0  0  0  0  0  0  0  0  0  0  0
   13.9283   41.7953    7.4929 N   0  0  0  0  0  0  0  0  0  0  0  0
   13.5287   43.3020    5.6204 N   0  0  0  0  0  0  0  0  0  0  0  0
   11.5399   43.9638    1.7195 N   0  0  0  0  0  0  0  0  0  0  0  0
   12.0917   45.4965   -1.6812 N   0  0  0  0  0  0  0  0  0  0  0  0
  1  2  1  0
  2 18  1  0
  3 18  1  0
  4  5  2  0
  4 22  1  0
  5 21  1  0
  6  7  2  0
  8  3  2  0
  9 21  1  0
  9 23  1  0
 11 10  1  1
 11 12  1  0
 12 13  1  0
 13 14  1  0
 14 24  1  0
 15 24  1  0
 15 11  1  0
 16 24  1  0
 16 17  1  0
 17 25  1  0
 23 10  1  0
  3  4  1  0
  5  6  1  0
  7  8  1  0
  9 22  2  0
 10 19  2  0
 17 20  2  0
M  END
>  <rmsd>  (143) 
0.249036819

$$$$
MolPort-047-073-940 MCULE-3027997471 PubChem-132766335
     RDKit          3D

 29 32  0  0  0  0  0  0  0  0999 V2000
   15.2491   45.8794    3.8233 C   0  0  0  0  0  0  0  0  0  0  0  0
   14.1589   46.0563    2.9652 C   0  0  0  0  0  0  0  0  0  0  0  0
   13.8849   44.3209    4.6886 C   0  0  0  0  0  0  0  0  0  0  0  0
   14.1865   42.7156    6.6380 C   0  0  0  0  0  0  0  0  0  0  0  0
   13.6205   41.6978    7.4050 C   0  0  0  0  0  0  0  0  0  0  0  0
   14.3634   41.1602    8.4558 C   0  0  0  0  0  0  0  0  0  0  0  0
   13.7762   40.0691    9.2885 C   0  0  2  0  0  0  0  0  0  0  0  0
   13.6566   40.5075   10.7416 C   0  0  0  0  0  0  0  0  0  0  0  0
   13.0722   39.3714   11.5644 C   0  0  0  0  0  0  0  0  0  0  0  0
   13.9485   38.1236   11.4196 C   0  0  0  0  0  0  0  0  0  0  0  0
   12.8272   37.2392    9.4817 C   0  0  0  0  0  0  0  0  0  0  0  0
   12.7118   35.7880    9.6500 C   0  0  0  0  0  0  0  0  0  0  0  0
   14.6269   38.7964    9.1882 C   0  0  0  0  0  0  0  0  0  0  0  0
   16.1517   42.6247    7.9550 C   0  0  0  0  0  0  0  0  0  0  0  0
   17.5188   43.1265    8.2507 C   0  0  0  0  0  0  0  0  0  0  0  0
   16.4911   46.6805    3.7565 C   0  0  0  0  0  0  0  0  0  0  0  0
   17.8983   48.4976    2.7056 C   0  0  0  0  0  0  0  0  0  0  0  0
   17.8584   49.2500    1.3903 C   0  0  0  0  0  0  0  0  0  0  0  0
   16.9323   48.4629    0.4761 C   0  0  0  0  0  0  0  0  0  0  0  0
   16.1254   47.5451    1.3736 C   0  0  0  0  0  0  0  0  0  0  0  0
   12.9754   44.9527    3.4359 S   0  0  0  0  0  0  0  0  0  0  0  0
   13.4344   43.2761    5.5567 N   0  0  0  0  0  0  0  0  0  0  0  0
   14.1041   37.7020   10.0183 N   0  0  0  0  0  0  0  0  0  0  0  0
   12.6203   34.6422    9.7829 N   0  0  0  0  0  0  0  0  0  0  0  0
   15.6141   41.6327    8.7112 N   0  0  0  0  0  0  0  0  0  0  0  0
   15.4402   43.1585    6.9283 N   0  0  0  0  0  0  0  0  0  0  0  0
   15.0879   44.9219    4.7789 N   0  0  0  0  0  0  0  0  0  0  0  0
   16.7870   47.5684    2.6635 N   0  0  0  0  0  0  0  0  0  0  0  0
   17.3172   46.5801    4.7040 O   0  0  0  0  0  0  0  0  0  0  0  0
  1 16  1  0
  1 27  1  0
  2 21  1  0
  3 21  1  0
  3 22  1  0
  4 26  2  0
  5  6  2  0
  7  6  1  6
  7  8  1  0
  8  9  1  0
  9 10  1  0
 10 23  1  0
 11 23  1  0
 11 12  1  0
 13 23  1  0
 13  7  1  0
 14 25  2  0
 15 14  1  0
 16 28  1  0
 17 28  1  0
 17 18  1  0
 18 19  1  0
 19 20  1  0
 20 28  1  0
 22  4  1  0
  1  2  2  0
  3 27  2  0
  4  5  1  0
  6 25  1  0
 14 26  1  0
 16 29  2  0
 12 24  3  0
M  END
>  <rmsd>  (144) 
0.249018833

$$$$
Molport-047-072-014 PubChem-132767563
     RDKit          3D

 34 37  0  0  0  0  0  0  0  0999 V2000
   13.7078   36.5812   15.4170 C   0  0  0  0  0  0  0  0  0  0  0  0
   14.2385   35.2806   14.9229 C   0  0  0  0  0  0  0  0  0  0  0  0
   15.1789   31.8918   15.4251 C   0  0  0  0  0  0  0  0  0  0  0  0
   15.0485   33.6756   13.6784 C   0  0  0  0  0  0  0  0  0  0  0  0
   15.5833   32.8540   12.5519 C   0  0  0  0  0  0  0  0  0  0  0  0
   14.6445   35.0007   13.6300 C   0  0  0  0  0  0  0  0  0  0  0  0
   14.6284   35.9381   12.4954 C   0  0  0  0  0  0  0  0  0  0  0  0
   15.0304   35.6003   11.2749 C   0  0  0  0  0  0  0  0  0  0  0  0
   15.0201   36.5255   10.1273 C   0  0  0  0  0  0  0  0  0  0  0  0
   13.2204   38.0598   11.0233 C   0  0  0  0  0  0  0  0  0  0  0  0
   13.3280   39.4286   11.6998 C   0  0  0  0  0  0  0  0  0  0  0  0
   13.8332   40.5386   10.7658 C   0  0  0  0  0  0  0  0  0  0  0  0
   13.9260   40.0946    9.3054 C   0  0  2  0  0  0  0  0  0  0  0  0
   14.7811   38.8318    9.1857 C   0  0  0  0  0  0  0  0  0  0  0  0
   14.4794   41.1883    8.4535 C   0  0  0  0  0  0  0  0  0  0  0  0
   13.7043   41.7134    7.4197 C   0  0  0  0  0  0  0  0  0  0  0  0
   14.2388   42.7343    6.6345 C   0  0  0  0  0  0  0  0  0  0  0  0
   13.8456   44.3261    4.6738 C   0  0  0  0  0  0  0  0  0  0  0  0
   13.3149   45.7248    2.8402 C   0  0  0  0  0  0  0  0  0  0  0  0
   12.3495   46.1547    1.7955 C   0  0  0  0  0  0  0  0  0  0  0  0
   14.5646   46.3354    2.9278 C   0  0  0  0  0  0  0  0  0  0  0  0
   15.4421   45.9045    3.9209 C   0  0  0  0  0  0  0  0  0  0  0  0
   16.7844   46.5287    4.0494 C   0  0  0  0  0  0  0  0  0  0  0  0
   16.2376   42.6707    7.9023 C   0  0  0  0  0  0  0  0  0  0  0  0
   17.6059   43.1889    8.1614 C   0  0  0  0  0  0  0  0  0  0  0  0
   14.3892   34.1908   15.7013 N   0  0  0  0  0  0  0  0  0  0  0  0
   14.8795   33.2276   14.9376 N   0  0  0  0  0  0  0  0  0  0  0  0
   14.3829   37.8165   10.1669 N   0  0  0  0  0  0  0  0  0  0  0  0
   13.4509   43.2805    5.5701 N   0  0  0  0  0  0  0  0  0  0  0  0
   12.9792   44.7363    3.7099 N   0  0  0  0  0  0  0  0  0  0  0  0
   15.0700   44.9133    4.7718 N   0  0  0  0  0  0  0  0  0  0  0  0
   15.4945   43.1921    6.8917 N   0  0  0  0  0  0  0  0  0  0  0  0
   15.7306   41.6760    8.6756 N   0  0  0  0  0  0  0  0  0  0  0  0
   15.6142   36.1603    9.0778 O   0  0  0  0  0  0  0  0  0  0  0  0
  1  2  1  0
  3 27  1  0
  5  4  1  0
  6  7  1  0
  6  2  1  0
  8  9  1  0
  9 28  1  0
 10 28  1  0
 10 11  1  0
 11 12  1  0
 12 13  1  0
 13 14  1  0
 13 15  1  6
 14 28  1  0
 15 33  2  0
 16 17  2  0
 17 29  1  0
 18 31  2  0
 19 30  2  0
 20 19  1  0
 21 22  2  0
 23 22  1  0
 24 32  2  0
 25 24  1  0
 27 26  1  0
 27  4  1  0
 29 18  1  0
  2 26  2  0
  4  6  2  0
  7  8  2  0
  9 34  2  0
 15 16  1  0
 17 32  1  0
 18 30  1  0
 19 21  1  0
 22 31  1  0
 24 33  1  0
M  END
>  <rmsd>  (145) 
0.249007717

$$$$
MolPort-016-723-708 19658201 MCULE-8374060511 PubChem-46980742 ZINC000019658201 ZINC19658201
     RDKit          3D

 26 28  0  0  0  0  0  0  0  0999 V2000
   10.1670   44.5564    5.2391 C   0  0  0  0  0  0  0  0  0  0  0  0
   10.8967   45.8373    5.0303 C   0  0  0  0  0  0  0  0  0  0  0  0
   12.0823   46.0046    4.3478 C   0  0  0  0  0  0  0  0  0  0  0  0
   12.3432   47.3519    4.4645 C   0  0  0  0  0  0  0  0  0  0  0  0
   13.5210   48.0828    3.9220 C   0  0  0  0  0  0  0  0  0  0  0  0
   12.9320   44.9558    3.7067 C   0  0  0  0  0  0  0  0  0  0  0  0
   13.8961   44.3968    4.6949 C   0  0  0  0  0  0  0  0  0  0  0  0
   14.2699   42.6958    6.5660 C   0  0  0  0  0  0  0  0  0  0  0  0
   15.8446   41.9187    8.1988 C   0  0  0  0  0  0  0  0  0  0  0  0
   16.9709   41.6469    9.1375 C   0  0  0  0  0  0  0  0  0  0  0  0
   17.0396   42.7165   10.2251 C   0  0  0  0  0  0  0  0  0  0  0  0
   16.0335   42.5507   11.3295 C   0  0  0  0  0  0  0  0  0  0  0  0
   15.9453   43.5508   12.3029 C   0  0  0  0  0  0  0  0  0  0  0  0
   15.0297   43.4370   13.3529 C   0  0  0  0  0  0  0  0  0  0  0  0
   14.1963   42.3181   13.4369 C   0  0  0  0  0  0  0  0  0  0  0  0
   14.2737   41.3070   12.4744 C   0  0  0  0  0  0  0  0  0  0  0  0
   15.1967   41.4271   11.4232 C   0  0  0  0  0  0  0  0  0  0  0  0
   13.4390   39.1314   11.6461 C   0  0  0  0  0  0  0  0  0  0  0  0
   11.3715   47.9097    5.1498 O   0  0  0  0  0  0  0  0  0  0  0  0
   15.0451   44.9030    4.7911 O   0  0  0  0  0  0  0  0  0  0  0  0
   13.4278   40.1999   12.5834 O   0  0  0  0  0  0  0  0  0  0  0  0
   10.4816   47.0267    5.5076 N   0  0  0  0  0  0  0  0  0  0  0  0
   13.4866   43.3144    5.5386 N   0  0  0  0  0  0  0  0  0  0  0  0
   13.8021   41.6717    7.3113 N   0  0  0  0  0  0  0  0  0  0  0  0
   14.6762   41.2411    8.2193 N   0  0  0  0  0  0  0  0  0  0  0  0
   15.8385   43.1240    7.0224 S   0  0  0  0  0  0  0  0  0  0  0  0
  1  2  1  0
  2  3  1  0
  4 19  1  0
  5  4  1  0
  6  3  1  0
  6  7  1  0
  7 23  1  0
  8 26  1  0
  9 26  1  0
 10  9  1  0
 10 11  1  0
 11 12  1  0
 13 14  2  0
 15 16  2  0
 16 21  1  0
 17 12  2  0
 18 21  1  0
 19 22  1  0
 23  8  1  0
 24 25  1  0
  2 22  2  0
  3  4  2  0
  7 20  2  0
  8 24  2  0
  9 25  2  0
 12 13  1  0
 14 15  1  0
 16 17  1  0
M  END
>  <rmsd>  (146) 
0.248993486

$$$$
MolPort-046-958-460 MCULE-2708163713 PubChem-110093732
     RDKit          3D

 30 33  0  0  0  0  0  0  0  0999 V2000
   10.3321   32.4389   12.4147 C   0  0  0  0  0  0  0  0  0  0  0  0
   10.8756   33.5644   11.6009 C   0  0  0  0  0  0  0  0  0  0  0  0
   11.9764   33.3873   10.7417 C   0  0  0  0  0  0  0  0  0  0  0  0
   12.4550   34.4694    9.9964 C   0  0  0  0  0  0  0  0  0  0  0  0
   11.8447   35.7234   10.0980 C   0  0  0  0  0  0  0  0  0  0  0  0
   10.7537   35.8981   10.9551 C   0  0  0  0  0  0  0  0  0  0  0  0
   10.2708   34.8213   11.7028 C   0  0  0  0  0  0  0  0  0  0  0  0
   13.6970   38.0581   11.3159 C   0  0  0  0  0  0  0  0  0  0  0  0
   12.8876   39.3489   11.4512 C   0  0  0  0  0  0  0  0  0  0  0  0
   13.5781   40.4718   10.6973 C   0  0  0  0  0  0  0  0  0  0  0  0
   13.7351   40.0718    9.2369 C   0  0  2  0  0  0  0  0  0  0  0  0
   14.5207   38.7606    9.1241 C   0  0  0  0  0  0  0  0  0  0  0  0
   14.3901   41.1592    8.4470 C   0  0  0  0  0  0  0  0  0  0  0  0
   14.2466   42.7260    6.6568 C   0  0  0  0  0  0  0  0  0  0  0  0
   15.5428   43.1798    6.9360 C   0  0  0  0  0  0  0  0  0  0  0  0
   16.2625   42.6090    7.9858 C   0  0  0  0  0  0  0  0  0  0  0  0
   15.6881   41.5930    8.7485 C   0  0  0  0  0  0  0  0  0  0  0  0
   13.8420   44.3208    4.6796 C   0  0  0  0  0  0  0  0  0  0  0  0
   15.4137   45.9105    3.8854 C   0  0  0  0  0  0  0  0  0  0  0  0
   14.5085   46.3167    2.9040 C   0  0  0  0  0  0  0  0  0  0  0  0
   12.9389   44.7301    3.6960 C   0  0  0  0  0  0  0  0  0  0  0  0
   12.6540   32.0661   10.6035 C   0  0  0  0  0  0  0  0  0  0  0  0
   12.4666   37.0772    9.1700 S   0  0  0  0  0  0  0  0  0  0  0  0
   11.4225   38.1579    9.1011 O   0  0  0  0  0  0  0  0  0  0  0  0
   12.7687   36.6124    7.7727 O   0  0  0  0  0  0  0  0  0  0  0  0
   13.9262   37.6727    9.9146 N   0  0  0  0  0  0  0  0  0  0  0  0
   13.7099   41.7328    7.4172 N   0  0  0  0  0  0  0  0  0  0  0  0
   13.4640   43.2785    5.5888 N   0  0  0  0  0  0  0  0  0  0  0  0
   15.0612   44.9232    4.7502 N   0  0  0  0  0  0  0  0  0  0  0  0
   13.2909   45.7176    2.8308 N   0  0  0  0  0  0  0  0  0  0  0  0
  1  2  1  0
  3  4  2  0
  5  6  2  0
  7  2  2  0
  8 26  1  0
  8  9  1  0
  9 10  1  0
 10 11  1  0
 11 12  1  0
 11 13  1  6
 12 26  1  0
 14 27  2  0
 14 28  1  0
 15 16  2  0
 17 13  2  0
 19 29  2  0
 20 30  2  0
 21 18  2  0
 22  3  1  0
 23  5  1  0
 23 26  1  0
 28 18  1  0
  2  3  1  0
  4  5  1  0
  6  7  1  0
 13 27  1  0
 14 15  1  0
 16 17  1  0
 18 29  1  0
 19 20  1  0
 21 30  1  0
 23 24  2  0
 23 25  2  0
M  END
>  <rmsd>  (147) 
0.248986751

$$$$
MolPort-020-292-989 MCULE-3525130051 PubChem-110265456
     RDKit          3D

 27 30  0  0  0  0  0  0  0  0999 V2000
   12.9019   39.3417   11.4610 C   0  0  0  0  0  0  0  0  0  0  0  0
   13.5716   40.4741   10.6996 C   0  0  0  0  0  0  0  0  0  0  0  0
   13.7298   40.0763    9.2378 C   0  0  2  0  0  0  0  0  0  0  0  0
   14.5201   38.7662    9.1279 C   0  0  0  0  0  0  0  0  0  0  0  0
   13.7178   38.0543   11.3031 C   0  0  0  0  0  0  0  0  0  0  0  0
   12.6181   37.2984    9.3083 C   0  0  0  0  0  0  0  0  0  0  0  0
   12.8132   36.3232    8.1907 C   0  0  0  0  0  0  0  0  0  0  0  0
   12.5293   36.7395    6.8854 C   0  0  0  0  0  0  0  0  0  0  0  0
   12.6944   35.8601    5.8123 C   0  0  0  0  0  0  0  0  0  0  0  0
   13.1407   34.5564    6.0402 C   0  0  0  0  0  0  0  0  0  0  0  0
   13.4190   34.1307    7.3416 C   0  0  0  0  0  0  0  0  0  0  0  0
   13.2562   35.0056    8.4207 C   0  0  0  0  0  0  0  0  0  0  0  0
   14.3852   41.1652    8.4499 C   0  0  0  0  0  0  0  0  0  0  0  0
   14.2451   42.7298    6.6575 C   0  0  0  0  0  0  0  0  0  0  0  0
   15.5395   43.1861    6.9408 C   0  0  0  0  0  0  0  0  0  0  0  0
   16.2566   42.6177    7.9936 C   0  0  0  0  0  0  0  0  0  0  0  0
   15.6814   41.6015    8.7553 C   0  0  0  0  0  0  0  0  0  0  0  0
   13.8424   44.3207    4.6750 C   0  0  0  0  0  0  0  0  0  0  0  0
   13.2771   45.6947    2.8326 C   0  0  0  0  0  0  0  0  0  0  0  0
   14.5214   46.3184    2.8991 C   0  0  0  0  0  0  0  0  0  0  0  0
   15.4143   45.9067    3.8864 C   0  0  0  0  0  0  0  0  0  0  0  0
   13.9041   37.6730    9.8957 N   0  0  0  0  0  0  0  0  0  0  0  0
   13.7076   41.7365    7.4171 N   0  0  0  0  0  0  0  0  0  0  0  0
   13.4648   43.2795    5.5861 N   0  0  0  0  0  0  0  0  0  0  0  0
   12.9613   44.7125    3.7166 N   0  0  0  0  0  0  0  0  0  0  0  0
   15.0619   44.9211    4.7521 N   0  0  0  0  0  0  0  0  0  0  0  0
   13.5989   34.4132   10.0392 Cl  0  0  0  0  0  0  0  0  0  0  0  0
  1  2  1  0
  2  3  1  0
  3  4  1  0
  3 13  1  6
  4 22  1  0
  5 22  1  0
  5  1  1  0
  6 22  1  0
  6  7  1  0
  8  9  2  0
 10 11  2  0
 12 27  1  0
 12  7  2  0
 14 23  2  0
 14 24  1  0
 15 16  2  0
 17 13  2  0
 18 26  2  0
 19 25  2  0
 20 21  2  0
 24 18  1  0
  7  8  1  0
  9 10  1  0
 11 12  1  0
 13 23  1  0
 14 15  1  0
 16 17  1  0
 18 25  1  0
 19 20  1  0
 21 26  1  0
M  END
>  <rmsd>  (148) 
0.248967841

$$$$
MolPort-002-790-894 CSC047813045 CSSS00047813045 LN01163820 MCULE-2071410921 PubChem-17161563
     RDKit          3D

 21 22  0  0  0  0  0  0  0  0999 V2000
   15.4393   37.5545    8.5980 C   0  0  0  0  0  0  0  0  0  0  0  0
   14.4344   37.7665    9.7137 C   0  0  0  0  0  0  0  0  0  0  0  0
   14.3445   39.2400   10.0664 C   0  0  2  0  0  0  0  0  0  0  0  0
   13.5394   39.4019   11.3388 C   0  0  0  0  0  0  0  0  0  0  0  0
   14.3328   40.9930    8.3180 C   0  0  0  0  0  0  0  0  0  0  0  0
   15.6407   41.4009    8.6241 C   0  0  0  0  0  0  0  0  0  0  0  0
   16.2377   42.4423    7.9100 C   0  0  0  0  0  0  0  0  0  0  0  0
   15.5318   43.0811    6.8876 C   0  0  0  0  0  0  0  0  0  0  0  0
   14.2242   42.6829    6.5723 C   0  0  0  0  0  0  0  0  0  0  0  0
   13.9020   44.3902    4.6875 C   0  0  0  0  0  0  0  0  0  0  0  0
   12.9876   44.9009    3.6272 C   0  0  0  0  0  0  0  0  0  0  0  0
   13.1113   44.0774    2.3906 C   0  0  0  0  0  0  0  0  0  0  0  0
   14.0587   44.4132    1.4164 C   0  0  0  0  0  0  0  0  0  0  0  0
   14.1876   43.6293    0.2656 C   0  0  0  0  0  0  0  0  0  0  0  0
   13.3724   42.5070    0.0891 C   0  0  0  0  0  0  0  0  0  0  0  0
   12.4291   42.1672    1.0638 C   0  0  0  0  0  0  0  0  0  0  0  0
   12.2997   42.9506    2.2147 C   0  0  0  0  0  0  0  0  0  0  0  0
   13.6341   41.6387    7.2926 C   0  0  0  0  0  0  0  0  0  0  0  0
   13.7077   39.9535    9.0128 O   0  0  0  0  0  0  0  0  0  0  0  0
   15.0503   44.8938    4.8079 O   0  0  0  0  0  0  0  0  0  0  0  0
   13.4691   43.3135    5.5290 N   0  0  0  0  0  0  0  0  0  0  0  0
  1  2  1  0
  3  2  1  0
  3  4  1  1
  3 19  1  0
  5 19  1  0
  6  7  2  0
  8  9  2  0
  9 21  1  0
 11 10  1  0
 11 12  1  0
 13 14  2  0
 15 16  2  0
 17 12  2  0
 18  5  2  0
 21 10  1  0
  5  6  1  0
  7  8  1  0
  9 18  1  0
 10 20  2  0
 12 13  1  0
 14 15  1  0
 16 17  1  0
M  END
>  <rmsd>  (149) 
0.248961866

$$$$
MolPort-016-723-833 36752774 MCULE-7202345058 PubChem-93242465 ZINC000036752774 ZINC36752774
     RDKit          3D

 30 33  0  0  0  0  0  0  0  0999 V2000
    9.8806   45.0714    1.9464 C   0  0  0  0  0  0  0  0  0  0  0  0
   11.2525   45.2216    2.5115 C   0  0  0  0  0  0  0  0  0  0  0  0
   12.9610   44.9228    3.6915 C   0  0  0  0  0  0  0  0  0  0  0  0
   12.0934   47.1282    1.0822 C   0  0  0  0  0  0  0  0  0  0  0  0
   10.9302   47.2944    0.3135 C   0  0  0  0  0  0  0  0  0  0  0  0
   10.8668   48.2758   -0.6798 C   0  0  0  0  0  0  0  0  0  0  0  0
   11.9674   49.1027   -0.9155 C   0  0  0  0  0  0  0  0  0  0  0  0
   13.1307   48.9481   -0.1581 C   0  0  0  0  0  0  0  0  0  0  0  0
   13.1926   47.9663    0.8350 C   0  0  0  0  0  0  0  0  0  0  0  0
   13.8949   44.3969    4.6916 C   0  0  0  0  0  0  0  0  0  0  0  0
   14.2726   42.6907    6.5595 C   0  0  0  0  0  0  0  0  0  0  0  0
   15.8584   41.8932    8.1721 C   0  0  0  0  0  0  0  0  0  0  0  0
   16.9943   41.6050    9.0941 C   0  0  0  0  0  0  0  0  0  0  0  0
   17.0954   42.6741   10.1797 C   0  0  0  0  0  0  0  0  0  0  0  0
   16.1080   42.5196   11.3027 C   0  0  0  0  0  0  0  0  0  0  0  0
   16.0597   43.5142   12.2847 C   0  0  0  0  0  0  0  0  0  0  0  0
   15.1625   43.4118   13.3513 C   0  0  0  0  0  0  0  0  0  0  0  0
   14.3075   42.3104   13.4436 C   0  0  0  0  0  0  0  0  0  0  0  0
   14.3450   41.3050   12.4729 C   0  0  0  0  0  0  0  0  0  0  0  0
   15.2499   41.4129   11.4049 C   0  0  0  0  0  0  0  0  0  0  0  0
   13.4449   39.1553   11.6456 C   0  0  0  0  0  0  0  0  0  0  0  0
   11.7115   44.4440    3.5110 N   0  0  0  0  0  0  0  0  0  0  0  0
   13.2572   45.9356    2.8540 N   0  0  0  0  0  0  0  0  0  0  0  0
   12.1794   46.1224    2.1113 N   0  0  0  0  0  0  0  0  0  0  0  0
   13.4863   43.3146    5.5375 N   0  0  0  0  0  0  0  0  0  0  0  0
   13.8015   41.6730    7.3115 N   0  0  0  0  0  0  0  0  0  0  0  0
   14.6814   41.2314    8.2085 N   0  0  0  0  0  0  0  0  0  0  0  0
   15.0443   44.9026    4.7947 O   0  0  0  0  0  0  0  0  0  0  0  0
   13.4775   40.2159   12.5909 O   0  0  0  0  0  0  0  0  0  0  0  0
   15.8532   43.0971    6.9943 S   0  0  0  0  0  0  0  0  0  0  0  0
  1  2  1  0
  3 22  1  0
  3 10  1  0
  5  6  2  0
  7  8  2  0
  9  4  2  0
 10 25  1  0
 11 30  1  0
 12 30  1  0
 13 12  1  0
 13 14  1  0
 14 15  1  0
 16 17  2  0
 18 19  2  0
 19 29  1  0
 20 15  2  0
 21 29  1  0
 24 23  1  0
 24  4  1  0
 24  2  1  0
 25 11  1  0
 26 27  1  0
  2 22  2  0
  3 23  2  0
  4  5  1  0
  6  7  1  0
  8  9  1  0
 10 28  2  0
 11 26  2  0
 12 27  2  0
 15 16  1  0
 17 18  1  0
 19 20  1  0
M  END
>  <rmsd>  (150) 
0.248961434

$$$$
MolPort-038-935-636 MCULE-3364464604 MCULE-5536987923 PubChem-160976054 PubChem-160976055 PubChem-45480521 PubChem-87361682 ZINC000116862995
     RDKit          3D

 34 39  0  0  0  0  0  0  0  0999 V2000
   18.8212   38.7858    9.5658 C   0  0  0  0  0  0  0  0  0  0  0  0
   17.8999   39.9069    9.1436 C   0  0  0  0  0  0  0  0  0  0  0  0
   16.5056   38.1955    9.9087 C   0  0  0  0  0  0  0  0  0  0  0  0
   17.9238   37.7231   10.1530 C   0  0  1  0  0  0  0  0  0  0  0  0
   15.5017   40.2965    9.3699 C   0  0  1  0  0  0  0  0  0  0  0  0
   15.6276   40.9408   10.7376 C   0  0  0  0  0  0  0  0  0  0  0  0
   16.6025   41.9225   10.9807 C   0  0  0  0  0  0  0  0  0  0  0  0
   16.7087   42.5244   12.2370 C   0  0  0  0  0  0  0  0  0  0  0  0
   15.8340   42.1573   13.2618 C   0  0  0  0  0  0  0  0  0  0  0  0
   14.8519   41.1909   13.0289 C   0  0  0  0  0  0  0  0  0  0  0  0
   14.7418   40.5830   11.7735 C   0  0  0  0  0  0  0  0  0  0  0  0
   15.2131   41.2737    8.2712 C   0  0  0  0  0  0  0  0  0  0  0  0
   16.1014   42.2023    7.7362 C   0  0  0  0  0  0  0  0  0  0  0  0
   14.2759   42.6633    6.5108 C   0  0  0  0  0  0  0  0  0  0  0  0
   13.8947   44.4018    4.7026 C   0  0  0  0  0  0  0  0  0  0  0  0
   12.9774   44.9398    3.6550 C   0  0  0  0  0  0  0  0  0  0  0  0
   11.5919   45.3418    4.1208 C   0  0  0  0  0  0  0  0  0  0  0  0
   12.6284   46.4080    3.7974 C   0  0  0  0  0  0  0  0  0  0  0  0
   13.0896   44.4373    2.2488 C   0  0  0  0  0  0  0  0  0  0  0  0
   12.3046   43.3444    1.8246 C   0  0  0  0  0  0  0  0  0  0  0  0
   12.4761   42.8935    0.5174 C   0  0  0  0  0  0  0  0  0  0  0  0
   13.3688   43.4643   -0.3310 C   0  0  0  0  0  0  0  0  0  0  0  0
   14.1714   44.5359    0.0503 C   0  0  0  0  0  0  0  0  0  0  0  0
   14.0266   45.0211    1.3627 C   0  0  0  0  0  0  0  0  0  0  0  0
   12.3381   41.7776   -1.4669 C   0  0  0  0  0  0  0  0  0  0  0  0
   16.5611   39.3383    9.0051 N   0  0  0  0  0  0  0  0  0  0  0  0
   15.5696   42.9732    6.7509 N   0  0  0  0  0  0  0  0  0  0  0  0
   13.4670   43.3090    5.5238 N   0  0  0  0  0  0  0  0  0  0  0  0
   18.1350   36.5198    9.4828 O   0  0  0  0  0  0  0  0  0  0  0  0
   15.0503   44.8919    4.8265 O   0  0  0  0  0  0  0  0  0  0  0  0
   13.3220   42.8193   -1.5513 O   0  0  0  0  0  0  0  0  0  0  0  0
   11.8239   41.8612   -0.1296 O   0  0  0  0  0  0  0  0  0  0  0  0
   13.4992   39.3641   11.5391 Cl  0  0  0  0  0  0  0  0  0  0  0  0
   13.7270   41.4223    7.4986 S   0  0  0  0  0  0  0  0  0  0  0  0
  1  2  1  0
  2 26  1  0
  3 26  1  0
  3  4  1  0
  4 29  1  6
  4  1  1  0
  5 26  1  6
  5  6  1  0
  5 12  1  0
  7  8  2  0
  9 10  2  0
 11 33  1  0
 11  6  2  0
 12 34  1  0
 13 27  1  0
 14 34  1  0
 14 28  1  0
 16 15  1  0
 16 17  1  0
 16 19  1  0
 17 18  1  0
 18 16  1  0
 20 21  2  0
 21 32  1  0
 22 23  2  0
 22 31  1  0
 24 19  2  0
 25 31  1  0
 25 32  1  0
 28 15  1  0
  6  7  1  0
  8  9  1  0
 10 11  1  0
 12 13  2  0
 14 27  2  0
 15 30  2  0
 19 20  1  0
 21 22  1  0
 23 24  1  0
M  END
>  <rmsd>  (151) 
0.248958722

$$$$
Molport-047-071-756 PubChem-132766831
     RDKit          3D

 32 35  0  0  0  0  0  0  0  0999 V2000
   12.3497   46.1562    1.7971 C   0  0  0  0  0  0  0  0  0  0  0  0
   13.3151   45.7260    2.8417 C   0  0  0  0  0  0  0  0  0  0  0  0
   14.5647   46.3366    2.9295 C   0  0  0  0  0  0  0  0  0  0  0  0
   15.4421   45.9054    3.9225 C   0  0  0  0  0  0  0  0  0  0  0  0
   16.7843   46.5296    4.0512 C   0  0  0  0  0  0  0  0  0  0  0  0
   13.8456   44.3269    4.6750 C   0  0  0  0  0  0  0  0  0  0  0  0
   14.2388   42.7345    6.6352 C   0  0  0  0  0  0  0  0  0  0  0  0
   13.7041   41.7133    7.4202 C   0  0  0  0  0  0  0  0  0  0  0  0
   14.4793   41.1881    8.4539 C   0  0  0  0  0  0  0  0  0  0  0  0
   16.2375   42.6705    7.9030 C   0  0  0  0  0  0  0  0  0  0  0  0
   17.6058   43.1887    8.1623 C   0  0  0  0  0  0  0  0  0  0  0  0
   13.9262   40.0941    9.3054 C   0  0  2  0  0  0  0  0  0  0  0  0
   13.8301   40.5380   10.7678 C   0  0  0  0  0  0  0  0  0  0  0  0
   13.3351   39.4248   11.7053 C   0  0  0  0  0  0  0  0  0  0  0  0
   13.2193   38.0634   11.0172 C   0  0  0  0  0  0  0  0  0  0  0  0
   14.7780   38.8281    9.1816 C   0  0  0  0  0  0  0  0  0  0  0  0
   15.1460   36.5962   10.2581 C   0  0  0  0  0  0  0  0  0  0  0  0
   15.1509   35.7253   11.4486 C   0  0  0  0  0  0  0  0  0  0  0  0
   14.6284   36.0678   12.6217 C   0  0  0  0  0  0  0  0  0  0  0  0
   14.6583   35.1646   13.7753 C   0  0  0  0  0  0  0  0  0  0  0  0
   15.1989   33.8904   13.8326 C   0  0  0  0  0  0  0  0  0  0  0  0
   13.9983   34.2106   17.1677 C   0  0  0  0  0  0  0  0  0  0  0  0
   14.1396   35.4441   15.0210 C   0  0  0  0  0  0  0  0  0  0  0  0
   15.0700   44.9140    4.7731 N   0  0  0  0  0  0  0  0  0  0  0  0
   13.4508   43.2810    5.5709 N   0  0  0  0  0  0  0  0  0  0  0  0
   15.7304   41.6755    8.6761 N   0  0  0  0  0  0  0  0  0  0  0  0
   15.4945   43.1922    6.8926 N   0  0  0  0  0  0  0  0  0  0  0  0
   14.3936   37.8226   10.1778 N   0  0  0  0  0  0  0  0  0  0  0  0
   15.0062   33.4245   15.0819 N   0  0  0  0  0  0  0  0  0  0  0  0
   14.3763   34.3581   15.7750 N   0  0  0  0  0  0  0  0  0  0  0  0
   12.9793   44.7372    3.7111 N   0  0  0  0  0  0  0  0  0  0  0  0
   15.8488   36.2393    9.2751 O   0  0  0  0  0  0  0  0  0  0  0  0
  1  2  1  0
  2 31  2  0
  3  4  2  0
  5  4  1  0
  6 24  2  0
  6 25  1  0
  7 27  2  0
  8  9  2  0
 10 26  2  0
 11 10  1  0
 12  9  1  6
 12 13  1  0
 13 14  1  0
 14 15  1  0
 15 28  1  0
 16 28  1  0
 16 12  1  0
 17 18  1  0
 19 20  1  0
 20 21  1  0
 22 30  1  0
 25  7  1  0
 28 17  1  0
 30 29  1  0
 30 23  1  0
  2  3  1  0
  4 24  1  0
  6 31  1  0
  7  8  1  0
  9 26  1  0
 10 27  1  0
 17 32  2  0
 18 19  2  0
 21 29  2  0
 23 20  2  0
M  END
>  <rmsd>  (152) 
0.248925224

$$$$
Molport-047-873-489 PubChem-165921913
     RDKit          3D

 21 22  0  0  0  0  0  0  0  0999 V2000
   12.5571   40.3248    8.8538 C   0  0  0  0  0  0  0  0  0  0  0  0
   12.6482   41.1950    7.7510 C   0  0  0  0  0  0  0  0  0  0  0  0
   13.8197   41.9357    7.6244 C   0  0  0  0  0  0  0  0  0  0  0  0
   14.8482   41.8395    8.5191 C   0  0  0  0  0  0  0  0  0  0  0  0
   14.7883   40.9896    9.6226 C   0  0  0  0  0  0  0  0  0  0  0  0
   13.6185   40.2225    9.7832 C   0  0  0  0  0  0  0  0  0  0  0  0
   14.2400   42.8675    6.7023 C   0  0  0  0  0  0  0  0  0  0  0  0
   13.9349   44.2915    4.6243 C   0  0  0  0  0  0  0  0  0  0  0  0
   13.0435   44.6823    3.4891 C   0  0  0  0  0  0  0  0  0  0  0  0
   17.0913   42.9054    8.8487 C   0  0  0  0  0  0  0  0  0  0  0  0
   16.9361   44.0389    9.8023 C   0  0  0  0  0  0  0  0  0  0  0  0
   13.4640   39.0374   11.2667 Br  0  0  0  0  0  0  0  0  0  0  0  0
   15.8388   42.6707    8.1460 N   0  0  0  0  0  0  0  0  0  0  0  0
   15.4758   43.3110    7.0393 N   0  0  0  0  0  0  0  0  0  0  0  0
   13.4881   43.3113    5.5683 N   0  0  0  0  0  0  0  0  0  0  0  0
   15.0471   44.8667    4.7724 O   0  0  0  0  0  0  0  0  0  0  0  0
   16.6157   43.8156   10.9983 O   0  0  0  0  0  0  0  0  0  0  0  0
   17.1037   45.3447    9.3617 O   0  0  0  0  0  0  0  0  0  0  0  0
   12.3002   43.5919    3.0751 F   0  0  0  0  0  0  0  0  0  0  0  0
   13.7991   45.1401    2.4244 F   0  0  0  0  0  0  0  0  0  0  0  0
   12.1875   45.6849    3.9038 F   0  0  0  0  0  0  0  0  0  0  0  0
  2  3  2  0
  4  5  2  0
  4 13  1  0
  6 12  1  0
  6  1  2  0
  7 15  1  0
  7  3  1  0
  9  8  1  0
  9 19  1  0
  9 20  1  0
  9 21  1  0
 10 13  1  0
 10 11  1  0
 11 18  1  0
 13 14  1  0
 15  8  1  0
  1  2  1  0
  3  4  1  0
  5  6  1  0
  7 14  2  0
  8 16  2  0
 11 17  2  0
M  END
>  <rmsd>  (153) 
0.248921633

$$$$
MolPort-000-016-465 892171 CHEMBL1300667 MCULE-5639757617 PubChem-1147161 ZINC000000892171 ZINC00892171
     RDKit          3D

 29 31  0  0  0  0  0  0  0  0999 V2000
   13.4849   44.6786    2.2748 C   0  0  0  0  0  0  0  0  0  0  0  0
   12.9576   44.9465    3.6721 C   0  0  0  0  0  0  0  0  0  0  0  0
   13.8988   44.3997    4.6900 C   0  0  0  0  0  0  0  0  0  0  0  0
   14.2253   42.6840    6.5683 C   0  0  0  0  0  0  0  0  0  0  0  0
   13.6546   41.6054    7.2554 C   0  0  0  0  0  0  0  0  0  0  0  0
   14.3642   40.9602    8.2709 C   0  0  0  0  0  0  0  0  0  0  0  0
   15.6564   41.3832    8.6150 C   0  0  0  0  0  0  0  0  0  0  0  0
   16.0622   39.6037   10.4446 C   0  0  0  0  0  0  0  0  0  0  0  0
   14.8010   38.8405   10.2178 C   0  0  0  0  0  0  0  0  0  0  0  0
   12.2759   38.3930   10.5627 C   0  0  0  0  0  0  0  0  0  0  0  0
   12.6168   36.1244   11.6408 C   0  0  0  0  0  0  0  0  0  0  0  0
   13.4802   36.5304   12.6690 C   0  0  0  0  0  0  0  0  0  0  0  0
   14.0359   35.5906   13.5430 C   0  0  0  0  0  0  0  0  0  0  0  0
   13.7318   34.2302   13.4072 C   0  0  0  0  0  0  0  0  0  0  0  0
   14.0185   31.9156   14.2507 C   0  0  0  0  0  0  0  0  0  0  0  0
   12.8638   33.8181   12.3843 C   0  0  0  0  0  0  0  0  0  0  0  0
   12.3115   34.7594   11.5108 C   0  0  0  0  0  0  0  0  0  0  0  0
   16.2231   42.4664    7.9326 C   0  0  0  0  0  0  0  0  0  0  0  0
   15.5153   43.1123    6.9149 C   0  0  0  0  0  0  0  0  0  0  0  0
   15.0511   44.8964    4.8074 O   0  0  0  0  0  0  0  0  0  0  0  0
   16.8512   39.2127   11.3449 O   0  0  0  0  0  0  0  0  0  0  0  0
   14.2960   33.3131   14.3005 O   0  0  0  0  0  0  0  0  0  0  0  0
   13.4697   43.3156    5.5252 N   0  0  0  0  0  0  0  0  0  0  0  0
   16.4153   40.7539    9.6592 N   0  0  0  0  0  0  0  0  0  0  0  0
   11.4923   38.8901    9.5885 N   0  0  0  0  0  0  0  0  0  0  0  0
   10.7626   37.8636    9.1750 N   0  0  0  0  0  0  0  0  0  0  0  0
   11.0836   36.7748    9.8586 N   0  0  0  0  0  0  0  0  0  0  0  0
   12.0233   37.0770   10.7381 N   0  0  0  0  0  0  0  0  0  0  0  0
   13.5295   39.3639   11.3988 S   0  0  0  0  0  0  0  0  0  0  0  0
  1  2  1  0
  2  3  1  0
  3 23  1  0
  5  6  2  0
  7 24  1  0
  7 18  2  0
  9  8  1  0
  9 29  1  0
 10 29  1  0
 12 13  2  0
 14 22  1  0
 14 16  2  0
 15 22  1  0
 17 11  2  0
 19  4  2  0
 23  4  1  0
 24  8  1  0
 25 26  1  0
 28 27  1  0
 28 11  1  0
 28 10  1  0
  3 20  2  0
  4  5  1  0
  6  7  1  0
  8 21  2  0
 10 25  2  0
 11 12  1  0
 13 14  1  0
 16 17  1  0
 18 19  1  0
 26 27  2  0
M  END
>  <rmsd>  (154) 
0.248917341

$$$$
MolPort-016-717-567 19716929 MCULE-9371447986 PubChem-46974417 ZINC000019716929
     RDKit          3D

 28 31  0  0  0  0  0  0  0  0999 V2000
   13.0263   39.4862   11.8161 C   0  0  0  0  0  0  0  0  0  0  0  0
   13.3021   38.8030   10.4892 C   0  0  0  0  0  0  0  0  0  0  0  0
   14.7460   40.4972    9.3828 C   0  0  0  0  0  0  0  0  0  0  0  0
   15.8294   40.2671   10.2571 C   0  0  0  0  0  0  0  0  0  0  0  0
   17.0199   41.0086   10.1375 C   0  0  0  0  0  0  0  0  0  0  0  0
   17.1498   41.9900    9.1437 C   0  0  0  0  0  0  0  0  0  0  0  0
   16.0703   42.1999    8.2910 C   0  0  0  0  0  0  0  0  0  0  0  0
   14.3603   42.7863    6.6623 C   0  0  0  0  0  0  0  0  0  0  0  0
   13.8714   44.3417    4.6832 C   0  0  0  0  0  0  0  0  0  0  0  0
   12.9115   44.7909    3.6407 C   0  0  0  0  0  0  0  0  0  0  0  0
   13.0923   47.3299    0.9844 C   0  0  0  0  0  0  0  0  0  0  0  0
   12.8797   48.6742    1.6553 C   0  0  0  0  0  0  0  0  0  0  0  0
   11.2891   45.7936    1.6177 C   0  0  0  0  0  0  0  0  0  0  0  0
   10.7925   44.7788    2.4439 C   0  0  0  0  0  0  0  0  0  0  0  0
    9.4962   44.2727    2.2587 C   0  0  0  0  0  0  0  0  0  0  0  0
    9.0071   43.2610    3.0861 C   0  0  0  0  0  0  0  0  0  0  0  0
    9.8086   42.7469    4.1051 C   0  0  0  0  0  0  0  0  0  0  0  0
   11.0990   43.2442    4.2970 C   0  0  0  0  0  0  0  0  0  0  0  0
   11.6105   44.2622    3.4754 C   0  0  0  0  0  0  0  0  0  0  0  0
   14.8907   41.4775    8.3962 C   0  0  0  0  0  0  0  0  0  0  0  0
   13.5516   39.7721    9.4764 O   0  0  0  0  0  0  0  0  0  0  0  0
   15.0051   44.8903    4.7370 O   0  0  0  0  0  0  0  0  0  0  0  0
   10.5727   46.2688    0.6916 O   0  0  0  0  0  0  0  0  0  0  0  0
   15.9403   43.2920    7.0252 S   0  0  0  0  0  0  0  0  0  0  0  0
   13.5311   43.3065    5.6160 N   0  0  0  0  0  0  0  0  0  0  0  0
   13.3211   45.7770    2.7965 N   0  0  0  0  0  0  0  0  0  0  0  0
   12.5536   46.2645    1.8201 N   0  0  0  0  0  0  0  0  0  0  0  0
   13.9334   41.8017    7.4890 N   0  0  0  0  0  0  0  0  0  0  0  0
  1  2  1  0
  2 21  1  0
  3 21  1  0
  4  5  2  0
  6  7  2  0
  7 24  1  0
  8 24  1  0
  8 25  1  0
  9 10  1  0
 11 27  1  0
 11 12  1  0
 13 14  1  0
 15 16  2  0
 17 18  2  0
 19 10  1  0
 19 14  2  0
 20 28  1  0
 20  3  2  0
 25  9  1  0
 27 26  1  0
 27 13  1  0
  3  4  1  0
  5  6  1  0
  8 28  2  0
  9 22  2  0
 10 26  2  0
 13 23  2  0
 14 15  1  0
 16 17  1  0
 18 19  1  0
 20  7  1  0
M  END
>  <rmsd>  (155) 
0.248865321

$$$$
MolPort-047-015-259 MCULE-1510657617 PubChem-155985150
     RDKit          3D

 21 23  0  0  0  0  0  0  0  0999 V2000
   14.1858   42.7195    6.6460 C   0  0  0  0  0  0  0  0  0  0  0  0
   16.1471   42.6404    7.9693 C   0  0  0  0  0  0  0  0  0  0  0  0
   15.5954   41.6242    8.7459 C   0  0  0  0  0  0  0  0  0  0  0  0
   14.3085   41.1719    8.4351 C   0  0  0  0  0  0  0  0  0  0  0  0
   13.6602   40.0831    9.2293 C   0  0  2  0  0  0  0  0  0  0  0  0
   13.4386   40.5244   10.6807 C   0  0  0  0  0  0  0  0  0  0  0  0
   13.1261   39.3282   11.5800 C   0  0  0  0  0  0  0  0  0  0  0  0
   14.1110   38.1639   11.3741 C   0  0  0  0  0  0  0  0  0  0  0  0
   15.9932   37.2903   10.1896 C   0  0  0  0  0  0  0  0  0  0  0  0
   16.7076   36.9125   11.4807 C   0  0  0  0  0  0  0  0  0  0  0  0
   17.0671   37.5503    9.1410 C   0  0  0  0  0  0  0  0  0  0  0  0
   14.4566   38.7729    9.1253 C   0  0  0  0  0  0  0  0  0  0  0  0
   13.8858   44.3180    4.6883 C   0  0  0  0  0  0  0  0  0  0  0  0
   14.1601   46.0414    2.9540 C   0  0  0  0  0  0  0  0  0  0  0  0
   15.2434   45.8767    3.8184 C   0  0  0  0  0  0  0  0  0  0  0  0
   15.4372   43.1678    6.9386 N   0  0  0  0  0  0  0  0  0  0  0  0
   15.1510   38.4787   10.3836 N   0  0  0  0  0  0  0  0  0  0  0  0
   13.6339   41.7283    7.3948 N   0  0  0  0  0  0  0  0  0  0  0  0
   13.4369   43.2751    5.5597 N   0  0  0  0  0  0  0  0  0  0  0  0
   15.0875   44.9224    4.7761 N   0  0  0  0  0  0  0  0  0  0  0  0
   12.9772   44.9387    3.4292 S   0  0  0  0  0  0  0  0  0  0  0  0
  1 19  1  0
  1 18  2  0
  2 16  2  0
  3  4  2  0
  5  4  1  6
  5  6  1  0
  6  7  1  0
  7  8  1  0
  8 17  1  0
  9 17  1  0
  9 10  1  0
  9 11  1  0
 12 17  1  0
 12  5  1  0
 13 21  1  0
 14 21  1  0
 15 20  1  0
 19 13  1  0
  1 16  1  0
  2  3  1  0
  4 18  1  0
 13 20  2  0
 14 15  2  0
M  END
>  <rmsd>  (156) 
0.248858899

$$$$
MolPort-051-666-335 MCULE-6430684612 MCULE-9826297176
     RDKit          3D

 19 21  0  0  0  0  0  0  0  0999 V2000
   13.8669   44.3127    4.6993 C   0  0  0  0  0  0  0  0  0  0  0  0
   14.0811   46.0090    2.9765 C   0  0  0  0  0  0  0  0  0  0  0  0
   15.1984   45.8784    3.7903 C   0  0  0  0  0  0  0  0  0  0  0  0
   13.9469   46.9678    1.8492 C   0  0  0  0  0  0  0  0  0  0  0  0
   14.2392   42.7258    6.6551 C   0  0  0  0  0  0  0  0  0  0  0  0
   16.2395   42.6683    7.9197 C   0  0  0  0  0  0  0  0  0  0  0  0
   15.7192   41.6515    8.7171 C   0  0  0  0  0  0  0  0  0  0  0  0
   14.4274   41.1879    8.4468 C   0  0  0  0  0  0  0  0  0  0  0  0
   13.8115   40.0992    9.2656 C   0  0  2  0  0  0  0  0  0  0  0  0
   13.6338   40.5307   10.7224 C   0  0  0  0  0  0  0  0  0  0  0  0
   13.0433   39.3953   11.5631 C   0  0  0  0  0  0  0  0  0  0  0  0
   13.5517   38.0155   11.1259 C   0  0  0  0  0  0  0  0  0  0  0  0
   14.6046   38.7848    9.1329 C   0  0  0  0  0  0  0  0  0  0  0  0
   12.9017   44.9142    3.4628 S   0  0  0  0  0  0  0  0  0  0  0  0
   15.0705   44.9262    4.7528 N   0  0  0  0  0  0  0  0  0  0  0  0
   13.4539   43.2703    5.5889 N   0  0  0  0  0  0  0  0  0  0  0  0
   15.4953   43.1852    6.9082 N   0  0  0  0  0  0  0  0  0  0  0  0
   14.8288   38.1291   10.4252 N   0  0  0  0  0  0  0  0  0  0  0  0
   13.7177   41.7340    7.4244 N   0  0  0  0  0  0  0  0  0  0  0  0
  1 14  1  0
  1 16  1  0
  2 14  1  0
  3 15  1  0
  4  2  1  0
  5 19  2  0
  6 17  2  0
  7  8  2  0
  9  8  1  6
  9 10  1  0
 10 11  1  0
 11 12  1  0
 12 18  1  0
 13 18  1  0
 13  9  1  0
 16  5  1  0
  1 15  2  0
  2  3  2  0
  5 17  1  0
  6  7  1  0
  8 19  1  0
M  END
>  <rmsd>  (157) 
0.248858228

$$$$
MolPort-005-062-829 12580336 CSCCCN1CCC(CC1)n1nccc1NC(=O)Nc1ccccc1C CSSS00159485000 MCULE-4715176907 PubChem-25371691 ZINC000012580336
     RDKit          3D

 27 29  0  0  0  0  0  0  0  0999 V2000
   15.7711   38.5037   13.9823 C   0  0  0  0  0  0  0  0  0  0  0  0
   14.8885   39.3587   11.6592 C   0  0  0  0  0  0  0  0  0  0  0  0
   13.3921   39.2713   11.9011 C   0  0  0  0  0  0  0  0  0  0  0  0
   12.6948   38.6917   10.6814 C   0  0  0  0  0  0  0  0  0  0  0  0
   12.8330   38.8614    8.3479 C   0  0  0  0  0  0  0  0  0  0  0  0
   12.5894   39.7064    7.0835 C   0  0  0  0  0  0  0  0  0  0  0  0
   12.4083   41.2067    7.3596 C   0  0  0  0  0  0  0  0  0  0  0  0
   11.5068   41.5033    8.5684 C   0  0  0  0  0  0  0  0  0  0  0  0
   11.4585   40.3505    9.5729 C   0  0  0  0  0  0  0  0  0  0  0  0
   15.6404   42.4556    8.2427 C   0  0  0  0  0  0  0  0  0  0  0  0
   15.4255   43.2337    7.1104 C   0  0  0  0  0  0  0  0  0  0  0  0
   14.1784   42.8264    6.6744 C   0  0  0  0  0  0  0  0  0  0  0  0
   13.9411   44.3269    4.6279 C   0  0  0  0  0  0  0  0  0  0  0  0
   13.4005   45.6928    2.5196 C   0  0  0  0  0  0  0  0  0  0  0  0
   12.4634   45.9436    1.4996 C   0  0  0  0  0  0  0  0  0  0  0  0
   11.1704   45.2043    1.4428 C   0  0  0  0  0  0  0  0  0  0  0  0
   12.7360   46.8997    0.5157 C   0  0  0  0  0  0  0  0  0  0  0  0
   13.9378   47.6111    0.5383 C   0  0  0  0  0  0  0  0  0  0  0  0
   14.8724   47.3684    1.5463 C   0  0  0  0  0  0  0  0  0  0  0  0
   14.6048   46.4146    2.5312 C   0  0  0  0  0  0  0  0  0  0  0  0
   15.7050   40.0919   13.1053 S   0  0  0  0  0  0  0  0  0  0  0  0
   12.7335   39.6422    9.5817 N   0  0  0  0  0  0  0  0  0  0  0  0
   13.6983   41.8788    7.4913 N   0  0  0  0  0  0  0  0  0  0  0  0
   14.5793   41.6469    8.4479 N   0  0  0  0  0  0  0  0  0  0  0  0
   13.4710   43.3180    5.5282 N   0  0  0  0  0  0  0  0  0  0  0  0
   13.1088   44.7079    3.5250 N   0  0  0  0  0  0  0  0  0  0  0  0
   15.0657   44.8680    4.8041 O   0  0  0  0  0  0  0  0  0  0  0  0
  1 21  1  0
  2 21  1  0
  2  3  1  0
  3  4  1  0
  4 22  1  0
  5 22  1  0
  5  6  1  0
  6  7  1  0
  7  8  1  0
  7 23  1  0
  8  9  1  0
  9 22  1  0
 10 11  1  0
 12 25  1  0
 12 23  1  0
 13 26  1  0
 15 17  2  0
 16 15  1  0
 18 19  2  0
 20 14  2  0
 23 24  1  0
 25 13  1  0
 26 14  1  0
 10 24  2  0
 11 12  2  0
 13 27  2  0
 14 15  1  0
 17 18  1  0
 19 20  1  0
M  END
>  <rmsd>  (158) 
0.248826772

$$$$
MolPort-035-369-422 215047053 CSSS00160379462 MCULE-4057324543 PubChem-77079754 ZINC000215047053
     RDKit          3D

 21 22  0  0  0  0  0  0  0  0999 V2000
   17.8088   41.6609   11.5397 C   0  0  0  0  0  0  0  0  0  0  0  0
   15.4625   41.7843   12.0403 C   0  0  0  0  0  0  0  0  0  0  0  0
   15.4125   40.4330   12.7096 C   0  0  0  0  0  0  0  0  0  0  0  0
   16.0688   40.0307   13.8536 C   0  0  0  0  0  0  0  0  0  0  0  0
   17.0357   40.8350   14.6505 C   0  0  0  0  0  0  0  0  0  0  0  0
   14.5862   39.3711   12.4091 C   0  0  0  0  0  0  0  0  0  0  0  0
   13.5980   39.3035   11.2981 C   0  0  0  0  0  0  0  0  0  0  0  0
   16.2458   40.9243    9.9319 C   0  0  0  0  0  0  0  0  0  0  0  0
   15.5333   41.5629    8.7879 C   0  0  0  0  0  0  0  0  0  0  0  0
   14.2489   41.1333    8.4431 C   0  0  0  0  0  0  0  0  0  0  0  0
   13.5787   41.7207    7.3661 C   0  0  0  0  0  0  0  0  0  0  0  0
   14.1865   42.7390    6.6235 C   0  0  0  0  0  0  0  0  0  0  0  0
   13.9208   44.3622    4.6577 C   0  0  0  0  0  0  0  0  0  0  0  0
   13.0327   44.8378    3.5658 C   0  0  0  0  0  0  0  0  0  0  0  0
   15.4787   43.1631    6.9699 C   0  0  0  0  0  0  0  0  0  0  0  0
   16.1501   42.5767    8.0464 C   0  0  0  0  0  0  0  0  0  0  0  0
   16.4837   41.9016   10.9880 N   0  0  0  0  0  0  0  0  0  0  0  0
   15.6701   38.7902   14.1927 N   0  0  0  0  0  0  0  0  0  0  0  0
   14.7655   38.3875   13.3111 N   0  0  0  0  0  0  0  0  0  0  0  0
   13.4661   43.3169    5.5263 N   0  0  0  0  0  0  0  0  0  0  0  0
   15.0572   44.8854    4.8012 O   0  0  0  0  0  0  0  0  0  0  0  0
  1 17  1  0
  2 17  1  0
  2  3  1  0
  4 18  1  0
  5  4  1  0
  6  3  1  0
  7  6  1  0
  8 17  1  0
  8  9  1  0
 10 11  2  0
 12 20  1  0
 12 15  2  0
 14 13  1  0
 16  9  2  0
 18 19  1  0
 20 13  1  0
  3  4  2  0
  6 19  2  0
  9 10  1  0
 11 12  1  0
 13 21  2  0
 15 16  1  0
M  END
>  <rmsd>  (159) 
0.248797596

$$$$
MolPort-003-025-648 2716636 CSSS03437097008 LN01396109 MCULE-3410807198 PubChem-2152310 ZINC000002716636
     RDKit          3D

 30 33  0  0  0  0  0  0  0  0999 V2000
    9.8327   46.1188    0.5662 S   0  0  0  0  0  0  0  0  0  0  0  0
   15.9705   43.2322    6.9717 S   0  0  0  0  0  0  0  0  0  0  0  0
    9.0224   44.9353    0.1148 O   0  0  0  0  0  0  0  0  0  0  0  0
   10.5487   46.6860   -0.6284 O   0  0  0  0  0  0  0  0  0  0  0  0
   15.0055   44.8951    4.7363 O   0  0  0  0  0  0  0  0  0  0  0  0
   13.5514   39.7862    9.4979 O   0  0  0  0  0  0  0  0  0  0  0  0
    7.4339   49.0647    2.5807 O   0  0  0  0  0  0  0  0  0  0  0  0
   11.0155   45.5914    1.7565 C   0  0  0  0  0  0  0  0  0  0  0  0
   12.2689   46.2089    1.8231 C   0  0  0  0  0  0  0  0  0  0  0  0
   13.2024   45.8003    2.7795 C   0  0  0  0  0  0  0  0  0  0  0  0
   12.8907   44.7716    3.6808 C   0  0  0  0  0  0  0  0  0  0  0  0
   11.6319   44.1577    3.6105 C   0  0  0  0  0  0  0  0  0  0  0  0
   10.6989   44.5657    2.6533 C   0  0  0  0  0  0  0  0  0  0  0  0
   13.8730   44.3427    4.6920 C   0  0  0  0  0  0  0  0  0  0  0  0
   14.3692   42.7670    6.6501 C   0  0  0  0  0  0  0  0  0  0  0  0
   16.1022   42.1428    8.2400 C   0  0  0  0  0  0  0  0  0  0  0  0
   14.9075   41.4512    8.3765 C   0  0  0  0  0  0  0  0  0  0  0  0
   14.7613   40.4792    9.3708 C   0  0  0  0  0  0  0  0  0  0  0  0
   15.8592   40.2242   10.2197 C   0  0  0  0  0  0  0  0  0  0  0  0
   17.0652   40.9341   10.0680 C   0  0  0  0  0  0  0  0  0  0  0  0
   17.1964   41.9080    9.0671 C   0  0  0  0  0  0  0  0  0  0  0  0
   13.3099   38.8212   10.5156 C   0  0  0  0  0  0  0  0  0  0  0  0
   12.9806   39.5135   11.8245 C   0  0  0  0  0  0  0  0  0  0  0  0
    9.6046   48.4485    1.6883 C   0  0  0  0  0  0  0  0  0  0  0  0
    8.7987   49.4071    2.5796 C   0  0  0  0  0  0  0  0  0  0  0  0
    7.3381   47.8009    3.1934 C   0  0  0  0  0  0  0  0  0  0  0  0
    8.0659   46.7277    2.3671 C   0  0  0  0  0  0  0  0  0  0  0  0
   13.5304   43.3030    5.6196 N   0  0  0  0  0  0  0  0  0  0  0  0
   13.9369   41.7971    7.4915 N   0  0  0  0  0  0  0  0  0  0  0  0
    8.7774   47.3256    1.2315 N   0  0  0  0  0  0  0  0  0  0  0  0
  1  8  1  0
  1 30  1  0
  9 10  2  0
 11 12  2  0
 11 14  1  0
 13  8  2  0
 14 28  1  0
 15  2  1  0
 16  2  1  0
 17 18  2  0
 17 29  1  0
 18  6  1  0
 19 20  2  0
 21 16  2  0
 22  6  1  0
 22 23  1  0
 24 30  1  0
 24 25  1  0
 25  7  1  0
 26  7  1  0
 26 27  1  0
 27 30  1  0
 28 15  1  0
  1  3  2  0
  1  4  2  0
  8  9  1  0
 10 11  1  0
 12 13  1  0
 14  5  2  0
 15 29  2  0
 16 17  1  0
 18 19  1  0
 20 21  1  0
M  END
>  <rmsd>  (160) 
0.248795569

$$$$
MolPort-029-901-571 CSSS00159880775 MCULE-6545676483 PubChem-72913081
     RDKit          3D

 25 27  0  0  0  0  0  0  0  0999 V2000
   13.5970   47.1754    3.3151 C   0  0  0  0  0  0  0  0  0  0  0  0
   13.3916   45.8417    2.6211 C   0  0  1  0  0  0  0  0  0  0  0  0
   14.6317   45.4709    1.8146 C   0  0  0  0  0  0  0  0  0  0  0  0
   14.3789   44.2865    0.9421 C   0  0  0  0  0  0  0  0  0  0  0  0
   14.8384   42.0293    0.3903 C   0  0  0  0  0  0  0  0  0  0  0  0
   13.9359   42.1047   -0.6722 C   0  0  0  0  0  0  0  0  0  0  0  0
   13.4790   44.3632   -0.1254 C   0  0  0  0  0  0  0  0  0  0  0  0
   13.9187   44.3626    4.6477 C   0  0  0  0  0  0  0  0  0  0  0  0
   14.1916   42.7450    6.6185 C   0  0  0  0  0  0  0  0  0  0  0  0
   13.5824   41.7340    7.3696 C   0  0  0  0  0  0  0  0  0  0  0  0
   14.2499   41.1418    8.4467 C   0  0  0  0  0  0  0  0  0  0  0  0
   14.1803   39.4998   10.3083 C   0  0  0  0  0  0  0  0  0  0  0  0
   13.4214   38.2209   10.6163 C   0  0  0  0  0  0  0  0  0  0  0  0
   12.7136   38.4436   11.9356 C   0  0  0  0  0  0  0  0  0  0  0  0
   13.5024   39.5228   12.6360 C   0  0  0  0  0  0  0  0  0  0  0  0
   14.0428   40.3972   11.5279 C   0  0  0  0  0  0  0  0  0  0  0  0
   15.5471   41.5684    8.7723 C   0  0  0  0  0  0  0  0  0  0  0  0
   16.1633   42.5768    8.0278 C   0  0  0  0  0  0  0  0  0  0  0  0
   15.4879   43.1631    6.9547 C   0  0  0  0  0  0  0  0  0  0  0  0
   15.0416   43.1221    1.1728 N   0  0  0  0  0  0  0  0  0  0  0  0
   13.2766   43.2700   -0.9075 N   0  0  0  0  0  0  0  0  0  0  0  0
   13.0567   44.8012    3.5920 N   0  0  0  0  0  0  0  0  0  0  0  0
   13.4675   43.3214    5.5230 N   0  0  0  0  0  0  0  0  0  0  0  0
   15.0557   44.8864    4.7978 O   0  0  0  0  0  0  0  0  0  0  0  0
   13.6051   40.1327    9.1702 O   0  0  0  0  0  0  0  0  0  0  0  0
  2  1  1  1
  2  3  1  0
  2 22  1  0
  3  4  1  0
  5 20  2  0
  6 21  2  0
  7  4  2  0
  8 23  1  0
 10 11  2  0
 11 25  1  0
 12 25  1  0
 12 13  1  0
 13 14  1  0
 14 15  1  0
 15 16  1  0
 16 12  1  0
 17 18  2  0
 19  9  2  0
 22  8  1  0
 23  9  1  0
  4 20  1  0
  5  6  1  0
  7 21  1  0
  8 24  2  0
  9 10  1  0
 11 17  1  0
 18 19  1  0
M  END
>  <rmsd>  (161) 
0.248787373

$$$$
MolPort-029-894-951 96141649 CSSS00160105277 MCULE-8661123684 PubChem-72876543 ZINC000096141649
     RDKit          3D

 25 28  0  0  0  0  0  0  0  0999 V2000
   15.0567   44.8871    4.7990 O   0  0  0  0  0  0  0  0  0  0  0  0
   13.6027   40.1344    9.1718 O   0  0  0  0  0  0  0  0  0  0  0  0
   13.9205   44.3622    4.6479 C   0  0  0  0  0  0  0  0  0  0  0  0
   13.4479   45.8258    2.6321 C   0  0  0  0  0  0  0  0  0  0  0  0
   14.4121   45.2628    1.6376 C   0  0  0  0  0  0  0  0  0  0  0  0
   14.1231   44.3004    0.6959 C   0  0  0  0  0  0  0  0  0  0  0  0
   16.2139   44.8149    0.5672 C   0  0  0  0  0  0  0  0  0  0  0  0
   16.4651   46.5044    2.4027 C   0  0  0  0  0  0  0  0  0  0  0  0
   15.9858   47.9305    2.1919 C   0  0  0  0  0  0  0  0  0  0  0  0
   17.2792   47.4720    1.5595 C   0  0  0  0  0  0  0  0  0  0  0  0
   14.1927   42.7428    6.6169 C   0  0  0  0  0  0  0  0  0  0  0  0
   13.5813   41.7347    7.3703 C   0  0  0  0  0  0  0  0  0  0  0  0
   14.2495   41.1404    8.4459 C   0  0  0  0  0  0  0  0  0  0  0  0
   14.1785   39.4999   10.3088 C   0  0  0  0  0  0  0  0  0  0  0  0
   14.0481   40.3987   11.5282 C   0  0  0  0  0  0  0  0  0  0  0  0
   13.5072   39.5273   12.6383 C   0  0  0  0  0  0  0  0  0  0  0  0
   12.7120   38.4508   11.9408 C   0  0  0  0  0  0  0  0  0  0  0  0
   13.4152   38.2244   10.6197 C   0  0  0  0  0  0  0  0  0  0  0  0
   15.5495   41.5619    8.7674 C   0  0  0  0  0  0  0  0  0  0  0  0
   16.1677   42.5672    8.0206 C   0  0  0  0  0  0  0  0  0  0  0  0
   15.4916   43.1557    6.9491 C   0  0  0  0  0  0  0  0  0  0  0  0
   13.0598   44.8062    3.5973 N   0  0  0  0  0  0  0  0  0  0  0  0
   15.2621   44.0252    0.0245 N   0  0  0  0  0  0  0  0  0  0  0  0
   15.7118   45.5928    1.5445 N   0  0  0  0  0  0  0  0  0  0  0  0
   13.4678   43.3215    5.5229 N   0  0  0  0  0  0  0  0  0  0  0  0
  3 22  1  0
  3 25  1  0
  4 22  1  0
  4  5  1  0
  6 23  1  0
  7 24  1  0
  8 24  1  0
  8  9  1  0
  9 10  1  0
 10  8  1  0
 12 13  2  0
 13  2  1  0
 14  2  1  0
 14 15  1  0
 15 16  1  0
 16 17  1  0
 17 18  1  0
 18 14  1  0
 19 20  2  0
 21 11  2  0
 24  5  1  0
 25 11  1  0
  3  1  2  0
  5  6  2  0
  7 23  2  0
 11 12  1  0
 13 19  1  0
 20 21  1  0
M  END
>  <rmsd>  (162) 
0.248772576

$$$$
Molport-047-071-689 PubChem-132767284
     RDKit          3D

 32 35  0  0  0  0  0  0  0  0999 V2000
   15.3891   31.5628   14.7315 C   0  0  0  0  0  0  0  0  0  0  0  0
   14.9896   32.9875   14.5928 C   0  0  0  0  0  0  0  0  0  0  0  0
   14.6351   34.9606   13.5908 C   0  0  0  0  0  0  0  0  0  0  0  0
   14.6146   35.9206   12.4841 C   0  0  0  0  0  0  0  0  0  0  0  0
   15.0151   35.5893   11.2608 C   0  0  0  0  0  0  0  0  0  0  0  0
   15.0106   36.5215   10.1185 C   0  0  0  0  0  0  0  0  0  0  0  0
   13.2182   38.0597   11.0224 C   0  0  0  0  0  0  0  0  0  0  0  0
   13.3288   39.4278   11.6999 C   0  0  0  0  0  0  0  0  0  0  0  0
   13.8314   40.5385   10.7655 C   0  0  0  0  0  0  0  0  0  0  0  0
   13.9245   40.0947    9.3051 C   0  0  2  0  0  0  0  0  0  0  0  0
   14.7793   38.8317    9.1853 C   0  0  0  0  0  0  0  0  0  0  0  0
   14.4781   41.1884    8.4534 C   0  0  0  0  0  0  0  0  0  0  0  0
   13.7031   41.7138    7.4197 C   0  0  0  0  0  0  0  0  0  0  0  0
   14.2379   42.7348    6.6346 C   0  0  0  0  0  0  0  0  0  0  0  0
   13.8450   44.3270    4.6742 C   0  0  0  0  0  0  0  0  0  0  0  0
   15.4417   45.9052    3.9215 C   0  0  0  0  0  0  0  0  0  0  0  0
   16.7841   46.5292    4.0501 C   0  0  0  0  0  0  0  0  0  0  0  0
   14.5643   46.3364    2.9285 C   0  0  0  0  0  0  0  0  0  0  0  0
   13.3146   45.7260    2.8407 C   0  0  0  0  0  0  0  0  0  0  0  0
   12.3493   46.1562    1.7960 C   0  0  0  0  0  0  0  0  0  0  0  0
   16.2366   42.6706    7.9025 C   0  0  0  0  0  0  0  0  0  0  0  0
   17.6049   43.1886    8.1617 C   0  0  0  0  0  0  0  0  0  0  0  0
   14.2121   35.3165   14.8711 C   0  0  0  0  0  0  0  0  0  0  0  0
   15.0639   33.6758   13.4377 N   0  0  0  0  0  0  0  0  0  0  0  0
   14.3791   37.8153   10.1643 N   0  0  0  0  0  0  0  0  0  0  0  0
   13.4500   43.2813    5.5702 N   0  0  0  0  0  0  0  0  0  0  0  0
   15.0694   44.9139    4.7723 N   0  0  0  0  0  0  0  0  0  0  0  0
   12.9786   44.7374    3.7102 N   0  0  0  0  0  0  0  0  0  0  0  0
   15.4936   43.1922    6.8920 N   0  0  0  0  0  0  0  0  0  0  0  0
   15.7293   41.6759    8.6757 N   0  0  0  0  0  0  0  0  0  0  0  0
   15.6041   36.1594    9.0677 O   0  0  0  0  0  0  0  0  0  0  0  0
   14.3940   33.9436   15.8313 S   0  0  0  0  0  0  0  0  0  0  0  0
  1  2  1  0
  2 32  1  0
  3 24  1  0
  3  4  1  0
  5  6  1  0
  6 25  1  0
  7 25  1  0
  7  8  1  0
  8  9  1  0
  9 10  1  0
 10 11  1  0
 10 12  1  6
 11 25  1  0
 12 30  2  0
 13 14  2  0
 14 26  1  0
 15 28  2  0
 16 27  2  0
 17 16  1  0
 18 19  2  0
 20 19  1  0
 21 29  2  0
 22 21  1  0
 23 32  1  0
 26 15  1  0
  2 24  2  0
  3 23  2  0
  4  5  2  0
  6 31  2  0
 12 13  1  0
 14 29  1  0
 15 27  1  0
 16 18  1  0
 19 28  1  0
 21 30  1  0
M  END
>  <rmsd>  (163) 
0.248758793

$$$$
MolPort-020-292-448 MCULE-2802633889 PubChem-110264916
     RDKit          3D

 28 30  0  0  0  0  0  0  0  0999 V2000
   16.2222   35.0949    6.2314 C   0  0  0  0  0  0  0  0  0  0  0  0
   14.7279   34.8616    6.1019 C   0  0  0  0  0  0  0  0  0  0  0  0
   13.1845   36.8160    6.0237 C   0  0  0  0  0  0  0  0  0  0  0  0
   13.8458   38.1805    5.9650 C   0  0  0  0  0  0  0  0  0  0  0  0
   13.9250   35.8911    8.2536 C   0  0  0  0  0  0  0  0  0  0  0  0
   13.1227   36.9185    8.9913 C   0  0  0  0  0  0  0  0  0  0  0  0
   13.0987   38.0681   11.0386 C   0  0  0  0  0  0  0  0  0  0  0  0
   13.6259   39.3195   11.7388 C   0  0  0  0  0  0  0  0  0  0  0  0
   13.6441   40.5106   10.7772 C   0  0  0  0  0  0  0  0  0  0  0  0
   13.7706   40.0801    9.3120 C   0  0  2  0  0  0  0  0  0  0  0  0
   14.5737   38.7814    9.1889 C   0  0  0  0  0  0  0  0  0  0  0  0
   14.3818   41.1636    8.4884 C   0  0  0  0  0  0  0  0  0  0  0  0
   16.2198   42.5896    8.0084 C   0  0  0  0  0  0  0  0  0  0  0  0
   15.5203   43.1660    6.9468 C   0  0  0  0  0  0  0  0  0  0  0  0
   14.2224   42.7278    6.6533 C   0  0  0  0  0  0  0  0  0  0  0  0
   13.6533   41.7181    7.4328 C   0  0  0  0  0  0  0  0  0  0  0  0
   13.8518   44.3193    4.6687 C   0  0  0  0  0  0  0  0  0  0  0  0
   15.4396   45.9054    3.9001 C   0  0  0  0  0  0  0  0  0  0  0  0
   14.5533   46.3099    2.9009 C   0  0  0  0  0  0  0  0  0  0  0  0
   12.9676   44.7266    3.6673 C   0  0  0  0  0  0  0  0  0  0  0  0
   17.5971   43.0481    8.3255 C   0  0  0  0  0  0  0  0  0  0  0  0
   13.9923   35.8970    6.8156 N   0  0  0  0  0  0  0  0  0  0  0  0
   13.9660   37.6542    9.9237 N   0  0  0  0  0  0  0  0  0  0  0  0
   15.6425   41.6081    8.7509 N   0  0  0  0  0  0  0  0  0  0  0  0
   13.4556   43.2806    5.5742 N   0  0  0  0  0  0  0  0  0  0  0  0
   15.0699   44.9208    4.7608 N   0  0  0  0  0  0  0  0  0  0  0  0
   13.3368   45.7116    2.8063 N   0  0  0  0  0  0  0  0  0  0  0  0
   14.5260   34.9992    8.9121 O   0  0  0  0  0  0  0  0  0  0  0  0
  1  2  1  0
  2 22  1  0
  3 22  1  0
  3  4  1  0
  6  5  1  0
  6 23  1  0
  7 23  1  0
  7  8  1  0
  8  9  1  0
  9 10  1  0
 10 11  1  0
 10 12  1  6
 11 23  1  0
 13 24  2  0
 14 15  2  0
 15 25  1  0
 16 12  2  0
 18 26  2  0
 19 27  2  0
 20 17  2  0
 21 13  1  0
 22  5  1  0
 25 17  1  0
  5 28  2  0
 12 24  1  0
 13 14  1  0
 15 16  1  0
 17 26  1  0
 18 19  1  0
 20 27  1  0
M  END
>  <rmsd>  (164) 
0.248757899

$$$$
Molport-046-956-512 MCULE-7113646903
     RDKit          3D

 27 30  0  0  0  0  0  0  0  0999 V2000
   14.3855   37.8151   10.1662 N   0  0  0  0  0  0  0  0  0  0  0  0
   13.4497   43.2797    5.5714 N   0  0  0  0  0  0  0  0  0  0  0  0
   15.0699   44.9148    4.7711 N   0  0  0  0  0  0  0  0  0  0  0  0
   15.4921   43.1919    6.8948 N   0  0  0  0  0  0  0  0  0  0  0  0
   15.7267   41.6762    8.6792 N   0  0  0  0  0  0  0  0  0  0  0  0
   18.2343   36.6463    8.6112 N   0  0  0  0  0  0  0  0  0  0  0  0
   17.1368   37.2302    9.0581 N   0  0  0  0  0  0  0  0  0  0  0  0
   13.2243   38.0557   11.0243 C   0  0  0  0  0  0  0  0  0  0  0  0
   13.3314   39.4239   11.7025 C   0  0  0  0  0  0  0  0  0  0  0  0
   13.8265   40.5374   10.7670 C   0  0  0  0  0  0  0  0  0  0  0  0
   13.9226   40.0936    9.3068 C   0  0  2  0  0  0  0  0  0  0  0  0
   14.7823   38.8344    9.1882 C   0  0  0  0  0  0  0  0  0  0  0  0
   14.4757   41.1885    8.4563 C   0  0  0  0  0  0  0  0  0  0  0  0
   13.7016   41.7131    7.4216 C   0  0  0  0  0  0  0  0  0  0  0  0
   14.2368   42.7340    6.6367 C   0  0  0  0  0  0  0  0  0  0  0  0
   13.8449   44.3250    4.6749 C   0  0  0  0  0  0  0  0  0  0  0  0
   12.9524   44.7436    3.6843 C   0  0  0  0  0  0  0  0  0  0  0  0
   13.3292   45.7614    2.8064 C   0  0  0  0  0  0  0  0  0  0  0  0
   14.5889   46.3504    2.9244 C   0  0  0  0  0  0  0  0  0  0  0  0
   15.4558   45.9079    3.9254 C   0  0  0  0  0  0  0  0  0  0  0  0
   16.2344   42.6708    7.9062 C   0  0  0  0  0  0  0  0  0  0  0  0
   17.6025   43.1887    8.1664 C   0  0  0  0  0  0  0  0  0  0  0  0
   15.0256   36.5253   10.2011 C   0  0  0  0  0  0  0  0  0  0  0  0
   16.3413   36.2783    9.5732 C   0  0  0  0  0  0  0  0  0  0  0  0
   16.9471   35.0411    9.4646 C   0  0  0  0  0  0  0  0  0  0  0  0
   18.1508   35.3218    8.8417 C   0  0  0  0  0  0  0  0  0  0  0  0
   14.4571   35.5697   10.7973 O   0  0  0  0  0  0  0  0  0  0  0  0
  1 23  1  0
  2 16  1  0
  6  7  1  0
  8  1  1  0
  8  9  1  0
  9 10  1  0
 10 11  1  0
 11 12  1  0
 11 13  1  6
 12  1  1  0
 13  5  2  0
 14 15  2  0
 15  2  1  0
 16  3  2  0
 17 18  2  0
 19 20  2  0
 21  4  2  0
 22 21  1  0
 23 24  1  0
 24 25  1  0
 26  6  1  0
 13 14  1  0
 15  4  1  0
 16 17  1  0
 18 19  1  0
 20  3  1  0
 21  5  1  0
 23 27  2  0
 24  7  2  0
 25 26  2  0
M  END
>  <rmsd>  (165) 
0.248696506

$$$$
MolPort-045-965-923 952990967 CSSS00159968264 MCULE-1112863886 PubChem-131935621 ZINC000952990967
     RDKit          3D

 26 28  0  0  0  0  0  0  0  0999 V2000
   12.9497   44.7502    1.2302 C   0  0  0  0  0  0  0  0  0  0  0  0
   13.1311   44.6845    3.4275 C   0  0  0  0  0  0  0  0  0  0  0  0
   13.9533   44.3042    4.6077 C   0  0  0  0  0  0  0  0  0  0  0  0
   14.2335   42.7293    6.5715 C   0  0  0  0  0  0  0  0  0  0  0  0
   13.6921   42.7057    7.8606 C   0  0  0  0  0  0  0  0  0  0  0  0
   14.4026   42.1335    8.9174 C   0  0  0  0  0  0  0  0  0  0  0  0
   15.6584   41.5544    8.6926 C   0  0  0  0  0  0  0  0  0  0  0  0
   15.9227   40.6000   11.0453 C   0  0  0  0  0  0  0  0  0  0  0  0
   14.6111   39.9403   11.1934 C   0  0  0  0  0  0  0  0  0  0  0  0
   13.9105   39.7006   12.3514 C   0  0  0  0  0  0  0  0  0  0  0  0
   13.3583   39.7012   14.6243 C   0  0  0  0  0  0  0  0  0  0  0  0
   12.1746   38.9950   14.3330 C   0  0  0  0  0  0  0  0  0  0  0  0
   11.2356   38.6152   15.4201 C   0  0  0  0  0  0  0  0  0  0  0  0
   11.8972   38.6553   13.0021 C   0  0  0  0  0  0  0  0  0  0  0  0
   13.8336   39.3478   10.1950 C   0  0  0  0  0  0  0  0  0  0  0  0
   16.1969   41.5635    7.4035 C   0  0  0  0  0  0  0  0  0  0  0  0
   15.4932   42.1355    6.3389 C   0  0  0  0  0  0  0  0  0  0  0  0
   13.8206   44.3801    2.2538 O   0  0  0  0  0  0  0  0  0  0  0  0
   15.0546   44.8808    4.8157 O   0  0  0  0  0  0  0  0  0  0  0  0
   16.6488   40.7628   12.0610 O   0  0  0  0  0  0  0  0  0  0  0  0
   13.4606   43.3186    5.5196 N   0  0  0  0  0  0  0  0  0  0  0  0
   16.4289   40.9993    9.7649 N   0  0  0  0  0  0  0  0  0  0  0  0
   14.2207   40.0497   13.6247 N   0  0  0  0  0  0  0  0  0  0  0  0
   12.7935   39.0313   12.0593 N   0  0  0  0  0  0  0  0  0  0  0  0
   12.7238   38.8053   10.7597 N   0  0  0  0  0  0  0  0  0  0  0  0
   16.1837   41.9965    4.7290 Cl  0  0  0  0  0  0  0  0  0  0  0  0
  1 18  1  0
  2 18  1  0
  2  3  1  0
  3 21  1  0
  5  6  2  0
  7 22  1  0
  7 16  2  0
  8  9  1  0
 10 23  1  0
 11 12  1  0
 13 12  1  0
 14 24  1  0
 15  9  1  0
 17 26  1  0
 17  4  2  0
 21  4  1  0
 22  8  1  0
 24 25  1  0
 24 10  1  0
  3 19  2  0
  4  5  1  0
  6  7  1  0
  8 20  2  0
  9 10  2  0
 11 23  2  0
 12 14  2  0
 15 25  2  0
 16 17  1  0
M  END
>  <rmsd>  (166) 
0.248691678

$$$$
MolPort-028-723-381 76124863 CSC046086915 CSSS00046086915 MCULE-5292930431 PubChem-72847635 ZINC000076124863 ZINC76124863
     RDKit          3D

 25 27  0  0  0  0  0  0  0  0999 V2000
   15.0569   44.8884    4.7999 O   0  0  0  0  0  0  0  0  0  0  0  0
   17.4422   42.5163   -1.0493 O   0  0  0  0  0  0  0  0  0  0  0  0
   13.5911   40.1424    9.1761 O   0  0  0  0  0  0  0  0  0  0  0  0
   13.9228   44.3599    4.6437 C   0  0  0  0  0  0  0  0  0  0  0  0
   13.4734   45.7912    2.6019 C   0  0  0  0  0  0  0  0  0  0  0  0
   14.1221   45.1126    1.4065 C   0  0  0  0  0  0  0  0  0  0  0  0
   15.5466   44.6990    1.7324 C   0  0  0  0  0  0  0  0  0  0  0  0
   17.5523   44.3102    0.5865 C   0  0  0  0  0  0  0  0  0  0  0  0
   18.3221   43.3642   -0.3506 C   0  0  0  0  0  0  0  0  0  0  0  0
   16.8103   41.7072   -0.0860 C   0  0  0  0  0  0  0  0  0  0  0  0
   15.9480   42.5524    0.8667 C   0  0  0  0  0  0  0  0  0  0  0  0
   14.1924   42.7384    6.6112 C   0  0  0  0  0  0  0  0  0  0  0  0
   13.5751   41.7389    7.3711 C   0  0  0  0  0  0  0  0  0  0  0  0
   14.2442   41.1392    8.4432 C   0  0  0  0  0  0  0  0  0  0  0  0
   14.1678   39.5038   10.3104 C   0  0  0  0  0  0  0  0  0  0  0  0
   14.0650   40.4060   11.5316 C   0  0  0  0  0  0  0  0  0  0  0  0
   13.1123   39.7279   12.4927 C   0  0  0  0  0  0  0  0  0  0  0  0
   13.1419   38.2654   12.1206 C   0  0  0  0  0  0  0  0  0  0  0  0
   13.3857   38.2436   10.6291 C   0  0  0  0  0  0  0  0  0  0  0  0
   15.5513   41.5462    8.7543 C   0  0  0  0  0  0  0  0  0  0  0  0
   16.1757   42.5425    8.0005 C   0  0  0  0  0  0  0  0  0  0  0  0
   15.4987   43.1364    6.9326 C   0  0  0  0  0  0  0  0  0  0  0  0
   13.0657   44.8014    3.5895 N   0  0  0  0  0  0  0  0  0  0  0  0
   16.1236   43.9852    0.6067 N   0  0  0  0  0  0  0  0  0  0  0  0
   13.4670   43.3219    5.5203 N   0  0  0  0  0  0  0  0  0  0  0  0
  4 23  1  0
  4 25  1  0
  5 23  1  0
  5  6  1  0
  6  7  1  0
  7 24  1  0
  8 24  1  0
  8  9  1  0
  9  2  1  0
 10  2  1  0
 10 11  1  0
 11 24  1  0
 13 14  2  0
 14  3  1  0
 15  3  1  0
 15 16  1  0
 16 17  1  0
 17 18  1  0
 18 19  1  0
 19 15  1  0
 20 21  2  0
 22 12  2  0
 25 12  1  0
  4  1  2  0
 12 13  1  0
 14 20  1  0
 21 22  1  0
M  END
>  <rmsd>  (167) 
0.248678207

$$$$
Molport-047-652-275 MCULE-3526152141 PubChem-165888020
     RDKit          3D

 25 27  0  0  0  0  0  0  0  0999 V2000
   13.4123   39.3963   11.2119 C   0  0  0  0  0  0  0  0  0  0  0  0
   14.3364   39.2900   10.0099 C   0  0  1  0  0  0  0  0  0  0  0  0
   14.5552   41.1230    8.3165 C   0  0  0  0  0  0  0  0  0  0  0  0
   13.7880   41.6734    7.3511 C   0  0  0  0  0  0  0  0  0  0  0  0
   14.2826   42.7161    6.5799 C   0  0  0  0  0  0  0  0  0  0  0  0
   16.3156   42.5701    7.8290 C   0  0  0  0  0  0  0  0  0  0  0  0
   13.8838   44.3844    4.6967 C   0  0  0  0  0  0  0  0  0  0  0  0
   13.2825   45.9607    2.8877 C   0  0  0  0  0  0  0  0  0  0  0  0
   13.1281   47.2514    3.6185 C   0  0  0  0  0  0  0  0  0  0  0  0
   14.2610   47.9607    4.0319 C   0  0  0  0  0  0  0  0  0  0  0  0
   14.1176   49.1639    4.7297 C   0  0  0  0  0  0  0  0  0  0  0  0
   12.8414   49.6579    5.0169 C   0  0  0  0  0  0  0  0  0  0  0  0
   11.7082   48.9485    4.6070 C   0  0  0  0  0  0  0  0  0  0  0  0
   11.8513   47.7451    3.9093 C   0  0  0  0  0  0  0  0  0  0  0  0
   12.6734   40.1249    8.2837 C   0  0  0  0  0  0  0  0  0  0  0  0
   14.4784   37.8713    9.5596 C   0  0  0  0  0  0  0  0  0  0  0  0
   13.8749   40.1447    8.9202 N   0  0  0  0  0  0  0  0  0  0  0  0
   15.5550   43.1460    6.8424 N   0  0  0  0  0  0  0  0  0  0  0  0
   15.8158   41.5432    8.5809 N   0  0  0  0  0  0  0  0  0  0  0  0
   13.4798   43.3104    5.5525 N   0  0  0  0  0  0  0  0  0  0  0  0
   12.5875   41.0662    7.3009 N   0  0  0  0  0  0  0  0  0  0  0  0
   12.9820   44.8641    3.7441 O   0  0  0  0  0  0  0  0  0  0  0  0
   15.0365   44.8879    4.7947 O   0  0  0  0  0  0  0  0  0  0  0  0
   15.7351   37.2827    9.5354 O   0  0  0  0  0  0  0  0  0  0  0  0
   13.4709   37.2083    9.1958 O   0  0  0  0  0  0  0  0  0  0  0  0
  2  1  1  1
  2 17  1  0
  2 16  1  0
  3 19  2  0
  4  5  2  0
  4 21  1  0
  5 20  1  0
  6 18  2  0
  7 22  1  0
  8 22  1  0
  8  9  1  0
 10 11  2  0
 12 13  2  0
 14  9  2  0
 15 17  1  0
 16 24  1  0
 17  3  1  0
 20  7  1  0
  3  4  1  0
  5 18  1  0
  6 19  1  0
  7 23  2  0
  9 10  1  0
 11 12  1  0
 13 14  1  0
 15 21  2  0
 16 25  2  0
M  END
>  <rmsd>  (168) 
0.248661831

$$$$
MolPort-006-580-056 ChemDiv-V019-1727 MCULE-5973113167 PubChem-46041022 ZINC000037545351 ZINC37545351
     RDKit          3D

 29 31  0  0  0  0  0  0  0  0999 V2000
   12.3466   33.3301   10.5105 F   0  0  0  0  0  0  0  0  0  0  0  0
   10.7321   36.9983    6.7304 F   0  0  0  0  0  0  0  0  0  0  0  0
   11.9510   34.2358    9.5845 C   0  0  0  0  0  0  0  0  0  0  0  0
   11.5634   35.5182    9.9825 C   0  0  0  0  0  0  0  0  0  0  0  0
   11.1556   36.4592    9.0291 C   0  0  0  0  0  0  0  0  0  0  0  0
   10.7523   37.8316    9.4673 C   0  0  0  0  0  0  0  0  0  0  0  0
   12.4021   38.5029   11.2299 C   0  0  0  0  0  0  0  0  0  0  0  0
   13.2992   39.6763   11.6081 C   0  0  0  0  0  0  0  0  0  0  0  0
   14.4135   39.7920   10.5809 C   0  0  0  0  0  0  0  0  0  0  0  0
   12.6823   39.3310    8.8607 C   0  0  0  0  0  0  0  0  0  0  0  0
   14.4331   41.1233    8.4531 C   0  0  0  0  0  0  0  0  0  0  0  0
   15.7358   41.5774    8.7176 C   0  0  0  0  0  0  0  0  0  0  0  0
   16.3059   42.5942    7.9486 C   0  0  0  0  0  0  0  0  0  0  0  0
   15.5778   43.1728    6.9076 C   0  0  0  0  0  0  0  0  0  0  0  0
   14.2739   42.7402    6.6300 C   0  0  0  0  0  0  0  0  0  0  0  0
   13.8926   44.3549    4.6751 C   0  0  0  0  0  0  0  0  0  0  0  0
   13.3141   45.8105    2.6836 C   0  0  0  0  0  0  0  0  0  0  0  0
   13.9953   45.1932    1.5041 C   0  0  0  0  0  0  0  0  0  0  0  0
   15.2474   44.7505    1.5869 C   0  0  0  0  0  0  0  0  0  0  0  0
   13.7119   41.7217    7.4062 C   0  0  0  0  0  0  0  0  0  0  0  0
   11.1346   36.1073    7.6703 C   0  0  0  0  0  0  0  0  0  0  0  0
   11.5232   34.8232    7.2757 C   0  0  0  0  0  0  0  0  0  0  0  0
   11.9317   33.8886    8.2312 C   0  0  0  0  0  0  0  0  0  0  0  0
   11.9208   38.6156    9.8517 N   0  0  0  0  0  0  0  0  0  0  0  0
   13.8461   40.0820    9.2646 N   0  0  0  0  0  0  0  0  0  0  0  0
   13.4928   43.3101    5.5707 N   0  0  0  0  0  0  0  0  0  0  0  0
   12.9762   44.7940    3.6709 N   0  0  0  0  0  0  0  0  0  0  0  0
   12.3247   39.3038    7.6512 O   0  0  0  0  0  0  0  0  0  0  0  0
   15.0302   44.8903    4.7706 O   0  0  0  0  0  0  0  0  0  0  0  0
  3  1  1  0
  4  5  2  0
  6  5  1  0
  6 24  1  0
  7 24  1  0
  7  8  1  0
  8  9  1  0
  9 25  1  0
 10 24  1  0
 12 13  2  0
 14 15  2  0
 15 26  1  0
 16 27  1  0
 17 27  1  0
 17 18  1  0
 20 11  2  0
 21  2  1  0
 21 22  2  0
 23  3  2  0
 25 10  1  0
 25 11  1  0
 26 16  1  0
  3  4  1  0
  5 21  1  0
 10 28  2  0
 11 12  1  0
 13 14  1  0
 15 20  1  0
 16 29  2  0
 18 19  2  0
 22 23  1  0
M  END
>  <rmsd>  (169) 
0.24864842

$$$$
Molport-053-317-044 PubChem-110111891
     RDKit          3D

 26 29  0  0  0  0  0  0  0  0999 V2000
   15.6596   35.8288    7.4180 C   0  0  0  0  0  0  0  0  0  0  0  0
   14.9535   34.9995    8.4339 C   0  0  0  0  0  0  0  0  0  0  0  0
   13.8694   35.4503    9.1748 C   0  0  0  0  0  0  0  0  0  0  0  0
   14.5850   33.1381    9.6656 C   0  0  0  0  0  0  0  0  0  0  0  0
   13.2694   36.8157    9.1448 C   0  0  0  0  0  0  0  0  0  0  0  0
   13.0625   38.1644   11.0574 C   0  0  0  0  0  0  0  0  0  0  0  0
   13.5914   39.4071   11.7675 C   0  0  0  0  0  0  0  0  0  0  0  0
   13.7539   40.5728   10.7880 C   0  0  0  0  0  0  0  0  0  0  0  0
   13.8234   40.1113    9.3279 C   0  0  2  0  0  0  0  0  0  0  0  0
   14.5727   38.7781    9.2019 C   0  0  0  0  0  0  0  0  0  0  0  0
   14.4359   41.1614    8.4577 C   0  0  0  0  0  0  0  0  0  0  0  0
   13.6753   41.7272    7.4320 C   0  0  0  0  0  0  0  0  0  0  0  0
   14.2398   42.7071    6.6119 C   0  0  0  0  0  0  0  0  0  0  0  0
   16.2904   42.5616    7.8090 C   0  0  0  0  0  0  0  0  0  0  0  0
   15.7580   41.5825    8.6484 C   0  0  0  0  0  0  0  0  0  0  0  0
   13.8497   44.3260    4.6734 C   0  0  0  0  0  0  0  0  0  0  0  0
   15.4444   45.9223    3.9408 C   0  0  0  0  0  0  0  0  0  0  0  0
   14.5591   46.3534    2.9518 C   0  0  0  0  0  0  0  0  0  0  0  0
   12.9664   44.7598    3.6821 C   0  0  0  0  0  0  0  0  0  0  0  0
   13.4078   34.2142   10.2091 S   0  0  0  0  0  0  0  0  0  0  0  0
   15.3387   33.7239    8.7056 N   0  0  0  0  0  0  0  0  0  0  0  0
   14.0081   37.6977   10.0339 N   0  0  0  0  0  0  0  0  0  0  0  0
   15.5285   43.0980    6.8181 N   0  0  0  0  0  0  0  0  0  0  0  0
   13.4471   43.2794    5.5646 N   0  0  0  0  0  0  0  0  0  0  0  0
   15.0711   44.9186    4.7782 N   0  0  0  0  0  0  0  0  0  0  0  0
   13.3397   45.7626    2.8436 N   0  0  0  0  0  0  0  0  0  0  0  0
  1  2  1  0
  2 21  1  0
  3 20  1  0
  4 20  1  0
  5  3  1  0
  5 22  1  0
  6 22  1  0
  6  7  1  0
  7  8  1  0
  8  9  1  0
  9 10  1  0
  9 11  1  6
 10 22  1  0
 12 13  2  0
 13 24  1  0
 14 23  2  0
 15 11  2  0
 17 25  2  0
 18 26  2  0
 19 16  2  0
 24 16  1  0
  2  3  2  0
  4 21  2  0
 11 12  1  0
 13 23  1  0
 14 15  1  0
 16 25  1  0
 17 18  1  0
 19 26  1  0
M  END
>  <rmsd>  (170) 
0.248619586

$$$$
MolPort-039-117-155 CSC047896421 CSSS00047896421 MCULE-9383620367 PubChem-118783737
     RDKit          3D

 27 30  0  0  0  0  0  0  0  0999 V2000
   12.8225   40.4764    0.3434 C   0  0  0  0  0  0  0  0  0  0  0  0
   12.3087   41.2822    1.4820 C   0  0  0  0  0  0  0  0  0  0  0  0
   11.8558   42.8617    2.7569 C   0  0  0  0  0  0  0  0  0  0  0  0
   11.7392   44.2142    3.3808 C   0  0  2  0  0  0  0  0  0  0  0  0
   10.8424   45.1092    2.5218 C   0  0  0  0  0  0  0  0  0  0  0  0
   11.0263   46.5677    2.9296 C   0  0  0  0  0  0  0  0  0  0  0  0
   12.4716   47.0466    2.7264 C   0  0  0  0  0  0  0  0  0  0  0  0
   13.4983   45.9079    2.7089 C   0  0  0  0  0  0  0  0  0  0  0  0
   13.9186   44.3629    4.6417 C   0  0  0  0  0  0  0  0  0  0  0  0
   14.1908   42.7491    6.6207 C   0  0  0  0  0  0  0  0  0  0  0  0
   13.5831   41.7342    7.3677 C   0  0  0  0  0  0  0  0  0  0  0  0
   14.2487   41.1440    8.4470 C   0  0  0  0  0  0  0  0  0  0  0  0
   14.1781   39.5004   10.3070 C   0  0  0  0  0  0  0  0  0  0  0  0
   14.0379   40.3956   11.5297 C   0  0  0  0  0  0  0  0  0  0  0  0
   13.0784   39.6979   12.4695 C   0  0  0  0  0  0  0  0  0  0  0  0
   13.1434   38.2371   12.0956 C   0  0  0  0  0  0  0  0  0  0  0  0
   13.4175   38.2229   10.6092 C   0  0  0  0  0  0  0  0  0  0  0  0
   15.5425   41.5765    8.7787 C   0  0  0  0  0  0  0  0  0  0  0  0
   16.1570   42.5887    8.0380 C   0  0  0  0  0  0  0  0  0  0  0  0
   15.4835   43.1731    6.9626 C   0  0  0  0  0  0  0  0  0  0  0  0
   11.6220   40.7577    2.5140 N   0  0  0  0  0  0  0  0  0  0  0  0
   12.4825   42.6147    1.5895 N   0  0  0  0  0  0  0  0  0  0  0  0
   13.0680   44.8106    3.5752 N   0  0  0  0  0  0  0  0  0  0  0  0
   13.4683   43.3228    5.5232 N   0  0  0  0  0  0  0  0  0  0  0  0
   11.3591   41.7700    3.2826 O   0  0  0  0  0  0  0  0  0  0  0  0
   15.0559   44.8855    4.7970 O   0  0  0  0  0  0  0  0  0  0  0  0
   13.6054   40.1312    9.1665 O   0  0  0  0  0  0  0  0  0  0  0  0
  1  2  1  0
  2 22  1  0
  3 25  1  0
  4  3  1  6
  4  5  1  0
  4 23  1  0
  5  6  1  0
  6  7  1  0
  7  8  1  0
  8 23  1  0
  9 24  1  0
 11 12  2  0
 12 27  1  0
 13 27  1  0
 13 14  1  0
 14 15  1  0
 15 16  1  0
 16 17  1  0
 17 13  1  0
 18 19  2  0
 20 10  2  0
 21 25  1  0
 23  9  1  0
 24 10  1  0
  2 21  2  0
  3 22  2  0
  9 26  2  0
 10 11  1  0
 12 18  1  0
 19 20  1  0
M  END
>  <rmsd>  (171) 
0.248597309

$$$$
Molport-051-860-976
     RDKit          3D

 22 23  0  0  0  0  0  0  0  0999 V2000
   13.1493   45.8458    2.8980 C   0  0  0  0  0  0  0  0  0  0  0  0
   13.8595   44.3588    4.7252 C   0  0  0  0  0  0  0  0  0  0  0  0
   14.4184   42.7433    6.6064 C   0  0  0  0  0  0  0  0  0  0  0  0
   15.1355   41.5296    8.1649 C   0  0  0  0  0  0  0  0  0  0  0  0
   15.3171   40.5960    9.1810 C   0  0  0  0  0  0  0  0  0  0  0  0
   16.5679   40.5723    9.8269 C   0  0  0  0  0  0  0  0  0  0  0  0
   16.3123   40.3969   12.5437 C   0  0  0  0  0  0  0  0  0  0  0  0
   16.6202   39.6531   13.8312 C   0  0  0  0  0  0  0  0  0  0  0  0
   17.0816   41.7040   12.5909 C   0  0  0  0  0  0  0  0  0  0  0  0
   14.8130   40.7150   12.4550 C   0  0  0  0  0  0  0  0  0  0  0  0
   13.9227   39.5046   12.4259 C   0  0  0  0  0  0  0  0  0  0  0  0
   13.1062   39.2134   11.2151 C   0  0  0  0  0  0  0  0  0  0  0  0
   17.5943   41.4582    9.4244 C   0  0  0  0  0  0  0  0  0  0  0  0
   17.3756   42.3883    8.3915 C   0  0  0  0  0  0  0  0  0  0  0  0
   16.1211   42.3898    7.7879 C   0  0  0  0  0  0  0  0  0  0  0  0
   12.8936   44.7959    3.8187 O   0  0  0  0  0  0  0  0  0  0  0  0
   15.0015   44.8950    4.7483 O   0  0  0  0  0  0  0  0  0  0  0  0
   13.8271   38.7823   13.4047 O   0  0  0  0  0  0  0  0  0  0  0  0
   13.5336   43.2951    5.6255 N   0  0  0  0  0  0  0  0  0  0  0  0
   14.0349   41.7314    7.4271 N   0  0  0  0  0  0  0  0  0  0  0  0
   15.6933   43.1788    6.7930 N   0  0  0  0  0  0  0  0  0  0  0  0
   16.8830   39.3740   11.1277 S   0  0  0  0  0  0  0  0  0  0  0  0
  1 16  1  0
  2 16  1  0
  2 19  1  0
  4 20  1  0
  5  6  2  0
  6 22  1  0
  7 22  1  0
  7  8  1  0
  7  9  1  0
  7 10  1  0
 10 11  1  0
 12 11  1  0
 13 14  2  0
 15 21  1  0
 15  4  2  0
 19  3  1  0
 21  3  1  0
  2 17  2  0
  3 20  2  0
  4  5  1  0
  6 13  1  0
 11 18  2  0
 14 15  1  0
M  END
>  <rmsd>  (172) 
0.248585761

$$$$
Molport-046-956-332 MCULE-5763772112 MCULE-8712035988 PubChem-110095197
     RDKit          3D

 20 22  0  0  0  0  0  0  0  0999 V2000
   17.5555   43.1792    8.2136 C   0  0  0  0  0  0  0  0  0  0  0  0
   16.1898   42.6654    7.9329 C   0  0  0  0  0  0  0  0  0  0  0  0
   14.4181   41.1895    8.4569 C   0  0  0  0  0  0  0  0  0  0  0  0
   13.6611   41.7165    7.4107 C   0  0  0  0  0  0  0  0  0  0  0  0
   14.2117   42.7351    6.6333 C   0  0  0  0  0  0  0  0  0  0  0  0
   13.8536   44.3270    4.6651 C   0  0  0  0  0  0  0  0  0  0  0  0
   15.4651   45.9006    3.9347 C   0  0  0  0  0  0  0  0  0  0  0  0
   14.6037   46.3326    2.9281 C   0  0  0  0  0  0  0  0  0  0  0  0
   13.3541   45.7248    2.8223 C   0  0  0  0  0  0  0  0  0  0  0  0
   13.8484   40.0990    9.3018 C   0  0  2  0  0  0  0  0  0  0  0  0
   13.6984   40.5561   10.7532 C   0  0  0  0  0  0  0  0  0  0  0  0
   13.1729   39.4198   11.6346 C   0  0  0  0  0  0  0  0  0  0  0  0
   13.7231   38.0507   11.2149 C   0  0  0  0  0  0  0  0  0  0  0  0
   14.6905   38.8150    9.1769 C   0  0  0  0  0  0  0  0  0  0  0  0
   15.6670   41.6729    8.6987 N   0  0  0  0  0  0  0  0  0  0  0  0
   15.4646   43.1887    6.9102 N   0  0  0  0  0  0  0  0  0  0  0  0
   13.4424   43.2831    5.5563 N   0  0  0  0  0  0  0  0  0  0  0  0
   15.0779   44.9111    4.7811 N   0  0  0  0  0  0  0  0  0  0  0  0
   13.0029   44.7383    3.6878 N   0  0  0  0  0  0  0  0  0  0  0  0
   14.9750   38.1972   10.4760 N   0  0  0  0  0  0  0  0  0  0  0  0
  1  2  1  0
  2 16  2  0
  3 15  2  0
  4  5  2  0
  5 17  1  0
  6 19  2  0
  7 18  2  0
  8  9  2  0
 10  3  1  6
 10 11  1  0
 11 12  1  0
 12 13  1  0
 13 20  1  0
 14 20  1  0
 14 10  1  0
 17  6  1  0
  2 15  1  0
  3  4  1  0
  5 16  1  0
  6 18  1  0
  7  8  1  0
  9 19  1  0
M  END
>  <rmsd>  (173) 
0.248584554

$$$$
MolPort-051-458-278 CSSS09880971376 MCULE-9621950982 PubChem-162625871 PubChem-164183837
     RDKit          3D

 27 30  0  0  0  0  0  0  0  0999 V2000
   14.5408   38.3662   10.8946 F   0  0  0  0  0  0  0  0  0  0  0  0
   13.6273   40.0144   12.1303 F   0  0  0  0  0  0  0  0  0  0  0  0
   12.3060   38.6216   10.9566 F   0  0  0  0  0  0  0  0  0  0  0  0
   13.5167   39.2938   10.9551 C   0  0  0  0  0  0  0  0  0  0  0  0
   13.6149   40.2267    9.7832 C   0  0  0  0  0  0  0  0  0  0  0  0
   12.5501   40.3351    8.8514 C   0  0  0  0  0  0  0  0  0  0  0  0
   12.6358   41.2077    7.7509 C   0  0  0  0  0  0  0  0  0  0  0  0
   13.8047   41.9504    7.6244 C   0  0  0  0  0  0  0  0  0  0  0  0
   14.2274   42.8738    6.7049 C   0  0  0  0  0  0  0  0  0  0  0  0
   13.9401   44.2869    4.6151 C   0  0  0  0  0  0  0  0  0  0  0  0
   13.0706   44.6583    3.4794 C   0  0  0  0  0  0  0  0  0  0  0  0
   13.5715   45.1371    2.2384 C   0  0  0  0  0  0  0  0  0  0  0  0
   12.6658   45.5842    1.2635 C   0  0  0  0  0  0  0  0  0  0  0  0
   11.2896   45.5342    1.4864 C   0  0  0  0  0  0  0  0  0  0  0  0
   10.7977   45.0316    2.6892 C   0  0  0  0  0  0  0  0  0  0  0  0
   11.6829   44.6002    3.6775 C   0  0  0  0  0  0  0  0  0  0  0  0
   15.8572   44.1325    2.1467 C   0  0  0  0  0  0  0  0  0  0  0  0
   15.6367   46.0182    1.1665 C   0  0  0  0  0  0  0  0  0  0  0  0
   14.8361   41.8558    8.5129 C   0  0  0  0  0  0  0  0  0  0  0  0
   14.7822   41.0026    9.6110 C   0  0  0  0  0  0  0  0  0  0  0  0
   13.4847   43.3133    5.5631 N   0  0  0  0  0  0  0  0  0  0  0  0
   14.9712   45.1183    1.9130 N   0  0  0  0  0  0  0  0  0  0  0  0
   17.0424   44.4407    1.5885 N   0  0  0  0  0  0  0  0  0  0  0  0
   16.9057   45.6098    0.9807 N   0  0  0  0  0  0  0  0  0  0  0  0
   15.4652   43.3042    7.0437 N   0  0  0  0  0  0  0  0  0  0  0  0
   15.8404   42.6781    8.1570 N   0  0  0  0  0  0  0  0  0  0  0  0
   15.0495   44.8626    4.7798 O   0  0  0  0  0  0  0  0  0  0  0  0
  4  1  1  0
  4  2  1  0
  4  3  1  0
  4  5  1  0
  6  7  2  0
  8  9  1  0
  9 21  1  0
 10 11  1  0
 11 12  2  0
 12 22  1  0
 13 14  2  0
 15 16  2  0
 18 22  1  0
 19  8  2  0
 20  5  2  0
 21 10  1  0
 22 17  1  0
 23 24  1  0
 26 25  1  0
 26 19  1  0
  5  6  1  0
  7  8  1  0
  9 25  2  0
 10 27  2  0
 12 13  1  0
 14 15  1  0
 16 11  1  0
 17 23  2  0
 18 24  2  0
 19 20  1  0
M  END
>  <rmsd>  (174) 
0.248583227

$$$$
MolPort-001-550-202 1139843 CSC046137627 CSSS00046137627 LN01004191 MCULE-2079171214 PubChem-1312780 ZINC000001139843 ZINC01139843
     RDKit          3D

 29 31  0  0  0  0  0  0  0  0999 V2000
   15.3225   45.9501    8.4147 C   0  0  0  0  0  0  0  0  0  0  0  0
   14.8659   43.6546    7.6004 C   0  0  0  0  0  0  0  0  0  0  0  0
   15.5835   43.0854    8.6635 C   0  0  0  0  0  0  0  0  0  0  0  0
   15.6669   41.7001    8.8215 C   0  0  0  0  0  0  0  0  0  0  0  0
   16.1309   40.0073   10.6863 C   0  0  0  0  0  0  0  0  0  0  0  0
   14.7429   39.5762   10.9648 C   0  0  0  0  0  0  0  0  0  0  0  0
   14.4931   38.2749   11.4261 C   0  0  0  0  0  0  0  0  0  0  0  0
   13.1877   37.8603   11.7058 C   0  0  0  0  0  0  0  0  0  0  0  0
   12.1211   38.7461   11.5327 C   0  0  0  0  0  0  0  0  0  0  0  0
   12.3602   40.0473   11.0837 C   0  0  0  0  0  0  0  0  0  0  0  0
   13.6657   40.4610   10.8047 C   0  0  0  0  0  0  0  0  0  0  0  0
   15.0465   40.8547    7.8797 C   0  0  0  0  0  0  0  0  0  0  0  0
   14.5554   38.5578    7.0901 C   0  0  0  0  0  0  0  0  0  0  0  0
   14.3297   41.4240    6.8165 C   0  0  0  0  0  0  0  0  0  0  0  0
   14.2486   42.8093    6.6570 C   0  0  0  0  0  0  0  0  0  0  0  0
   13.8553   44.4422    4.7405 C   0  0  0  0  0  0  0  0  0  0  0  0
   12.8570   45.0449    3.8295 C   0  0  0  0  0  0  0  0  0  0  0  0
   13.1662   46.1449    3.0003 C   0  0  0  0  0  0  0  0  0  0  0  0
   12.1894   46.6831    2.1561 C   0  0  0  0  0  0  0  0  0  0  0  0
   10.9041   46.1387    2.1274 C   0  0  0  0  0  0  0  0  0  0  0  0
   10.5892   45.0520    2.9445 C   0  0  0  0  0  0  0  0  0  0  0  0
   11.5601   44.5098    3.7898 C   0  0  0  0  0  0  0  0  0  0  0  0
   14.7323   45.0436    7.4929 O   0  0  0  0  0  0  0  0  0  0  0  0
   17.0898   39.3510   11.1732 O   0  0  0  0  0  0  0  0  0  0  0  0
   15.1688   39.4653    7.9954 O   0  0  0  0  0  0  0  0  0  0  0  0
   15.0374   44.8806    4.7722 O   0  0  0  0  0  0  0  0  0  0  0  0
   16.4256   41.1876    9.9256 N   0  0  0  0  0  0  0  0  0  0  0  0
   13.4877   43.3211    5.5555 N   0  0  0  0  0  0  0  0  0  0  0  0
   14.4021   46.7037    3.0006 F   0  0  0  0  0  0  0  0  0  0  0  0
  1 23  1  0
  2 23  1  0
  3  4  2  0
  4 27  1  0
  5  6  1  0
  7  8  2  0
  9 10  2  0
 11  6  2  0
 12 25  1  0
 12 14  2  0
 13 25  1  0
 15 28  1  0
 15  2  2  0
 16 17  1  0
 18 29  1  0
 18 19  2  0
 20 21  2  0
 22 17  2  0
 27  5  1  0
 28 16  1  0
  2  3  1  0
  4 12  1  0
  5 24  2  0
  6  7  1  0
  8  9  1  0
 10 11  1  0
 14 15  1  0
 16 26  2  0
 17 18  1  0
 19 20  1  0
 21 22  1  0
M  END
>  <rmsd>  (175) 
0.248566017

$$$$
MolPort-002-117-240 1194452 CSSS00160388997 MCULE-4255255336 PubChem-1354541 ZINC000001194452
     RDKit          3D

 25 27  0  0  0  0  0  0  0  0999 V2000
   13.0260   39.4861   11.8206 C   0  0  0  0  0  0  0  0  0  0  0  0
   13.2982   38.8021   10.4935 C   0  0  0  0  0  0  0  0  0  0  0  0
   14.7437   40.4934    9.3845 C   0  0  0  0  0  0  0  0  0  0  0  0
   14.8887   41.4730    8.3972 C   0  0  0  0  0  0  0  0  0  0  0  0
   14.3582   42.7824    6.6637 C   0  0  0  0  0  0  0  0  0  0  0  0
   13.8756   44.3397    4.6873 C   0  0  0  0  0  0  0  0  0  0  0  0
   12.8990   44.7606    3.6673 C   0  0  0  0  0  0  0  0  0  0  0  0
   13.2216   45.7710    2.7502 C   0  0  0  0  0  0  0  0  0  0  0  0
   12.3004   46.1754    1.7799 C   0  0  0  0  0  0  0  0  0  0  0  0
   11.7865   47.6576   -0.1322 C   0  0  0  0  0  0  0  0  0  0  0  0
   11.0404   45.5599    1.7282 C   0  0  0  0  0  0  0  0  0  0  0  0
   10.7038   44.5474    2.6396 C   0  0  0  0  0  0  0  0  0  0  0  0
    8.4496   44.2549    1.6645 C   0  0  0  0  0  0  0  0  0  0  0  0
   11.6367   44.1547    3.6036 C   0  0  0  0  0  0  0  0  0  0  0  0
   16.0696   42.1931    8.2901 C   0  0  0  0  0  0  0  0  0  0  0  0
   17.1499   41.9814    9.1413 C   0  0  0  0  0  0  0  0  0  0  0  0
   17.0196   41.0005   10.1355 C   0  0  0  0  0  0  0  0  0  0  0  0
   15.8279   40.2614   10.2571 C   0  0  0  0  0  0  0  0  0  0  0  0
   13.5479   39.7706    9.4801 O   0  0  0  0  0  0  0  0  0  0  0  0
   15.0078   44.8926    4.7340 O   0  0  0  0  0  0  0  0  0  0  0  0
   12.6604   47.1858    0.8842 O   0  0  0  0  0  0  0  0  0  0  0  0
    9.4562   43.9184    2.6096 O   0  0  0  0  0  0  0  0  0  0  0  0
   13.9306   41.7988    7.4913 N   0  0  0  0  0  0  0  0  0  0  0  0
   13.5292   43.3042    5.6181 N   0  0  0  0  0  0  0  0  0  0  0  0
   15.9399   43.2851    7.0241 S   0  0  0  0  0  0  0  0  0  0  0  0
  1  2  1  0
  2 19  1  0
  3 19  1  0
  4 23  1  0
  5 24  1  0
  5 25  1  0
  6  7  1  0
  8  9  2  0
  9 21  1  0
 10 21  1  0
 11 12  2  0
 12 22  1  0
 13 22  1  0
 14  7  2  0
 15 25  1  0
 15  4  2  0
 16 17  2  0
 18  3  2  0
 24  6  1  0
  3  4  1  0
  5 23  2  0
  6 20  2  0
  7  8  1  0
  9 11  1  0
 12 14  1  0
 15 16  1  0
 17 18  1  0
M  END
>  <rmsd>  (176) 
0.248558402

$$$$
MolPort-039-106-887 CSSS00159907408 MCULE-2942752432 PubChem-118767861
     RDKit          3D

 26 29  0  0  0  0  0  0  0  0999 V2000
   12.2312   46.2655    1.8406 C   0  0  0  0  0  0  0  0  0  0  0  0
   13.4476   45.8280    2.6338 C   0  0  2  0  0  0  0  0  0  0  0  0
   13.9199   44.3613    4.6473 C   0  0  0  0  0  0  0  0  0  0  0  0
   14.1920   42.7420    6.6165 C   0  0  0  0  0  0  0  0  0  0  0  0
   13.5805   41.7343    7.3701 C   0  0  0  0  0  0  0  0  0  0  0  0
   14.2486   41.1397    8.4456 C   0  0  0  0  0  0  0  0  0  0  0  0
   14.1774   39.4993   10.3086 C   0  0  0  0  0  0  0  0  0  0  0  0
   13.4135   38.2242   10.6199 C   0  0  0  0  0  0  0  0  0  0  0  0
   12.7116   38.4506   11.9417 C   0  0  0  0  0  0  0  0  0  0  0  0
   13.5078   39.5270   12.6385 C   0  0  0  0  0  0  0  0  0  0  0  0
   14.0478   40.3983   11.5280 C   0  0  0  0  0  0  0  0  0  0  0  0
   15.5488   41.5606    8.7667 C   0  0  0  0  0  0  0  0  0  0  0  0
   16.1674   42.5655    8.0196 C   0  0  0  0  0  0  0  0  0  0  0  0
   15.4913   43.1542    6.9482 C   0  0  0  0  0  0  0  0  0  0  0  0
   14.5057   45.3101    1.7112 C   0  0  0  0  0  0  0  0  0  0  0  0
   14.3736   44.1784    0.8865 C   0  0  0  0  0  0  0  0  0  0  0  0
   17.3663   43.6631   -0.9026 C   0  0  0  0  0  0  0  0  0  0  0  0
   16.3153   45.0932    0.6975 C   0  0  0  0  0  0  0  0  0  0  0  0
   13.0600   44.8040    3.5952 N   0  0  0  0  0  0  0  0  0  0  0  0
   13.4672   43.3208    5.5225 N   0  0  0  0  0  0  0  0  0  0  0  0
   15.5599   44.1126    0.2796 N   0  0  0  0  0  0  0  0  0  0  0  0
   16.0883   43.2851   -0.6088 N   0  0  0  0  0  0  0  0  0  0  0  0
   15.7346   45.8958    1.6003 N   0  0  0  0  0  0  0  0  0  0  0  0
   15.0563   44.8867    4.7984 O   0  0  0  0  0  0  0  0  0  0  0  0
   13.6015   40.1341    9.1719 O   0  0  0  0  0  0  0  0  0  0  0  0
   17.8260   45.0688   -0.0162 S   0  0  0  0  0  0  0  0  0  0  0  0
  2  1  1  6
  2 19  1  0
  2 15  1  0
  3 20  1  0
  5  6  2  0
  6 25  1  0
  7 25  1  0
  7  8  1  0
  8  9  1  0
  9 10  1  0
 10 11  1  0
 11  7  1  0
 12 13  2  0
 14  4  2  0
 15 23  1  0
 16 21  1  0
 17 26  1  0
 18 26  1  0
 18 21  1  0
 19  3  1  0
 20  4  1  0
 21 22  1  0
  3 24  2  0
  4  5  1  0
  6 12  1  0
 13 14  1  0
 15 16  2  0
 17 22  2  0
 18 23  2  0
M  END
>  <rmsd>  (177) 
0.248533726

$$$$
MolPort-016-720-965 19662125 MCULE-8541281991 PubChem-46977982 ZINC000019662125
     RDKit          3D

 26 29  0  0  0  0  0  0  0  0999 V2000
   13.0258   39.4859   11.8208 C   0  0  0  0  0  0  0  0  0  0  0  0
   13.2976   38.8020   10.4934 C   0  0  0  0  0  0  0  0  0  0  0  0
   14.7433   40.4930    9.3844 C   0  0  0  0  0  0  0  0  0  0  0  0
   15.8275   40.2607   10.2569 C   0  0  0  0  0  0  0  0  0  0  0  0
   17.0194   40.9996   10.1351 C   0  0  0  0  0  0  0  0  0  0  0  0
   17.1498   41.9806    9.1411 C   0  0  0  0  0  0  0  0  0  0  0  0
   16.0693   42.1926    8.2901 C   0  0  0  0  0  0  0  0  0  0  0  0
   14.3579   42.7824    6.6640 C   0  0  0  0  0  0  0  0  0  0  0  0
   13.8753   44.3399    4.6878 C   0  0  0  0  0  0  0  0  0  0  0  0
   12.8988   44.7612    3.6678 C   0  0  0  0  0  0  0  0  0  0  0  0
   13.2210   45.7716    2.7506 C   0  0  0  0  0  0  0  0  0  0  0  0
   12.2943   46.1706    1.7835 C   0  0  0  0  0  0  0  0  0  0  0  0
   11.0317   45.5653    1.7192 C   0  0  0  0  0  0  0  0  0  0  0  0
    8.8401   45.5019    0.5309 C   0  0  0  0  0  0  0  0  0  0  0  0
   10.7092   44.5547    2.6367 C   0  0  0  0  0  0  0  0  0  0  0  0
   11.6361   44.1560    3.6034 C   0  0  0  0  0  0  0  0  0  0  0  0
   14.8884   41.4728    8.3973 C   0  0  0  0  0  0  0  0  0  0  0  0
   13.5474   39.7704    9.4802 O   0  0  0  0  0  0  0  0  0  0  0  0
   15.0076   44.8927    4.7345 O   0  0  0  0  0  0  0  0  0  0  0  0
   15.9397   43.2847    7.0241 S   0  0  0  0  0  0  0  0  0  0  0  0
   13.5288   43.3045    5.6185 N   0  0  0  0  0  0  0  0  0  0  0  0
   10.0836   45.9775    0.7256 N   0  0  0  0  0  0  0  0  0  0  0  0
    8.2862   46.1615   -0.5064 N   0  0  0  0  0  0  0  0  0  0  0  0
    9.2018   47.0252   -0.9233 N   0  0  0  0  0  0  0  0  0  0  0  0
   10.2902   46.9163   -0.1800 N   0  0  0  0  0  0  0  0  0  0  0  0
   13.9302   41.7988    7.4915 N   0  0  0  0  0  0  0  0  0  0  0  0
  1  2  1  0
  2 18  1  0
  3 18  1  0
  4  5  2  0
  6  7  2  0
  7 20  1  0
  8 20  1  0
  8 21  1  0
  9 10  1  0
 11 12  2  0
 13 22  1  0
 13 15  2  0
 16 10  2  0
 17 26  1  0
 17  3  2  0
 21  9  1  0
 22 14  1  0
 22 25  1  0
 23 24  1  0
  3  4  1  0
  5  6  1  0
  8 26  2  0
  9 19  2  0
 10 11  1  0
 12 13  1  0
 14 23  2  0
 15 16  1  0
 17  7  1  0
 24 25  2  0
M  END
>  <rmsd>  (178) 
0.248526871

$$$$
MolPort-002-566-700 ChemDiv-4190-0054 LN00531081 PubChem-1920789
     RDKit          3D

 25 27  0  0  0  0  0  0  0  0999 V2000
   13.0255   39.4852   11.8205 C   0  0  0  0  0  0  0  0  0  0  0  0
   13.2979   38.8014   10.4933 C   0  0  0  0  0  0  0  0  0  0  0  0
   14.7432   40.4928    9.3845 C   0  0  0  0  0  0  0  0  0  0  0  0
   14.8882   41.4726    8.3974 C   0  0  0  0  0  0  0  0  0  0  0  0
   14.3577   42.7820    6.6639 C   0  0  0  0  0  0  0  0  0  0  0  0
   13.8751   44.3395    4.6877 C   0  0  0  0  0  0  0  0  0  0  0  0
   12.8985   44.7605    3.6675 C   0  0  0  0  0  0  0  0  0  0  0  0
   11.6359   44.1547    3.6027 C   0  0  0  0  0  0  0  0  0  0  0  0
   10.7084   44.5531    2.6359 C   0  0  0  0  0  0  0  0  0  0  0  0
   11.0295   45.5615    1.7224 C   0  0  0  0  0  0  0  0  0  0  0  0
   10.2917   46.9802   -0.1781 C   0  0  0  0  0  0  0  0  0  0  0  0
   10.0846   48.3289    0.4854 C   0  0  0  0  0  0  0  0  0  0  0  0
    9.3066   46.8332   -1.3182 C   0  0  0  0  0  0  0  0  0  0  0  0
   12.2936   46.1691    1.7834 C   0  0  0  0  0  0  0  0  0  0  0  0
   13.2207   45.7708    2.7501 C   0  0  0  0  0  0  0  0  0  0  0  0
   16.0689   42.1928    8.2904 C   0  0  0  0  0  0  0  0  0  0  0  0
   17.1492   41.9812    9.1417 C   0  0  0  0  0  0  0  0  0  0  0  0
   17.0190   41.0001   10.1358 C   0  0  0  0  0  0  0  0  0  0  0  0
   15.8273   40.2609   10.2573 C   0  0  0  0  0  0  0  0  0  0  0  0
   13.5474   39.7699    9.4801 O   0  0  0  0  0  0  0  0  0  0  0  0
   15.0071   44.8925    4.7345 O   0  0  0  0  0  0  0  0  0  0  0  0
   10.0798   45.9354    0.7652 O   0  0  0  0  0  0  0  0  0  0  0  0
   13.9301   41.7984    7.4914 N   0  0  0  0  0  0  0  0  0  0  0  0
   13.5287   43.3039    5.6183 N   0  0  0  0  0  0  0  0  0  0  0  0
   15.9392   43.2849    7.0244 S   0  0  0  0  0  0  0  0  0  0  0  0
  1  2  1  0
  2 20  1  0
  3 20  1  0
  4 23  1  0
  5 24  1  0
  5 25  1  0
  6  7  1  0
  8  9  2  0
 10 22  1  0
 10 14  2  0
 11 22  1  0
 11 12  1  0
 11 13  1  0
 15  7  2  0
 16 25  1  0
 16  4  2  0
 17 18  2  0
 19  3  2  0
 24  6  1  0
  3  4  1  0
  5 23  2  0
  6 21  2  0
  7  8  1  0
  9 10  1  0
 14 15  1  0
 16 17  1  0
 18 19  1  0
M  END
>  <rmsd>  (179) 
0.248526812

$$$$
MolPort-047-071-752 PubChem-132766475
     RDKit          3D

 31 34  0  0  0  0  0  0  0  0999 V2000
   16.8064   46.5200    4.0748 C   0  0  0  0  0  0  0  0  0  0  0  0
   15.4604   45.9074    3.9292 C   0  0  0  0  0  0  0  0  0  0  0  0
   14.5961   46.3517    2.9268 C   0  0  0  0  0  0  0  0  0  0  0  0
   13.3359   45.7643    2.8057 C   0  0  0  0  0  0  0  0  0  0  0  0
   12.9561   44.7460    3.6819 C   0  0  0  0  0  0  0  0  0  0  0  0
   13.8462   44.3256    4.6738 C   0  0  0  0  0  0  0  0  0  0  0  0
   14.2343   42.7337    6.6349 C   0  0  0  0  0  0  0  0  0  0  0  0
   13.6978   41.7130    7.4193 C   0  0  0  0  0  0  0  0  0  0  0  0
   14.4710   41.1878    8.4545 C   0  0  0  0  0  0  0  0  0  0  0  0
   16.2307   42.6697    7.9065 C   0  0  0  0  0  0  0  0  0  0  0  0
   17.5985   43.1875    8.1682 C   0  0  0  0  0  0  0  0  0  0  0  0
   13.9161   40.0944    9.3055 C   0  0  2  0  0  0  0  0  0  0  0  0
   13.8113   40.5419   10.7670 C   0  0  0  0  0  0  0  0  0  0  0  0
   13.4013   39.4120   11.7250 C   0  0  0  0  0  0  0  0  0  0  0  0
   13.2021   38.0702   11.0206 C   0  0  0  0  0  0  0  0  0  0  0  0
   14.7645   38.8268    9.1815 C   0  0  0  0  0  0  0  0  0  0  0  0
   15.1265   36.6010   10.2698 C   0  0  0  0  0  0  0  0  0  0  0  0
   14.6152   35.3573   10.8760 C   0  0  0  0  0  0  0  0  0  0  0  0
   13.3380   35.1512   11.1808 C   0  0  0  0  0  0  0  0  0  0  0  0
   12.8798   33.8966   11.7839 C   0  0  0  0  0  0  0  0  0  0  0  0
   13.6477   32.7919   12.1142 C   0  0  0  0  0  0  0  0  0  0  0  0
   10.4375   31.6513   13.1434 C   0  0  0  0  0  0  0  0  0  0  0  0
   11.5777   33.6062   12.1293 C   0  0  0  0  0  0  0  0  0  0  0  0
   13.4486   43.2801    5.5689 N   0  0  0  0  0  0  0  0  0  0  0  0
   15.7217   41.6751    8.6790 N   0  0  0  0  0  0  0  0  0  0  0  0
   15.4896   43.1912    6.8945 N   0  0  0  0  0  0  0  0  0  0  0  0
   14.3341   37.7970   10.1335 N   0  0  0  0  0  0  0  0  0  0  0  0
   12.8222   31.8680   12.6427 N   0  0  0  0  0  0  0  0  0  0  0  0
   11.5972   32.3661   12.6448 N   0  0  0  0  0  0  0  0  0  0  0  0
   15.0715   44.9140    4.7731 N   0  0  0  0  0  0  0  0  0  0  0  0
   16.3133   36.5953    9.8466 O   0  0  0  0  0  0  0  0  0  0  0  0
  1  2  1  0
  2 30  2  0
  3  4  2  0
  5  6  2  0
  6 24  1  0
  7 26  2  0
  8  9  2  0
 10 25  2  0
 11 10  1  0
 12  9  1  6
 12 13  1  0
 13 14  1  0
 14 15  1  0
 15 27  1  0
 16 27  1  0
 16 12  1  0
 17 18  1  0
 19 20  1  0
 20 21  1  0
 22 29  1  0
 24  7  1  0
 27 17  1  0
 29 28  1  0
 29 23  1  0
  2  3  1  0
  4  5  1  0
  6 30  1  0
  7  8  1  0
  9 25  1  0
 10 26  1  0
 17 31  2  0
 18 19  2  0
 21 28  2  0
 23 20  2  0
M  END
>  <rmsd>  (180) 
0.248519942

$$$$
MolPort-039-126-987 CSSS03436932277 MCULE-3431456731 PubChem-119099732
     RDKit          3D

 23 25  0  0  0  0  0  0  0  0999 V2000
   14.7000   45.4401    2.2210 F   0  0  0  0  0  0  0  0  0  0  0  0
   13.3864   45.5238    2.5507 C   0  0  0  0  0  0  0  0  0  0  0  0
   12.9137   45.0309    3.7864 C   0  0  0  0  0  0  0  0  0  0  0  0
   13.8702   44.4273    4.7446 C   0  0  0  0  0  0  0  0  0  0  0  0
   14.3039   42.6394    6.5068 C   0  0  0  0  0  0  0  0  0  0  0  0
   13.9135   41.5602    7.2660 C   0  0  0  0  0  0  0  0  0  0  0  0
   15.0054   40.1913    9.0262 C   0  0  0  0  0  0  0  0  0  0  0  0
   14.7612   40.7603   10.4255 C   0  0  2  0  0  0  0  0  0  0  0  0
   15.0336   39.7310   11.5298 C   0  0  0  0  0  0  0  0  0  0  0  0
   13.9091   38.7028   11.5964 C   0  0  0  0  0  0  0  0  0  0  0  0
   12.5645   39.4119   11.6502 C   0  0  0  0  0  0  0  0  0  0  0  0
   12.4783   40.3789   10.4739 C   0  0  0  0  0  0  0  0  0  0  0  0
   15.6037   42.9561    6.8576 C   0  0  0  0  0  0  0  0  0  0  0  0
   11.5296   45.1301    4.0734 C   0  0  0  0  0  0  0  0  0  0  0  0
   10.6605   45.6969    3.1364 C   0  0  0  0  0  0  0  0  0  0  0  0
   11.1414   46.1672    1.9156 C   0  0  0  0  0  0  0  0  0  0  0  0
   12.5015   46.0814    1.6250 C   0  0  0  0  0  0  0  0  0  0  0  0
   15.0407   44.8887    4.8310 O   0  0  0  0  0  0  0  0  0  0  0  0
   13.4859   41.3653   10.5645 O   0  0  0  0  0  0  0  0  0  0  0  0
   13.4795   43.3020    5.5424 N   0  0  0  0  0  0  0  0  0  0  0  0
   14.9724   41.2547    8.0361 N   0  0  0  0  0  0  0  0  0  0  0  0
   15.9826   42.0793    7.8078 N   0  0  0  0  0  0  0  0  0  0  0  0
   10.8329   44.6361    5.6112 Cl  0  0  0  0  0  0  0  0  0  0  0  0
  2  1  1  0
  3  4  1  0
  3 14  2  0
  4 20  1  0
  6 21  1  0
  7 21  1  0
  8  7  1  6
  8  9  1  0
  8 19  1  0
  9 10  1  0
 10 11  1  0
 11 12  1  0
 12 19  1  0
 13  5  1  0
 14 23  1  0
 15 16  2  0
 17  2  2  0
 20  5  1  0
 21 22  1  0
  2  3  1  0
  4 18  2  0
  5  6  2  0
 13 22  2  0
 14 15  1  0
 16 17  1  0
M  END
>  <rmsd>  (181) 
0.248502389

$$$$
Molport-020-292-986 MCULE-4586714194 PubChem-110265453
     RDKit          3D

 25 27  0  0  0  0  0  0  0  0999 V2000
   12.3510   46.1842    1.8110 C   0  0  0  0  0  0  0  0  0  0  0  0
   13.3162   45.7478    2.8531 C   0  0  0  0  0  0  0  0  0  0  0  0
   14.5630   46.3627    2.9496 C   0  0  0  0  0  0  0  0  0  0  0  0
   15.4400   45.9254    3.9402 C   0  0  0  0  0  0  0  0  0  0  0  0
   13.8495   44.3316    4.6731 C   0  0  0  0  0  0  0  0  0  0  0  0
   14.2272   42.6795    6.6091 C   0  0  0  0  0  0  0  0  0  0  0  0
   15.5609   43.0412    6.8417 C   0  0  0  0  0  0  0  0  0  0  0  0
   16.2732   42.4250    7.8710 C   0  0  0  0  0  0  0  0  0  0  0  0
   15.6545   41.4552    8.6593 C   0  0  0  0  0  0  0  0  0  0  0  0
   14.3211   41.1107    8.4013 C   0  0  0  0  0  0  0  0  0  0  0  0
   13.6151   40.0843    9.2289 C   0  0  2  0  0  0  0  0  0  0  0  0
   13.4401   40.5753   10.6705 C   0  0  0  0  0  0  0  0  0  0  0  0
   13.0493   39.4237   11.5955 C   0  0  0  0  0  0  0  0  0  0  0  0
   13.9798   38.2084   11.4429 C   0  0  0  0  0  0  0  0  0  0  0  0
   14.3196   38.7201    9.1490 C   0  0  0  0  0  0  0  0  0  0  0  0
   15.6696   37.1310   10.2295 C   0  0  0  0  0  0  0  0  0  0  0  0
   17.1177   37.3456    9.8170 C   0  0  0  0  0  0  0  0  0  0  0  0
   17.7149   36.0233    9.3885 C   0  0  0  0  0  0  0  0  0  0  0  0
   17.9173   37.8951   10.9828 C   0  0  0  0  0  0  0  0  0  0  0  0
   16.7800   46.5532    4.0772 C   0  0  0  0  0  0  0  0  0  0  0  0
   15.0709   44.9234    4.7796 N   0  0  0  0  0  0  0  0  0  0  0  0
   12.9829   44.7497    3.7124 N   0  0  0  0  0  0  0  0  0  0  0  0
   13.4506   43.2799    5.5626 N   0  0  0  0  0  0  0  0  0  0  0  0
   13.6485   41.7277    7.3917 N   0  0  0  0  0  0  0  0  0  0  0  0
   14.9977   38.4083   10.4077 N   0  0  0  0  0  0  0  0  0  0  0  0
  1  2  1  0
  2 22  2  0
  3  4  2  0
  5 21  2  0
  5 23  1  0
  6 24  2  0
  7  8  2  0
  9 10  2  0
 11 10  1  6
 11 12  1  0
 12 13  1  0
 13 14  1  0
 14 25  1  0
 15 25  1  0
 15 11  1  0
 16 25  1  0
 16 17  1  0
 17 18  1  0
 17 19  1  0
 20  4  1  0
 23  6  1  0
  2  3  1  0
  4 21  1  0
  5 22  1  0
  6  7  1  0
  8  9  1  0
 10 24  1  0
M  END
>  <rmsd>  (182) 
0.248465985

$$$$
MolPort-004-886-863 11917139 CSSS00160882810 ChemDiv-D337-0195 LN01984288 MCULE-1689293103 PubChem-16455803 ZINC000011917139 ZINC11917139
     RDKit          3D

 24 26  0  0  0  0  0  0  0  0999 V2000
   13.2096   38.7742   11.0219 C   0  0  0  0  0  0  0  0  0  0  0  0
   13.4995   39.9747   11.9016 C   0  0  0  0  0  0  0  0  0  0  0  0
   13.8797   41.1775   11.0542 C   0  0  0  0  0  0  0  0  0  0  0  0
   15.3798   41.2192   10.7985 C   0  0  0  0  0  0  0  0  0  0  0  0
   15.3640   41.2975    8.1755 C   0  0  0  0  0  0  0  0  0  0  0  0
   14.3295   42.6541    6.5045 C   0  0  0  0  0  0  0  0  0  0  0  0
   13.8719   44.4131    4.7308 C   0  0  0  0  0  0  0  0  0  0  0  0
   12.9046   44.9890    3.7903 C   0  0  0  0  0  0  0  0  0  0  0  0
   11.9298   46.1859    2.2917 C   0  0  0  0  0  0  0  0  0  0  0  0
   13.1457   46.0566    2.9421 C   0  0  0  0  0  0  0  0  0  0  0  0
   11.6005   47.1798    1.2585 C   0  0  0  0  0  0  0  0  0  0  0  0
   10.3224   47.1938    0.6839 C   0  0  0  0  0  0  0  0  0  0  0  0
   10.0008   48.1350   -0.2988 C   0  0  0  0  0  0  0  0  0  0  0  0
   10.9560   49.0677   -0.7125 C   0  0  0  0  0  0  0  0  0  0  0  0
   12.2327   49.0597   -0.1440 C   0  0  0  0  0  0  0  0  0  0  0  0
   12.5544   48.1187    0.8387 C   0  0  0  0  0  0  0  0  0  0  0  0
   15.8526   40.1176    9.4275 S   0  0  0  0  0  0  0  0  0  0  0  0
   13.8426   41.3532    7.4538 S   0  0  0  0  0  0  0  0  0  0  0  0
   16.1876   42.2472    7.6816 N   0  0  0  0  0  0  0  0  0  0  0  0
   15.6113   43.0054    6.7509 N   0  0  0  0  0  0  0  0  0  0  0  0
   13.4843   43.3047    5.5511 N   0  0  0  0  0  0  0  0  0  0  0  0
   11.6459   44.5355    3.6422 N   0  0  0  0  0  0  0  0  0  0  0  0
   15.0336   44.8969    4.8091 O   0  0  0  0  0  0  0  0  0  0  0  0
   11.0909   45.2786    2.7339 O   0  0  0  0  0  0  0  0  0  0  0  0
  1  2  1  0
  2  3  1  0
  3  4  1  0
  4 17  1  0
  5 17  1  0
  5 18  1  0
  6 21  1  0
  6 18  1  0
  7  8  1  0
  9 24  1  0
  9 11  1  0
 10  8  1  0
 12 13  2  0
 14 15  2  0
 16 11  2  0
 19 20  1  0
 21  7  1  0
 22 24  1  0
  5 19  2  0
  6 20  2  0
  7 23  2  0
  8 22  2  0
  9 10  2  0
 11 12  1  0
 13 14  1  0
 15 16  1  0
M  END
>  <rmsd>  (183) 
0.248462021

$$$$
Molport-020-280-055 MCULE-5859070276 PubChem-110256434
     RDKit          3D

 27 29  0  0  0  0  0  0  0  0999 V2000
   16.8052   46.5195    4.0731 C   0  0  0  0  0  0  0  0  0  0  0  0
   15.4590   45.9070    3.9287 C   0  0  0  0  0  0  0  0  0  0  0  0
   13.8454   44.3251    4.6745 C   0  0  0  0  0  0  0  0  0  0  0  0
   12.9545   44.7458    3.6835 C   0  0  0  0  0  0  0  0  0  0  0  0
   13.3334   45.7643    2.8072 C   0  0  0  0  0  0  0  0  0  0  0  0
   14.5936   46.3516    2.9273 C   0  0  0  0  0  0  0  0  0  0  0  0
   14.2352   42.7333    6.6353 C   0  0  0  0  0  0  0  0  0  0  0  0
   16.2316   42.6709    7.9067 C   0  0  0  0  0  0  0  0  0  0  0  0
   14.4734   41.1874    8.4547 C   0  0  0  0  0  0  0  0  0  0  0  0
   13.6998   41.7119    7.4195 C   0  0  0  0  0  0  0  0  0  0  0  0
   13.9197   40.0930    9.3052 C   0  0  2  0  0  0  0  0  0  0  0  0
   13.8201   40.5375   10.7680 C   0  0  0  0  0  0  0  0  0  0  0  0
   13.3718   39.4150   11.7185 C   0  0  0  0  0  0  0  0  0  0  0  0
   13.2073   38.0636   11.0221 C   0  0  0  0  0  0  0  0  0  0  0  0
   14.7687   38.8261    9.1789 C   0  0  0  0  0  0  0  0  0  0  0  0
   15.1052   36.5909   10.2701 C   0  0  0  0  0  0  0  0  0  0  0  0
   14.7005   35.5266   11.2405 C   0  0  0  0  0  0  0  0  0  0  0  0
   13.6625   34.6045   10.6228 C   0  0  0  0  0  0  0  0  0  0  0  0
   13.1819   33.1475    9.0378 C   0  0  0  0  0  0  0  0  0  0  0  0
   17.5991   43.1898    8.1682 C   0  0  0  0  0  0  0  0  0  0  0  0
   15.0710   44.9134    4.7726 N   0  0  0  0  0  0  0  0  0  0  0  0
   13.4487   43.2793    5.5696 N   0  0  0  0  0  0  0  0  0  0  0  0
   15.4899   43.1919    6.8949 N   0  0  0  0  0  0  0  0  0  0  0  0
   15.7237   41.6757    8.6791 N   0  0  0  0  0  0  0  0  0  0  0  0
   14.3530   37.8081   10.1487 N   0  0  0  0  0  0  0  0  0  0  0  0
   16.1100   36.3915    9.5357 O   0  0  0  0  0  0  0  0  0  0  0  0
   14.2506   33.8149    9.6339 O   0  0  0  0  0  0  0  0  0  0  0  0
  1  2  1  0
  3 21  2  0
  3 22  1  0
  4  5  2  0
  6  2  2  0
  8 23  2  0
  9 24  2  0
 10  7  2  0
 11  9  1  6
 11 12  1  0
 12 13  1  0
 13 14  1  0
 14 25  1  0
 15 25  1  0
 15 11  1  0
 17 16  1  0
 17 18  1  0
 18 27  1  0
 19 27  1  0
 20  8  1  0
 22  7  1  0
 25 16  1  0
  2 21  1  0
  3  4  1  0
  5  6  1  0
  7 23  1  0
  8 24  1  0
  9 10  1  0
 16 26  2  0
M  END
>  <rmsd>  (184) 
0.248445794

$$$$
MolPort-046-949-846 MCULE-4469830685 PubChem-46951958
     RDKit          3D

 28 31  0  0  0  0  0  0  0  0999 V2000
   13.0268   39.4855   11.8222 C   0  0  0  0  0  0  0  0  0  0  0  0
   13.2970   38.8013   10.4947 C   0  0  0  0  0  0  0  0  0  0  0  0
   14.7434   40.4909    9.3845 C   0  0  0  0  0  0  0  0  0  0  0  0
   14.8887   41.4704    8.3972 C   0  0  0  0  0  0  0  0  0  0  0  0
   16.0703   42.1891    8.2891 C   0  0  0  0  0  0  0  0  0  0  0  0
   17.1513   41.9760    9.1392 C   0  0  0  0  0  0  0  0  0  0  0  0
   17.0207   40.9951   10.1334 C   0  0  0  0  0  0  0  0  0  0  0  0
   15.8281   40.2575   10.2561 C   0  0  0  0  0  0  0  0  0  0  0  0
   14.3583   42.7806    6.6643 C   0  0  0  0  0  0  0  0  0  0  0  0
   13.8773   44.3381    4.6906 C   0  0  0  0  0  0  0  0  0  0  0  0
   12.8968   44.7521    3.6771 C   0  0  0  0  0  0  0  0  0  0  0  0
   11.8838   45.6900    1.9976 C   0  0  0  0  0  0  0  0  0  0  0  0
   13.0564   45.7161    2.7041 C   0  0  0  0  0  0  0  0  0  0  0  0
   14.2462   46.5437    2.3317 C   0  0  0  0  0  0  0  0  0  0  0  0
   13.8181   47.6994    1.4000 C   0  0  2  0  0  0  0  0  0  0  0  0
   12.8749   47.1929    0.2843 C   0  0  0  0  0  0  0  0  0  0  0  0
   11.5752   46.6167    0.8654 C   0  0  0  0  0  0  0  0  0  0  0  0
   15.0236   48.4846    0.8458 C   0  0  0  0  0  0  0  0  0  0  0  0
   15.8581   49.0374    1.9882 C   0  0  0  0  0  0  0  0  0  0  0  0
   14.5435   49.6633    0.0172 C   0  0  0  0  0  0  0  0  0  0  0  0
   15.9069   47.6028   -0.0235 C   0  0  0  0  0  0  0  0  0  0  0  0
   13.5468   39.7694    9.4813 O   0  0  0  0  0  0  0  0  0  0  0  0
   15.0076   44.8931    4.7349 O   0  0  0  0  0  0  0  0  0  0  0  0
   15.9409   43.2813    7.0232 S   0  0  0  0  0  0  0  0  0  0  0  0
   13.9302   41.7974    7.4921 N   0  0  0  0  0  0  0  0  0  0  0  0
   13.5292   43.3035    5.6193 N   0  0  0  0  0  0  0  0  0  0  0  0
   11.6626   44.2150    3.5597 N   0  0  0  0  0  0  0  0  0  0  0  0
   11.0401   44.7935    2.5393 N   0  0  0  0  0  0  0  0  0  0  0  0
  1  2  1  0
  2 22  1  0
  3 22  1  0
  4  5  2  0
  4 25  1  0
  5 24  1  0
  6  7  2  0
  8  3  2  0
  9 24  1  0
  9 26  1  0
 10 11  1  0
 13 11  1  0
 14 13  1  0
 14 15  1  0
 15 16  1  0
 15 18  1  6
 16 17  1  0
 17 12  1  0
 18 19  1  0
 18 20  1  0
 18 21  1  0
 26 10  1  0
 28 27  1  0
 28 12  1  0
  3  4  1  0
  5  6  1  0
  7  8  1  0
  9 25  2  0
 10 23  2  0
 11 27  2  0
 12 13  2  0
M  END
>  <rmsd>  (185) 
0.248429522

$$$$
MolPort-020-292-996 MCULE-1986705594 PubChem-110265463
     RDKit          3D

 27 30  0  0  0  0  0  0  0  0999 V2000
   12.9001   39.3441   11.4595 C   0  0  0  0  0  0  0  0  0  0  0  0
   13.5710   40.4750   10.6972 C   0  0  0  0  0  0  0  0  0  0  0  0
   13.7294   40.0752    9.2360 C   0  0  2  0  0  0  0  0  0  0  0  0
   14.5189   38.7640    9.1271 C   0  0  0  0  0  0  0  0  0  0  0  0
   13.7164   38.0567   11.3048 C   0  0  0  0  0  0  0  0  0  0  0  0
   12.6222   37.2968    9.3105 C   0  0  0  0  0  0  0  0  0  0  0  0
   12.8335   36.2508    8.2281 C   0  0  0  0  0  0  0  0  0  0  0  0
   11.5360   35.8917    7.5888 C   0  0  0  0  0  0  0  0  0  0  0  0
   11.3182   36.2059    6.2432 C   0  0  0  0  0  0  0  0  0  0  0  0
   10.1102   35.8610    5.6293 C   0  0  0  0  0  0  0  0  0  0  0  0
    9.1194   35.1969    6.3591 C   0  0  0  0  0  0  0  0  0  0  0  0
    9.3370   34.8757    7.7025 C   0  0  0  0  0  0  0  0  0  0  0  0
   10.5447   35.2204    8.3167 C   0  0  0  0  0  0  0  0  0  0  0  0
   14.3853   41.1633    8.4473 C   0  0  0  0  0  0  0  0  0  0  0  0
   14.2450   42.7289    6.6556 C   0  0  0  0  0  0  0  0  0  0  0  0
   15.5400   43.1841    6.9381 C   0  0  0  0  0  0  0  0  0  0  0  0
   16.2574   42.6148    7.9902 C   0  0  0  0  0  0  0  0  0  0  0  0
   15.6821   41.5986    8.7520 C   0  0  0  0  0  0  0  0  0  0  0  0
   13.8417   44.3214    4.6747 C   0  0  0  0  0  0  0  0  0  0  0  0
   13.2758   45.6968    2.8335 C   0  0  0  0  0  0  0  0  0  0  0  0
   14.5203   46.3202    2.8998 C   0  0  0  0  0  0  0  0  0  0  0  0
   15.4136   45.9076    3.8863 C   0  0  0  0  0  0  0  0  0  0  0  0
   13.9049   37.6721    9.8985 N   0  0  0  0  0  0  0  0  0  0  0  0
   13.7075   41.7355    7.4154 N   0  0  0  0  0  0  0  0  0  0  0  0
   13.4643   43.2797    5.5853 N   0  0  0  0  0  0  0  0  0  0  0  0
   12.9602   44.7141    3.7170 N   0  0  0  0  0  0  0  0  0  0  0  0
   15.0613   44.9214    4.7516 N   0  0  0  0  0  0  0  0  0  0  0  0
  1  2  1  0
  2  3  1  0
  3  4  1  0
  3 14  1  6
  4 23  1  0
  5 23  1  0
  5  1  1  0
  6 23  1  0
  6  7  1  0
  7  8  1  0
  9 10  2  0
 11 12  2  0
 13  8  2  0
 15 24  2  0
 15 25  1  0
 16 17  2  0
 18 14  2  0
 19 27  2  0
 20 26  2  0
 21 22  2  0
 25 19  1  0
  8  9  1  0
 10 11  1  0
 12 13  1  0
 14 24  1  0
 15 16  1  0
 17 18  1  0
 19 26  1  0
 20 21  1  0
 22 27  1  0
M  END
>  <rmsd>  (186) 
0.248426974

$$$$
MolPort-047-071-871 PubChem-132766136
     RDKit          3D

 30 33  0  0  0  0  0  0  0  0999 V2000
   16.8079   46.5187    4.0755 C   0  0  0  0  0  0  0  0  0  0  0  0
   15.4626   45.9053    3.9282 C   0  0  0  0  0  0  0  0  0  0  0  0
   14.6002   46.3471    2.9231 C   0  0  0  0  0  0  0  0  0  0  0  0
   13.3405   45.7589    2.8003 C   0  0  0  0  0  0  0  0  0  0  0  0
   12.9593   44.7422    3.6776 C   0  0  0  0  0  0  0  0  0  0  0  0
   13.8473   44.3242    4.6724 C   0  0  0  0  0  0  0  0  0  0  0  0
   14.2318   42.7367    6.6377 C   0  0  0  0  0  0  0  0  0  0  0  0
   13.6950   41.7157    7.4215 C   0  0  0  0  0  0  0  0  0  0  0  0
   14.4658   41.1935    8.4598 C   0  0  0  0  0  0  0  0  0  0  0  0
   16.2244   42.6776    7.9152 C   0  0  0  0  0  0  0  0  0  0  0  0
   17.5908   43.1979    8.1801 C   0  0  0  0  0  0  0  0  0  0  0  0
   13.9123   40.0971    9.3077 C   0  0  2  0  0  0  0  0  0  0  0  0
   13.8080   40.5387   10.7711 C   0  0  0  0  0  0  0  0  0  0  0  0
   13.4090   39.4025   11.7265 C   0  0  0  0  0  0  0  0  0  0  0  0
   13.2054   38.0642   11.0162 C   0  0  0  0  0  0  0  0  0  0  0  0
   14.7626   38.8321    9.1778 C   0  0  0  0  0  0  0  0  0  0  0  0
   15.0797   36.5737   10.2897 C   0  0  0  0  0  0  0  0  0  0  0  0
   15.9659   36.0193    9.2486 C   0  0  0  0  0  0  0  0  0  0  0  0
   16.0220   36.4757    8.0019 C   0  0  0  0  0  0  0  0  0  0  0  0
   16.9237   35.8878    7.0087 C   0  0  0  0  0  0  0  0  0  0  0  0
   17.0367   36.3083    5.7065 C   0  0  0  0  0  0  0  0  0  0  0  0
   18.3769   34.6690    6.0631 C   0  0  0  0  0  0  0  0  0  0  0  0
   13.4483   43.2802    5.5685 N   0  0  0  0  0  0  0  0  0  0  0  0
   15.7152   41.6829    8.6872 N   0  0  0  0  0  0  0  0  0  0  0  0
   15.4854   43.1968    6.9005 N   0  0  0  0  0  0  0  0  0  0  0  0
   14.3327   37.7950   10.1229 N   0  0  0  0  0  0  0  0  0  0  0  0
   17.9600   35.5310    5.1120 N   0  0  0  0  0  0  0  0  0  0  0  0
   17.7585   34.8611    7.2451 N   0  0  0  0  0  0  0  0  0  0  0  0
   15.0722   44.9134    4.7731 N   0  0  0  0  0  0  0  0  0  0  0  0
   14.9761   35.9290   11.3673 O   0  0  0  0  0  0  0  0  0  0  0  0
  1  2  1  0
  2 29  2  0
  3  4  2  0
  5  6  2  0
  6 23  1  0
  7 25  2  0
  8  9  2  0
 10 24  2  0
 11 10  1  0
 12  9  1  6
 12 13  1  0
 13 14  1  0
 14 15  1  0
 15 26  1  0
 16 26  1  0
 16 12  1  0
 17 18  1  0
 19 20  1  0
 21 27  1  0
 22 28  1  0
 23  7  1  0
 26 17  1  0
 28 20  1  0
  2  3  1  0
  4  5  1  0
  6 29  1  0
  7  8  1  0
  9 24  1  0
 10 25  1  0
 17 30  2  0
 18 19  2  0
 20 21  2  0
 22 27  2  0
M  END
>  <rmsd>  (187) 
0.248363882

$$$$
MolPort-020-293-066 MCULE-4133020795 PubChem-110265533
     RDKit          3D

 27 30  0  0  0  0  0  0  0  0999 V2000
   12.2969   46.1064    1.7952 C   0  0  0  0  0  0  0  0  0  0  0  0
   13.2779   45.6961    2.8332 C   0  0  0  0  0  0  0  0  0  0  0  0
   14.5227   46.3191    2.9005 C   0  0  0  0  0  0  0  0  0  0  0  0
   15.4150   45.9062    3.8878 C   0  0  0  0  0  0  0  0  0  0  0  0
   13.8420   44.3208    4.6750 C   0  0  0  0  0  0  0  0  0  0  0  0
   14.2444   42.7291    6.6563 C   0  0  0  0  0  0  0  0  0  0  0  0
   15.5394   43.1847    6.9387 C   0  0  0  0  0  0  0  0  0  0  0  0
   16.2569   42.6160    7.9910 C   0  0  0  0  0  0  0  0  0  0  0  0
   15.6817   41.6002    8.7532 C   0  0  0  0  0  0  0  0  0  0  0  0
   14.3849   41.1647    8.4488 C   0  0  0  0  0  0  0  0  0  0  0  0
   13.7296   40.0765    9.2378 C   0  0  2  0  0  0  0  0  0  0  0  0
   13.5727   40.4751   10.6996 C   0  0  0  0  0  0  0  0  0  0  0  0
   12.9028   39.3437   11.4616 C   0  0  0  0  0  0  0  0  0  0  0  0
   13.7190   38.0566   11.3050 C   0  0  0  0  0  0  0  0  0  0  0  0
   14.5167   38.7644    9.1252 C   0  0  0  0  0  0  0  0  0  0  0  0
   12.6207   37.2958    9.3115 C   0  0  0  0  0  0  0  0  0  0  0  0
   12.7953   36.1363    8.3905 C   0  0  0  0  0  0  0  0  0  0  0  0
   12.6072   34.1935    7.5529 C   0  0  0  0  0  0  0  0  0  0  0  0
   13.4207   34.9565    6.7381 C   0  0  0  0  0  0  0  0  0  0  0  0
   16.7528   46.5441    3.9948 C   0  0  0  0  0  0  0  0  0  0  0  0
   15.0616   44.9204    4.7527 N   0  0  0  0  0  0  0  0  0  0  0  0
   12.9613   44.7135    3.7166 N   0  0  0  0  0  0  0  0  0  0  0  0
   13.4639   43.2794    5.5856 N   0  0  0  0  0  0  0  0  0  0  0  0
   13.7070   41.7362    7.4166 N   0  0  0  0  0  0  0  0  0  0  0  0
   13.9047   37.6728    9.8980 N   0  0  0  0  0  0  0  0  0  0  0  0
   12.2113   34.9436    8.5975 N   0  0  0  0  0  0  0  0  0  0  0  0
   13.5370   36.1870    7.2697 N   0  0  0  0  0  0  0  0  0  0  0  0
  1  2  1  0
  2 22  2  0
  3  4  2  0
  5 21  2  0
  5 23  1  0
  6 24  2  0
  7  8  2  0
  9 10  2  0
 11 10  1  6
 11 12  1  0
 12 13  1  0
 13 14  1  0
 14 25  1  0
 15 25  1  0
 15 11  1  0
 16 25  1  0
 16 17  1  0
 18 26  1  0
 19 27  1  0
 20  4  1  0
 23  6  1  0
 27 17  1  0
  2  3  1  0
  4 21  1  0
  5 22  1  0
  6  7  1  0
  8  9  1  0
 10 24  1  0
 17 26  2  0
 18 19  2  0
M  END
>  <rmsd>  (188) 
0.248348862

$$$$
Molport-046-951-073 MCULE-3394134079 MCULE-8905137122 PubChem-110089534
     RDKit          3D

 21 23  0  0  0  0  0  0  0  0999 V2000
   16.8200   46.5222    4.0920 C   0  0  0  0  0  0  0  0  0  0  0  0
   15.4774   45.9059    3.9319 C   0  0  0  0  0  0  0  0  0  0  0  0
   13.8565   44.3247    4.6642 C   0  0  0  0  0  0  0  0  0  0  0  0
   12.9794   44.7378    3.6575 C   0  0  0  0  0  0  0  0  0  0  0  0
   13.3688   45.7517    2.7805 C   0  0  0  0  0  0  0  0  0  0  0  0
   14.6259   46.3425    2.9152 C   0  0  0  0  0  0  0  0  0  0  0  0
   14.1946   42.7230    6.6474 C   0  0  0  0  0  0  0  0  0  0  0  0
   14.2968   41.1636    8.4355 C   0  0  0  0  0  0  0  0  0  0  0  0
   15.5861   41.6100    8.7506 C   0  0  0  0  0  0  0  0  0  0  0  0
   15.4847   43.1640    6.9689 C   0  0  0  0  0  0  0  0  0  0  0  0
   13.6360   40.0770    9.2220 C   0  0  2  0  0  0  0  0  0  0  0  0
   13.4157   40.5115   10.6755 C   0  0  0  0  0  0  0  0  0  0  0  0
   13.0949   39.3083   11.5605 C   0  0  0  0  0  0  0  0  0  0  0  0
   14.1190   38.1714   11.3954 C   0  0  0  0  0  0  0  0  0  0  0  0
   14.4155   38.7571    9.1100 C   0  0  0  0  0  0  0  0  0  0  0  0
   15.8522   37.2257   10.1381 C   0  0  0  0  0  0  0  0  0  0  0  0
   15.0790   44.9165    4.7760 N   0  0  0  0  0  0  0  0  0  0  0  0
   13.4457   43.2824    5.5591 N   0  0  0  0  0  0  0  0  0  0  0  0
   13.6359   41.7322    7.3924 N   0  0  0  0  0  0  0  0  0  0  0  0
   16.1498   42.5993    8.0104 N   0  0  0  0  0  0  0  0  0  0  0  0
   15.1140   38.4554   10.3577 N   0  0  0  0  0  0  0  0  0  0  0  0
  1  2  1  0
  3 17  2  0
  3 18  1  0
  4  5  2  0
  6  2  2  0
  8 19  2  0
  9 20  2  0
 10  7  2  0
 11  8  1  6
 11 12  1  0
 12 13  1  0
 13 14  1  0
 14 21  1  0
 15 21  1  0
 15 11  1  0
 16 21  1  0
 18  7  1  0
  2 17  1  0
  3  4  1  0
  5  6  1  0
  7 19  1  0
  8  9  1  0
 10 20  1  0
M  END
>  <rmsd>  (189) 
0.248331189

$$$$
MolPort-020-292-542 MCULE-8860275436 PubChem-110265010
     RDKit          3D

 30 33  0  0  0  0  0  0  0  0999 V2000
   17.5982   43.0767    8.3323 C   0  0  0  0  0  0  0  0  0  0  0  0
   16.2261   42.6059    8.0109 C   0  0  0  0  0  0  0  0  0  0  0  0
   15.5224   43.1799    6.9507 C   0  0  0  0  0  0  0  0  0  0  0  0
   14.2293   42.7302    6.6535 C   0  0  0  0  0  0  0  0  0  0  0  0
   13.6689   41.7119    7.4284 C   0  0  0  0  0  0  0  0  0  0  0  0
   14.4012   41.1602    8.4828 C   0  0  0  0  0  0  0  0  0  0  0  0
   13.7996   40.0698    9.3045 C   0  0  2  0  0  0  0  0  0  0  0  0
   13.6465   40.5055   10.7619 C   0  0  0  0  0  0  0  0  0  0  0  0
   13.0798   39.3690   11.6173 C   0  0  0  0  0  0  0  0  0  0  0  0
   13.5899   37.9924   11.1739 C   0  0  0  0  0  0  0  0  0  0  0  0
   14.6176   38.7732    9.1664 C   0  0  0  0  0  0  0  0  0  0  0  0
   14.2888   35.6011    9.1597 C   0  0  0  0  0  0  0  0  0  0  0  0
   14.1953   35.5402    7.7859 C   0  0  0  0  0  0  0  0  0  0  0  0
   13.2493   34.8074    9.5974 C   0  0  0  0  0  0  0  0  0  0  0  0
   12.8729   34.5294   11.0104 C   0  0  0  0  0  0  0  0  0  0  0  0
   15.0697   36.2249    6.7946 C   0  0  0  0  0  0  0  0  0  0  0  0
   13.8468   44.3217    4.6703 C   0  0  0  0  0  0  0  0  0  0  0  0
   12.9494   44.7258    3.6781 C   0  0  0  0  0  0  0  0  0  0  0  0
   13.3172   45.7379    2.7899 C   0  0  0  0  0  0  0  0  0  0  0  0
   14.5732   46.3361    2.8992 C   0  0  0  0  0  0  0  0  0  0  0  0
   15.4455   45.9084    3.9018 C   0  0  0  0  0  0  0  0  0  0  0  0
   15.6570   41.6162    8.7490 N   0  0  0  0  0  0  0  0  0  0  0  0
   14.8584   38.1150   10.4562 N   0  0  0  0  0  0  0  0  0  0  0  0
   12.5893   34.3076    8.5349 N   0  0  0  0  0  0  0  0  0  0  0  0
   13.4579   43.2809    5.5767 N   0  0  0  0  0  0  0  0  0  0  0  0
   15.0681   44.9205    4.7574 N   0  0  0  0  0  0  0  0  0  0  0  0
   15.4451   36.5145   10.1312 S   0  0  0  0  0  0  0  0  0  0  0  0
   16.7528   36.6013    9.3948 O   0  0  0  0  0  0  0  0  0  0  0  0
   15.6826   35.7947   11.4294 O   0  0  0  0  0  0  0  0  0  0  0  0
   13.1829   34.7665    7.4693 O   0  0  0  0  0  0  0  0  0  0  0  0
  1  2  1  0
  2 22  2  0
  3  4  2  0
  4 25  1  0
  5  6  2  0
  7  6  1  6
  7  8  1  0
  8  9  1  0
  9 10  1  0
 10 23  1  0
 11 23  1  0
 11  7  1  0
 13 30  1  0
 14 12  1  0
 15 14  1  0
 16 13  1  0
 17 26  2  0
 18 19  2  0
 20 21  2  0
 25 17  1  0
 27 23  1  0
 27 12  1  0
 30 24  1  0
  2  3  1  0
  4  5  1  0
  6 22  1  0
 12 13  2  0
 14 24  2  0
 17 18  1  0
 19 20  1  0
 21 26  1  0
 27 28  2  0
 27 29  2  0
M  END
>  <rmsd>  (190) 
0.248305634

$$$$
MolPort-046-174-258 1506397468 CSSS00159951851 MCULE-2819532415 PubChem-132418381 ZINC001506397468
     RDKit          3D

 26 28  0  0  0  0  0  0  0  0999 V2000
   11.3999   42.2490    3.1065 C   0  0  0  0  0  0  0  0  0  0  0  0
   12.3545   42.9613    2.2063 C   0  0  0  0  0  0  0  0  0  0  0  0
   12.7674   42.5654    0.9414 C   0  0  0  0  0  0  0  0  0  0  0  0
   13.6493   43.5678    0.5509 C   0  0  0  0  0  0  0  0  0  0  0  0
   12.8452   44.8611    3.7634 C   0  0  0  0  0  0  0  0  0  0  0  0
   13.8600   44.3753    4.7397 C   0  0  0  0  0  0  0  0  0  0  0  0
   14.4213   42.6804    6.5567 C   0  0  0  0  0  0  0  0  0  0  0  0
   15.7494   43.0054    6.7630 C   0  0  0  0  0  0  0  0  0  0  0  0
   16.1390   42.1376    7.7767 C   0  0  0  0  0  0  0  0  0  0  0  0
   12.7236   41.1104    7.4959 C   0  0  0  0  0  0  0  0  0  0  0  0
   12.7706   39.5748    7.5312 C   0  0  0  0  0  0  0  0  0  0  0  0
   13.0216   38.9877    8.9326 C   0  0  0  0  0  0  0  0  0  0  0  0
   11.9501   40.8489    9.9229 C   0  0  0  0  0  0  0  0  0  0  0  0
   11.9588   41.7329    8.6734 C   0  0  0  0  0  0  0  0  0  0  0  0
   13.1336   39.3326   11.2433 C   0  0  0  0  0  0  0  0  0  0  0  0
   14.4026   43.6450   -0.7324 C   0  0  0  0  0  0  0  0  0  0  0  0
   12.3778   41.3598    0.1762 C   0  0  0  0  0  0  0  0  0  0  0  0
   11.4821   40.3241    0.7644 C   0  0  0  0  0  0  0  0  0  0  0  0
   13.7571   44.4963    1.5218 N   0  0  0  0  0  0  0  0  0  0  0  0
   12.9643   44.1242    2.5135 N   0  0  0  0  0  0  0  0  0  0  0  0
   13.5291   43.2921    5.6163 N   0  0  0  0  0  0  0  0  0  0  0  0
   15.0955   41.3586    8.1352 N   0  0  0  0  0  0  0  0  0  0  0  0
   14.0613   41.6878    7.3816 N   0  0  0  0  0  0  0  0  0  0  0  0
   13.1475   40.0183    9.9651 N   0  0  0  0  0  0  0  0  0  0  0  0
   15.0036   44.9038    4.7599 O   0  0  0  0  0  0  0  0  0  0  0  0
   12.8060   41.1886   -0.9950 O   0  0  0  0  0  0  0  0  0  0  0  0
  1  2  1  0
  3  4  1  0
  3 17  1  0
  5 20  1  0
  5  6  1  0
  6 21  1  0
  8  9  1  0
 10 23  1  0
 10 11  1  0
 11 12  1  0
 12 24  1  0
 13 24  1  0
 13 14  1  0
 14 10  1  0
 15 24  1  0
 16  4  1  0
 18 17  1  0
 20 19  1  0
 20  2  1  0
 21  7  1  0
 23 22  1  0
 23  7  1  0
  2  3  2  0
  4 19  2  0
  6 25  2  0
  7  8  2  0
  9 22  2  0
 17 26  2  0
M  END
>  <rmsd>  (191) 
0.248302877

$$$$
MolPort-006-580-041 ChemDiv-V020-6525 MCULE-7808711997 PubChem-46041007 ZINC000037544204 ZINC37544204
     RDKit          3D

 27 29  0  0  0  0  0  0  0  0999 V2000
   12.1649   46.0375    1.7572 C   0  0  0  0  0  0  0  0  0  0  0  0
   13.3263   45.8198    2.7036 C   0  0  0  0  0  0  0  0  0  0  0  0
   13.8953   44.3505    4.6699 C   0  0  0  0  0  0  0  0  0  0  0  0
   14.2651   42.7615    6.6484 C   0  0  0  0  0  0  0  0  0  0  0  0
   13.7032   41.7447    7.4269 C   0  0  0  0  0  0  0  0  0  0  0  0
   14.4154   41.1650    8.4902 C   0  0  0  0  0  0  0  0  0  0  0  0
   15.7078   41.6389    8.7709 C   0  0  0  0  0  0  0  0  0  0  0  0
   16.2776   42.6544    8.0000 C   0  0  0  0  0  0  0  0  0  0  0  0
   15.5593   43.2129    6.9415 C   0  0  0  0  0  0  0  0  0  0  0  0
   14.3859   39.8564   10.6294 C   0  0  0  0  0  0  0  0  0  0  0  0
   13.2651   39.5883   11.6200 C   0  0  0  0  0  0  0  0  0  0  0  0
   12.4814   38.3494   11.1964 C   0  0  0  0  0  0  0  0  0  0  0  0
   11.0880   37.4444    9.3319 C   0  0  0  0  0  0  0  0  0  0  0  0
   11.6996   36.3222    8.5604 C   0  0  0  0  0  0  0  0  0  0  0  0
   11.5497   36.2664    7.1706 C   0  0  0  0  0  0  0  0  0  0  0  0
   12.1291   35.2211    6.4448 C   0  0  0  0  0  0  0  0  0  0  0  0
   12.8598   34.2304    7.1081 C   0  0  0  0  0  0  0  0  0  0  0  0
   13.0111   34.2849    8.4970 C   0  0  0  0  0  0  0  0  0  0  0  0
   12.4320   35.3300    9.2230 C   0  0  0  0  0  0  0  0  0  0  0  0
   12.7459   39.2851    8.8537 C   0  0  0  0  0  0  0  0  0  0  0  0
   12.9877   44.7725    3.6525 N   0  0  0  0  0  0  0  0  0  0  0  0
   13.4934   43.3117    5.5719 N   0  0  0  0  0  0  0  0  0  0  0  0
   13.8257   40.1286    9.3068 N   0  0  0  0  0  0  0  0  0  0  0  0
   12.1123   38.3812    9.7797 N   0  0  0  0  0  0  0  0  0  0  0  0
   15.0314   44.8892    4.7660 O   0  0  0  0  0  0  0  0  0  0  0  0
   12.3626   39.3218    7.6524 O   0  0  0  0  0  0  0  0  0  0  0  0
   13.7195   33.3256    9.1393 F   0  0  0  0  0  0  0  0  0  0  0  0
  1  2  1  0
  2 21  1  0
  3 22  1  0
  5  6  2  0
  6 23  1  0
  7  8  2  0
  9  4  2  0
 10 23  1  0
 10 11  1  0
 11 12  1  0
 12 24  1  0
 13 24  1  0
 13 14  1  0
 15 16  2  0
 17 18  2  0
 18 27  1  0
 19 14  2  0
 20 23  1  0
 21  3  1  0
 22  4  1  0
 24 20  1  0
  3 25  2  0
  4  5  1  0
  6  7  1  0
  8  9  1  0
 14 15  1  0
 16 17  1  0
 18 19  1  0
 20 26  2  0
M  END
>  <rmsd>  (192) 
0.248272449

$$$$
MolPort-001-550-176 1150979 CSC028001457 CSSS00028001457 MCULE-9900168954 PubChem-1321321 Z29703923 ZINC000001150979 ZINC01150979
     RDKit          3D

 30 32  0  0  0  0  0  0  0  0999 V2000
    9.6687   39.1312   11.6643 C   0  0  0  0  0  0  0  0  0  0  0  0
   12.1080   38.7449   11.5290 C   0  0  0  0  0  0  0  0  0  0  0  0
   12.3582   40.0511   11.0805 C   0  0  0  0  0  0  0  0  0  0  0  0
   13.6645   40.4621   10.8044 C   0  0  0  0  0  0  0  0  0  0  0  0
   14.7384   39.5749   10.9645 C   0  0  0  0  0  0  0  0  0  0  0  0
   14.4848   38.2744   11.4236 C   0  0  0  0  0  0  0  0  0  0  0  0
   13.1783   37.8622   11.7008 C   0  0  0  0  0  0  0  0  0  0  0  0
   16.1277   40.0025   10.6870 C   0  0  0  0  0  0  0  0  0  0  0  0
   15.6675   41.6947    8.8209 C   0  0  0  0  0  0  0  0  0  0  0  0
   15.0431   40.8508    7.8806 C   0  0  0  0  0  0  0  0  0  0  0  0
   14.5424   38.5547    7.0941 C   0  0  0  0  0  0  0  0  0  0  0  0
   14.3261   41.4214    6.8182 C   0  0  0  0  0  0  0  0  0  0  0  0
   14.2488   42.8068    6.6581 C   0  0  0  0  0  0  0  0  0  0  0  0
   13.8569   44.4394    4.7416 C   0  0  0  0  0  0  0  0  0  0  0  0
   12.8686   45.0424    3.8306 C   0  0  0  0  0  0  0  0  0  0  0  0
   13.2251   46.1237    3.0107 C   0  0  0  0  0  0  0  0  0  0  0  0
   12.2860   46.6964    2.1479 C   0  0  0  0  0  0  0  0  0  0  0  0
   10.9834   46.1927    2.0991 C   0  0  0  0  0  0  0  0  0  0  0  0
   10.6197   45.1163    2.9127 C   0  0  0  0  0  0  0  0  0  0  0  0
   11.5588   44.5435    3.7755 C   0  0  0  0  0  0  0  0  0  0  0  0
   14.8702   43.6508    7.6000 C   0  0  0  0  0  0  0  0  0  0  0  0
   15.3345   45.9454    8.4126 C   0  0  0  0  0  0  0  0  0  0  0  0
   15.5881   43.0801    8.6621 C   0  0  0  0  0  0  0  0  0  0  0  0
   10.8131   38.3017   11.8117 O   0  0  0  0  0  0  0  0  0  0  0  0
   17.0845   39.3448   11.1760 O   0  0  0  0  0  0  0  0  0  0  0  0
   15.1614   39.4610    7.9970 O   0  0  0  0  0  0  0  0  0  0  0  0
   15.0380   44.8816    4.7699 O   0  0  0  0  0  0  0  0  0  0  0  0
   14.7404   45.0402    7.4920 O   0  0  0  0  0  0  0  0  0  0  0  0
   16.4260   41.1807    9.9245 N   0  0  0  0  0  0  0  0  0  0  0  0
   13.4873   43.3201    5.5577 N   0  0  0  0  0  0  0  0  0  0  0  0
  1 24  1  0
  2 24  1  0
  3  4  2  0
  5  6  2  0
  5  8  1  0
  7  2  2  0
  8 29  1  0
 10 26  1  0
 10 12  2  0
 11 26  1  0
 13 30  1  0
 13 21  2  0
 14 15  1  0
 16 17  2  0
 18 19  2  0
 20 15  2  0
 21 28  1  0
 22 28  1  0
 23  9  2  0
 29  9  1  0
 30 14  1  0
  2  3  1  0
  4  5  1  0
  6  7  1  0
  8 25  2  0
  9 10  1  0
 12 13  1  0
 14 27  2  0
 15 16  1  0
 17 18  1  0
 19 20  1  0
 21 23  1  0
M  END
>  <rmsd>  (193) 
0.248260707

$$$$
MolPort-046-971-623 MCULE-4970651089 PubChem-110111561
     RDKit          3D

 27 30  0  0  0  0  0  0  0  0999 V2000
   11.6197   44.1419    3.4883 C   0  0  0  0  0  0  0  0  0  0  0  0
   12.9686   44.7537    3.6553 C   0  0  0  0  0  0  0  0  0  0  0  0
   13.8479   44.3255    4.6637 C   0  0  0  0  0  0  0  0  0  0  0  0
   15.4745   45.9086    3.9412 C   0  0  0  0  0  0  0  0  0  0  0  0
   14.6258   46.3576    2.9290 C   0  0  0  0  0  0  0  0  0  0  0  0
   13.3669   45.7738    2.7890 C   0  0  0  0  0  0  0  0  0  0  0  0
   14.2350   42.7246    6.6239 C   0  0  0  0  0  0  0  0  0  0  0  0
   16.2670   42.6220    7.8568 C   0  0  0  0  0  0  0  0  0  0  0  0
   15.7434   41.6248    8.6810 C   0  0  0  0  0  0  0  0  0  0  0  0
   14.4351   41.1737    8.4646 C   0  0  0  0  0  0  0  0  0  0  0  0
   13.6788   41.7275    7.4292 C   0  0  0  0  0  0  0  0  0  0  0  0
   13.8303   40.1082    9.3208 C   0  0  2  0  0  0  0  0  0  0  0  0
   13.7289   40.5587   10.7822 C   0  0  0  0  0  0  0  0  0  0  0  0
   13.6168   39.3812   11.7535 C   0  0  0  0  0  0  0  0  0  0  0  0
   13.0898   38.1374   11.0420 C   0  0  0  0  0  0  0  0  0  0  0  0
   14.5993   38.7869    9.1973 C   0  0  0  0  0  0  0  0  0  0  0  0
   13.2404   36.8550    9.0826 C   0  0  0  0  0  0  0  0  0  0  0  0
   14.1005   35.7764    8.5069 C   0  0  0  0  0  0  0  0  0  0  0  0
   14.7079   34.7611    9.2125 C   0  0  0  0  0  0  0  0  0  0  0  0
   15.1801   34.5526    7.1162 C   0  0  0  0  0  0  0  0  0  0  0  0
   13.9681   36.4836    6.1052 C   0  0  0  0  0  0  0  0  0  0  0  0
   15.0720   44.9147    4.7776 N   0  0  0  0  0  0  0  0  0  0  0  0
   13.4480   43.2819    5.5645 N   0  0  0  0  0  0  0  0  0  0  0  0
   15.5100   43.1455    6.8557 N   0  0  0  0  0  0  0  0  0  0  0  0
   14.0143   37.6873    9.9914 N   0  0  0  0  0  0  0  0  0  0  0  0
   15.3862   33.9947    8.3295 N   0  0  0  0  0  0  0  0  0  0  0  0
   14.3968   35.6392    7.2069 N   0  0  0  0  0  0  0  0  0  0  0  0
  1  2  1  0
  3 22  2  0
  3 23  1  0
  4  5  2  0
  6  2  2  0
  8 24  2  0
  9 10  2  0
 11  7  2  0
 12 10  1  6
 12 13  1  0
 13 14  1  0
 14 15  1  0
 15 25  1  0
 16 25  1  0
 16 12  1  0
 17 25  1  0
 17 18  1  0
 19 26  1  0
 20 27  1  0
 21 27  1  0
 23  7  1  0
 27 18  1  0
  2  3  1  0
  4 22  1  0
  5  6  1  0
  7 24  1  0
  8  9  1  0
 10 11  1  0
 18 19  2  0
 20 26  2  0
M  END
>  <rmsd>  (194) 
0.248194814

$$$$
MolPort-020-298-675 MCULE-3684237599 PubChem-110269819
     RDKit          3D

 25 27  0  0  0  0  0  0  0  0999 V2000
   16.7530   46.5448    3.9966 C   0  0  0  0  0  0  0  0  0  0  0  0
   15.4157   45.9063    3.8886 C   0  0  0  0  0  0  0  0  0  0  0  0
   14.5238   46.3188    2.9008 C   0  0  0  0  0  0  0  0  0  0  0  0
   13.2793   45.6952    2.8327 C   0  0  0  0  0  0  0  0  0  0  0  0
   13.8428   44.3203    4.6749 C   0  0  0  0  0  0  0  0  0  0  0  0
   14.2459   42.7268    6.6546 C   0  0  0  0  0  0  0  0  0  0  0  0
   15.5440   43.1766    6.9319 C   0  0  0  0  0  0  0  0  0  0  0  0
   16.2626   42.6054    7.9821 C   0  0  0  0  0  0  0  0  0  0  0  0
   15.6854   41.5928    8.7472 C   0  0  0  0  0  0  0  0  0  0  0  0
   14.3856   41.1630    8.4478 C   0  0  0  0  0  0  0  0  0  0  0  0
   13.7280   40.0785    9.2400 C   0  0  2  0  0  0  0  0  0  0  0  0
   13.5777   40.4794   10.7018 C   0  0  0  0  0  0  0  0  0  0  0  0
   12.9050   39.3518   11.4672 C   0  0  0  0  0  0  0  0  0  0  0  0
   13.7147   38.0607   11.3092 C   0  0  0  0  0  0  0  0  0  0  0  0
   14.5088   38.7627    9.1264 C   0  0  0  0  0  0  0  0  0  0  0  0
   12.6055   37.3020    9.3210 C   0  0  0  0  0  0  0  0  0  0  0  0
   12.7928   36.2555    8.2762 C   0  0  0  0  0  0  0  0  0  0  0  0
   12.2988   46.1052    1.7941 C   0  0  0  0  0  0  0  0  0  0  0  0
   12.9626   44.7127    3.7160 N   0  0  0  0  0  0  0  0  0  0  0  0
   15.0621   44.9203    4.7533 N   0  0  0  0  0  0  0  0  0  0  0  0
   13.4643   43.2793    5.5857 N   0  0  0  0  0  0  0  0  0  0  0  0
   13.7066   41.7367    7.4174 N   0  0  0  0  0  0  0  0  0  0  0  0
   13.8936   37.6745    9.9021 N   0  0  0  0  0  0  0  0  0  0  0  0
   13.3184   34.9803    8.6261 N   0  0  0  0  0  0  0  0  0  0  0  0
   12.4762   36.4977    7.0832 O   0  0  0  0  0  0  0  0  0  0  0  0
  1  2  1  0
  2 20  2  0
  3  4  2  0
  5 19  2  0
  5 21  1  0
  6 22  2  0
  7  8  2  0
  9 10  2  0
 11 10  1  6
 11 12  1  0
 12 13  1  0
 13 14  1  0
 14 23  1  0
 15 23  1  0
 15 11  1  0
 16 23  1  0
 16 17  1  0
 17 24  1  0
 18  4  1  0
 21  6  1  0
  2  3  1  0
  4 19  1  0
  5 20  1  0
  6  7  1  0
  8  9  1  0
 10 22  1  0
 17 25  2  0
M  END
>  <rmsd>  (195) 
0.248182178

$$$$
MolPort-008-290-763 19521490 MCULE-5617834621 PubChem-46972310 ZINC000019521490
     RDKit          3D

 28 30  0  0  0  0  0  0  0  0999 V2000
    9.9726   45.4692   -0.3657 C   0  0  0  0  0  0  0  0  0  0  0  0
   10.1498   46.4381    0.7889 C   0  0  0  0  0  0  0  0  0  0  0  0
   11.0987   45.8808    1.8018 C   0  0  0  0  0  0  0  0  0  0  0  0
   10.7391   44.8222    2.6532 C   0  0  0  0  0  0  0  0  0  0  0  0
   11.6666   44.3582    3.5843 C   0  0  0  0  0  0  0  0  0  0  0  0
   12.9390   44.9337    3.6817 C   0  0  0  0  0  0  0  0  0  0  0  0
   13.2538   46.0022    2.8137 C   0  0  0  0  0  0  0  0  0  0  0  0
   13.8907   44.4027    4.6873 C   0  0  0  0  0  0  0  0  0  0  0  0
   14.2774   42.6884    6.5512 C   0  0  0  0  0  0  0  0  0  0  0  0
   15.8682   41.8830    8.1551 C   0  0  0  0  0  0  0  0  0  0  0  0
   17.0074   41.5899    9.0715 C   0  0  0  0  0  0  0  0  0  0  0  0
   17.1208   42.6606   10.1543 C   0  0  0  0  0  0  0  0  0  0  0  0
   16.1388   42.5145   11.2832 C   0  0  0  0  0  0  0  0  0  0  0  0
   15.2722   41.4149   11.3909 C   0  0  0  0  0  0  0  0  0  0  0  0
   14.3727   41.3150   12.4642 C   0  0  0  0  0  0  0  0  0  0  0  0
   14.3493   42.3211   13.4348 C   0  0  0  0  0  0  0  0  0  0  0  0
   15.2128   43.4154   13.3370 C   0  0  0  0  0  0  0  0  0  0  0  0
   16.1042   43.5099   12.2649 C   0  0  0  0  0  0  0  0  0  0  0  0
   13.4484   39.1733   11.6425 C   0  0  0  0  0  0  0  0  0  0  0  0
    9.3903   44.1876    2.6014 C   0  0  0  0  0  0  0  0  0  0  0  0
   14.3798   46.5649    2.8570 O   0  0  0  0  0  0  0  0  0  0  0  0
   15.0434   44.9005    4.7981 O   0  0  0  0  0  0  0  0  0  0  0  0
   13.4970   40.2331   12.5882 O   0  0  0  0  0  0  0  0  0  0  0  0
   12.3332   46.4394    1.9129 N   0  0  0  0  0  0  0  0  0  0  0  0
   13.4875   43.3165    5.5343 N   0  0  0  0  0  0  0  0  0  0  0  0
   13.8067   41.6707    7.3035 N   0  0  0  0  0  0  0  0  0  0  0  0
   14.6894   41.2248    8.1958 N   0  0  0  0  0  0  0  0  0  0  0  0
   15.8614   43.0890    6.9794 S   0  0  0  0  0  0  0  0  0  0  0  0
  1  2  1  0
  2  3  1  0
  4  5  1  0
  6  7  1  0
  6  8  1  0
  7 24  1  0
  8 25  1  0
  9 28  1  0
 10 28  1  0
 11 10  1  0
 11 12  1  0
 12 13  1  0
 14 15  2  0
 15 23  1  0
 16 17  2  0
 18 13  2  0
 19 23  1  0
 20  4  1  0
 24  3  1  0
 25  9  1  0
 26 27  1  0
  3  4  2  0
  5  6  2  0
  7 21  2  0
  8 22  2  0
  9 26  2  0
 10 27  2  0
 13 14  1  0
 15 16  1  0
 17 18  1  0
M  END
>  <rmsd>  (196) 
0.248168528

$$$$
Molport-047-071-926 MCULE-2445915367 PubChem-132764393
     RDKit          3D

 25 27  0  0  0  0  0  0  0  0999 V2000
   14.2340   42.7340    6.6349 C   0  0  0  0  0  0  0  0  0  0  0  0
   13.8462   44.3263    4.6741 C   0  0  0  0  0  0  0  0  0  0  0  0
   12.9563   44.7468    3.6821 C   0  0  0  0  0  0  0  0  0  0  0  0
   13.3363   45.7653    2.8061 C   0  0  0  0  0  0  0  0  0  0  0  0
   14.5964   46.3526    2.9276 C   0  0  0  0  0  0  0  0  0  0  0  0
   15.4606   45.9082    3.9300 C   0  0  0  0  0  0  0  0  0  0  0  0
   16.8066   46.5207    4.0759 C   0  0  0  0  0  0  0  0  0  0  0  0
   13.6975   41.7131    7.4190 C   0  0  0  0  0  0  0  0  0  0  0  0
   14.4704   41.1878    8.4544 C   0  0  0  0  0  0  0  0  0  0  0  0
   13.9155   40.0942    9.3050 C   0  0  2  0  0  0  0  0  0  0  0  0
   13.8100   40.5417   10.7664 C   0  0  0  0  0  0  0  0  0  0  0  0
   13.4008   39.4114   11.7245 C   0  0  0  0  0  0  0  0  0  0  0  0
   13.2012   38.0697   11.0200 C   0  0  0  0  0  0  0  0  0  0  0  0
   15.1250   36.6002   10.2687 C   0  0  0  0  0  0  0  0  0  0  0  0
   14.6118   35.3539   10.8688 C   0  0  0  0  0  0  0  0  0  0  0  0
   13.3369   35.1454   11.1685 C   0  0  0  0  0  0  0  0  0  0  0  0
   14.7640   38.8267    9.1812 C   0  0  0  0  0  0  0  0  0  0  0  0
   16.2301   42.6697    7.9068 C   0  0  0  0  0  0  0  0  0  0  0  0
   17.5979   43.1875    8.1688 C   0  0  0  0  0  0  0  0  0  0  0  0
   13.4485   43.2806    5.5690 N   0  0  0  0  0  0  0  0  0  0  0  0
   15.0715   44.9146    4.7736 N   0  0  0  0  0  0  0  0  0  0  0  0
   14.3329   37.7965   10.1327 N   0  0  0  0  0  0  0  0  0  0  0  0
   15.7211   41.6749    8.6791 N   0  0  0  0  0  0  0  0  0  0  0  0
   15.4892   43.1913    6.8948 N   0  0  0  0  0  0  0  0  0  0  0  0
   16.3136   36.5965    9.8502 O   0  0  0  0  0  0  0  0  0  0  0  0
  1 20  1  0
  1 24  2  0
  2 21  2  0
  3  4  2  0
  5  6  2  0
  7  6  1  0
  8  9  2  0
 10  9  1  6
 10 11  1  0
 11 12  1  0
 12 13  1  0
 13 22  1  0
 14 15  1  0
 17 22  1  0
 17 10  1  0
 18 23  2  0
 19 18  1  0
 20  2  1  0
 22 14  1  0
  1  8  1  0
  2  3  1  0
  4  5  1  0
  6 21  1  0
  9 23  1  0
 14 25  2  0
 15 16  2  0
 18 24  1  0
M  END
>  <rmsd>  (197) 
0.248157367

$$$$
MolPort-020-298-669 MCULE-3947586328 PubChem-110269814
     RDKit          3D

 22 24  0  0  0  0  0  0  0  0999 V2000
   12.9019   39.3473   11.4615 C   0  0  0  0  0  0  0  0  0  0  0  0
   13.5718   40.4769   10.6968 C   0  0  0  0  0  0  0  0  0  0  0  0
   13.7295   40.0746    9.2362 C   0  0  2  0  0  0  0  0  0  0  0  0
   14.5188   38.7630    9.1284 C   0  0  0  0  0  0  0  0  0  0  0  0
   13.7203   38.0611   11.3104 C   0  0  0  0  0  0  0  0  0  0  0  0
   12.6264   37.2885    9.3186 C   0  0  0  0  0  0  0  0  0  0  0  0
   12.8285   36.2098    8.2682 C   0  0  0  0  0  0  0  0  0  0  0  0
   14.3860   41.1618    8.4464 C   0  0  0  0  0  0  0  0  0  0  0  0
   14.2455   42.7281    6.6555 C   0  0  0  0  0  0  0  0  0  0  0  0
   15.5413   43.1819    6.9368 C   0  0  0  0  0  0  0  0  0  0  0  0
   16.2592   42.6115    7.9880 C   0  0  0  0  0  0  0  0  0  0  0  0
   15.6835   41.5958    8.7501 C   0  0  0  0  0  0  0  0  0  0  0  0
   13.8418   44.3224    4.6759 C   0  0  0  0  0  0  0  0  0  0  0  0
   13.2755   45.6993    2.8360 C   0  0  0  0  0  0  0  0  0  0  0  0
   14.5202   46.3220    2.9021 C   0  0  0  0  0  0  0  0  0  0  0  0
   15.4140   45.9083    3.8878 C   0  0  0  0  0  0  0  0  0  0  0  0
   13.9086   37.6729    9.9050 N   0  0  0  0  0  0  0  0  0  0  0  0
   13.7077   41.7351    7.4153 N   0  0  0  0  0  0  0  0  0  0  0  0
   13.4644   43.2802    5.5860 N   0  0  0  0  0  0  0  0  0  0  0  0
   12.9599   44.7161    3.7190 N   0  0  0  0  0  0  0  0  0  0  0  0
   15.0617   44.9217    4.7526 N   0  0  0  0  0  0  0  0  0  0  0  0
   13.2556   35.0294    8.8764 O   0  0  0  0  0  0  0  0  0  0  0  0
  1  2  1  0
  2  3  1  0
  3  4  1  0
  3  8  1  6
  4 17  1  0
  5 17  1  0
  5  1  1  0
  6 17  1  0
  6  7  1  0
  7 22  1  0
  9 18  2  0
  9 19  1  0
 10 11  2  0
 12  8  2  0
 13 21  2  0
 14 20  2  0
 15 16  2  0
 19 13  1  0
  8 18  1  0
  9 10  1  0
 11 12  1  0
 13 20  1  0
 14 15  1  0
 16 21  1  0
M  END
>  <rmsd>  (198) 
0.24815163

$$$$
MolPort-020-278-713 MCULE-1926765994 PubChem-110255584
     RDKit          3D

 23 25  0  0  0  0  0  0  0  0999 V2000
   17.6023   43.1843    8.1655 C   0  0  0  0  0  0  0  0  0  0  0  0
   16.2339   42.6671    7.9048 C   0  0  0  0  0  0  0  0  0  0  0  0
   14.4744   41.1856    8.4538 C   0  0  0  0  0  0  0  0  0  0  0  0
   13.7003   41.7116    7.4197 C   0  0  0  0  0  0  0  0  0  0  0  0
   14.2363   42.7327    6.6354 C   0  0  0  0  0  0  0  0  0  0  0  0
   13.8453   44.3258    4.6751 C   0  0  0  0  0  0  0  0  0  0  0  0
   12.9530   44.7458    3.6851 C   0  0  0  0  0  0  0  0  0  0  0  0
   13.3304   45.7644    2.8081 C   0  0  0  0  0  0  0  0  0  0  0  0
   14.5903   46.3525    2.9267 C   0  0  0  0  0  0  0  0  0  0  0  0
   15.4569   45.9087    3.9273 C   0  0  0  0  0  0  0  0  0  0  0  0
   13.9198   40.0918    9.3047 C   0  0  2  0  0  0  0  0  0  0  0  0
   13.8195   40.5373   10.7670 C   0  0  0  0  0  0  0  0  0  0  0  0
   13.3663   39.4163   11.7170 C   0  0  0  0  0  0  0  0  0  0  0  0
   13.2058   38.0634   11.0225 C   0  0  0  0  0  0  0  0  0  0  0  0
   14.7688   38.8247    9.1801 C   0  0  0  0  0  0  0  0  0  0  0  0
   15.1047   36.5911   10.2746 C   0  0  0  0  0  0  0  0  0  0  0  0
   14.7213   35.5477   11.2695 C   0  0  0  0  0  0  0  0  0  0  0  0
   15.7255   41.6723    8.6773 N   0  0  0  0  0  0  0  0  0  0  0  0
   15.4920   43.1896    6.8939 N   0  0  0  0  0  0  0  0  0  0  0  0
   13.4495   43.2799    5.5706 N   0  0  0  0  0  0  0  0  0  0  0  0
   15.0705   44.9149    4.7720 N   0  0  0  0  0  0  0  0  0  0  0  0
   14.3537   37.8084   10.1519 N   0  0  0  0  0  0  0  0  0  0  0  0
   16.1052   36.3856    9.5368 O   0  0  0  0  0  0  0  0  0  0  0  0
  1  2  1  0
  2 19  2  0
  3 18  2  0
  4  5  2  0
  5 20  1  0
  6 21  2  0
  7  8  2  0
  9 10  2  0
 11  3  1  6
 11 12  1  0
 12 13  1  0
 13 14  1  0
 14 22  1  0
 15 22  1  0
 15 11  1  0
 17 16  1  0
 20  6  1  0
 22 16  1  0
  2 18  1  0
  3  4  1  0
  5 19  1  0
  6  7  1  0
  8  9  1  0
 10 21  1  0
 16 23  2  0
M  END
>  <rmsd>  (199) 
0.248135343

$$$$
MolPort-047-015-566 MCULE-8578729561 PubChem-155985313
     RDKit          3D

 22 24  0  0  0  0  0  0  0  0999 V2000
   14.3749   41.1570    8.4502 C   0  0  0  0  0  0  0  0  0  0  0  0
   13.7398   40.0716    9.2532 C   0  0  2  0  0  0  0  0  0  0  0  0
   13.5585   40.5092   10.7080 C   0  0  0  0  0  0  0  0  0  0  0  0
   13.0128   39.3636   11.5644 C   0  0  0  0  0  0  0  0  0  0  0  0
   13.6082   38.0042   11.1742 C   0  0  0  0  0  0  0  0  0  0  0  0
   15.3821   36.8436   10.1695 C   0  0  0  0  0  0  0  0  0  0  0  0
   16.4345   36.4957   11.2043 C   0  0  0  0  0  0  0  0  0  0  0  0
   14.5402   38.7620    9.1262 C   0  0  0  0  0  0  0  0  0  0  0  0
   16.2171   42.5722    8.0131 C   0  0  0  0  0  0  0  0  0  0  0  0
   17.5926   43.0259    8.3449 C   0  0  0  0  0  0  0  0  0  0  0  0
   15.5257   43.1597    6.9559 C   0  0  0  0  0  0  0  0  0  0  0  0
   14.2321   42.7117    6.6672 C   0  0  0  0  0  0  0  0  0  0  0  0
   13.8705   44.3127    4.7016 C   0  0  0  0  0  0  0  0  0  0  0  0
   14.0648   46.0271    2.9465 C   0  0  0  0  0  0  0  0  0  0  0  0
   15.1786   45.8817    3.7749 C   0  0  0  0  0  0  0  0  0  0  0  0
   14.8559   38.1723   10.4298 N   0  0  0  0  0  0  0  0  0  0  0  0
   15.6337   41.5852    8.7400 N   0  0  0  0  0  0  0  0  0  0  0  0
   13.4616   43.2697    5.5946 N   0  0  0  0  0  0  0  0  0  0  0  0
   15.0668   44.9327    4.7438 N   0  0  0  0  0  0  0  0  0  0  0  0
   13.6878   41.7206    7.4218 N   0  0  0  0  0  0  0  0  0  0  0  0
   16.9331   35.2196   10.9486 O   0  0  0  0  0  0  0  0  0  0  0  0
   12.9128   44.9136    3.4697 S   0  0  0  0  0  0  0  0  0  0  0  0
  1 20  2  0
  2  1  1  6
  2  3  1  0
  3  4  1  0
  4  5  1  0
  5 16  1  0
  6 16  1  0
  6  7  1  0
  7 21  1  0
  8 16  1  0
  8  2  1  0
  9 17  2  0
 10  9  1  0
 11 12  2  0
 12 18  1  0
 13 22  1  0
 14 22  1  0
 15 19  1  0
 18 13  1  0
  1 17  1  0
  9 11  1  0
 12 20  1  0
 13 19  2  0
 14 15  2  0
M  END
>  <rmsd>  (200) 
0.248132631

$$$$
MolPort-005-095-744 CSSS00159509504 MCULE-3732932308 PubChem-45218315
     RDKit          3D

 36 40  0  0  0  0  0  0  0  0999 V2000
   15.7343   42.4163    8.1440 N   0  0  0  0  0  0  0  0  0  0  0  0
   14.7375   41.5766    8.3901 N   0  0  0  0  0  0  0  0  0  0  0  0
   13.4763   43.3180    5.5316 N   0  0  0  0  0  0  0  0  0  0  0  0
   16.3666   42.2011   11.4112 N   0  0  0  0  0  0  0  0  0  0  0  0
   14.7103   37.7130   12.6335 N   0  0  0  0  0  0  0  0  0  0  0  0
   15.4626   43.1923    7.0809 C   0  0  0  0  0  0  0  0  0  0  0  0
   14.2105   42.8002    6.6471 C   0  0  0  0  0  0  0  0  0  0  0  0
   13.7713   41.7871    7.4759 C   0  0  0  0  0  0  0  0  0  0  0  0
   13.9300   44.3393    4.6295 C   0  0  0  0  0  0  0  0  0  0  0  0
   13.0679   44.7453    3.4980 C   0  0  0  0  0  0  0  0  0  0  0  0
   11.8442   44.0861    3.3064 C   0  0  0  0  0  0  0  0  0  0  0  0
   11.0006   44.4379    2.2513 C   0  0  0  0  0  0  0  0  0  0  0  0
   11.3680   45.4608    1.3766 C   0  0  0  0  0  0  0  0  0  0  0  0
   12.5814   46.1274    1.5528 C   0  0  0  0  0  0  0  0  0  0  0  0
   13.4336   45.7754    2.6046 C   0  0  0  0  0  0  0  0  0  0  0  0
   16.9463   42.4940    8.9434 C   0  0  0  0  0  0  0  0  0  0  0  0
   16.6419   43.0615   10.2943 C   0  0  0  0  0  0  0  0  0  0  0  0
   16.1662   42.7684   12.7446 C   0  0  0  0  0  0  0  0  0  0  0  0
   15.0086   42.0605   13.4394 C   0  0  0  0  0  0  0  0  0  0  0  0
   15.2429   40.5492   13.4356 C   0  0  0  0  0  0  0  0  0  0  0  0
   15.4086   40.0020   12.0063 C   0  0  2  0  0  0  0  0  0  0  0  0
   14.1084   40.1522   11.1997 C   0  0  0  0  0  0  0  0  0  0  0  0
   13.0184   39.2048   11.6991 C   0  0  0  0  0  0  0  0  0  0  0  0
   13.5639   37.7797   11.7301 C   0  0  0  0  0  0  0  0  0  0  0  0
   15.1695   36.3321   12.6316 C   0  0  0  0  0  0  0  0  0  0  0  0
   15.2167   35.8089   14.0271 C   0  0  0  0  0  0  0  0  0  0  0  0
   14.3778   34.7528   14.4012 C   0  0  0  0  0  0  0  0  0  0  0  0
   14.4240   34.2511   15.7076 C   0  0  0  0  0  0  0  0  0  0  0  0
   15.3092   34.8026   16.6400 C   0  0  0  0  0  0  0  0  0  0  0  0
   16.1509   35.8550   16.2660 C   0  0  0  0  0  0  0  0  0  0  0  0
   16.1067   36.3574   14.9608 C   0  0  0  0  0  0  0  0  0  0  0  0
   15.7944   38.5185   12.0669 C   0  0  0  0  0  0  0  0  0  0  0  0
   16.5375   40.7511   11.2913 C   0  0  0  0  0  0  0  0  0  0  0  0
   15.0586   44.8786    4.7960 O   0  0  0  0  0  0  0  0  0  0  0  0
   16.5953   44.3150   10.4305 O   0  0  0  0  0  0  0  0  0  0  0  0
   14.6098   46.4378    2.7360 F   0  0  0  0  0  0  0  0  0  0  0  0
  1  6  1  0
  1  2  1  0
  3  9  1  0
  7  8  1  0
  7  3  1  0
  9 10  1  0
 11 12  2  0
 13 14  2  0
 15 36  1  0
 15 10  2  0
 16  1  1  0
 16 17  1  0
 17  4  1  0
 18  4  1  0
 18 19  1  0
 19 20  1  0
 21 20  1  1
 21 22  1  0
 21 33  1  0
 22 23  1  0
 23 24  1  0
 24  5  1  0
 25  5  1  0
 25 26  1  0
 27 28  2  0
 29 30  2  0
 31 26  2  0
 32  5  1  0
 32 21  1  0
 33  4  1  0
  6  7  2  0
  8  2  2  0
  9 34  2  0
 10 11  1  0
 12 13  1  0
 14 15  1  0
 17 35  2  0
 26 27  1  0
 28 29  1  0
 30 31  1  0
M  END
>  <rmsd>  (201) 
0.248104423

$$$$
MolPort-020-280-781 MCULE-7982223215 PubChem-110256834
     RDKit          3D

 25 27  0  0  0  0  0  0  0  0999 V2000
   17.6022   43.1828    8.1666 C   0  0  0  0  0  0  0  0  0  0  0  0
   16.2337   42.6660    7.9058 C   0  0  0  0  0  0  0  0  0  0  0  0
   14.4737   41.1851    8.4546 C   0  0  0  0  0  0  0  0  0  0  0  0
   13.7000   41.7112    7.4203 C   0  0  0  0  0  0  0  0  0  0  0  0
   14.2363   42.7322    6.6361 C   0  0  0  0  0  0  0  0  0  0  0  0
   13.8473   44.3254    4.6765 C   0  0  0  0  0  0  0  0  0  0  0  0
   15.4447   45.9074    3.9202 C   0  0  0  0  0  0  0  0  0  0  0  0
   14.5574   46.3306    2.9296 C   0  0  0  0  0  0  0  0  0  0  0  0
   12.9620   44.7513    3.6840 C   0  0  0  0  0  0  0  0  0  0  0  0
   13.9189   40.0914    9.3053 C   0  0  2  0  0  0  0  0  0  0  0  0
   13.8192   40.5364   10.7676 C   0  0  0  0  0  0  0  0  0  0  0  0
   13.3603   39.4157   11.7145 C   0  0  0  0  0  0  0  0  0  0  0  0
   13.2042   38.0636   11.0175 C   0  0  0  0  0  0  0  0  0  0  0  0
   14.7683   38.8242    9.1812 C   0  0  0  0  0  0  0  0  0  0  0  0
   15.1283   36.5943   10.2734 C   0  0  0  0  0  0  0  0  0  0  0  0
   14.7910   35.5180   11.2636 C   0  0  0  0  0  0  0  0  0  0  0  0
   13.4166   34.9305   11.0038 C   0  0  0  0  0  0  0  0  0  0  0  0
   14.9038   36.0183   12.6915 C   0  0  0  0  0  0  0  0  0  0  0  0
   15.7249   41.6713    8.6781 N   0  0  0  0  0  0  0  0  0  0  0  0
   15.4921   43.1887    6.8948 N   0  0  0  0  0  0  0  0  0  0  0  0
   13.4500   43.2796    5.5713 N   0  0  0  0  0  0  0  0  0  0  0  0
   15.0709   44.9156    4.7708 N   0  0  0  0  0  0  0  0  0  0  0  0
   13.3355   45.7434    2.8331 N   0  0  0  0  0  0  0  0  0  0  0  0
   14.3589   37.8070   10.1555 N   0  0  0  0  0  0  0  0  0  0  0  0
   16.1261   36.4131    9.5251 O   0  0  0  0  0  0  0  0  0  0  0  0
  1  2  1  0
  2 20  2  0
  3 19  2  0
  4  5  2  0
  5 21  1  0
  7 22  2  0
  8 23  2  0
  9  6  2  0
 10  3  1  6
 10 11  1  0
 11 12  1  0
 12 13  1  0
 13 24  1  0
 14 24  1  0
 14 10  1  0
 16 15  1  0
 16 17  1  0
 16 18  1  0
 21  6  1  0
 24 15  1  0
  2 19  1  0
  3  4  1  0
  5 20  1  0
  6 22  1  0
  7  8  1  0
  9 23  1  0
 15 25  2  0
M  END
>  <rmsd>  (202) 
0.248098567

$$$$
MolPort-020-295-123 MCULE-1159495392 PubChem-110267218
     RDKit          3D

 32 35  0  0  0  0  0  0  0  0999 V2000
   11.1498   45.6534    1.5500 C   0  0  0  0  0  0  0  0  0  0  0  0
   13.3487   45.7498    2.8061 C   0  0  0  0  0  0  0  0  0  0  0  0
   15.4327   45.9049    3.9136 C   0  0  0  0  0  0  0  0  0  0  0  0
   13.8483   44.3188    4.6723 C   0  0  0  0  0  0  0  0  0  0  0  0
   12.9592   44.7291    3.6800 C   0  0  0  0  0  0  0  0  0  0  0  0
   14.2429   42.7262    6.6341 C   0  0  0  0  0  0  0  0  0  0  0  0
   16.2645   42.6220    7.8616 C   0  0  0  0  0  0  0  0  0  0  0  0
   15.7306   41.6271    8.6782 C   0  0  0  0  0  0  0  0  0  0  0  0
   14.4203   41.1994    8.4369 C   0  0  0  0  0  0  0  0  0  0  0  0
   13.7862   40.1388    9.2774 C   0  0  2  0  0  0  0  0  0  0  0  0
   13.7055   40.5643   10.7478 C   0  0  0  0  0  0  0  0  0  0  0  0
   13.6201   39.3689   11.7000 C   0  0  0  0  0  0  0  0  0  0  0  0
   13.0177   38.1586   10.9912 C   0  0  0  0  0  0  0  0  0  0  0  0
   14.5061   38.7935    9.1220 C   0  0  0  0  0  0  0  0  0  0  0  0
   13.0046   36.9775    8.9618 C   0  0  0  0  0  0  0  0  0  0  0  0
   13.7113   35.7797    8.4255 C   0  0  0  0  0  0  0  0  0  0  0  0
   14.6422   34.6306    6.3325 C   0  0  0  0  0  0  0  0  0  0  0  0
   14.9762   34.7957    4.9839 C   0  0  0  0  0  0  0  0  0  0  0  0
   15.5769   33.7544    4.2708 C   0  0  0  0  0  0  0  0  0  0  0  0
   15.8442   32.5374    4.9035 C   0  0  0  0  0  0  0  0  0  0  0  0
   15.5104   32.3621    6.2484 C   0  0  0  0  0  0  0  0  0  0  0  0
   14.9110   33.4047    6.9609 C   0  0  0  0  0  0  0  0  0  0  0  0
   12.4769   46.2076    1.7699 N   0  0  0  0  0  0  0  0  0  0  0  0
   14.5769   46.3147    2.9414 N   0  0  0  0  0  0  0  0  0  0  0  0
   15.0673   44.9158    4.7697 N   0  0  0  0  0  0  0  0  0  0  0  0
   13.4528   43.2789    5.5746 N   0  0  0  0  0  0  0  0  0  0  0  0
   15.5163   43.1513    6.8592 N   0  0  0  0  0  0  0  0  0  0  0  0
   13.7083   41.7558    7.4221 N   0  0  0  0  0  0  0  0  0  0  0  0
   13.8689   37.6997    9.8825 N   0  0  0  0  0  0  0  0  0  0  0  0
   14.0257   35.7227    7.0284 N   0  0  0  0  0  0  0  0  0  0  0  0
   14.0257   34.8414    9.2052 O   0  0  0  0  0  0  0  0  0  0  0  0
   16.4239   31.5272    4.2128 F   0  0  0  0  0  0  0  0  0  0  0  0
  1 23  1  0
  3 24  2  0
  4 25  2  0
  4 26  1  0
  5  2  2  0
  6 28  2  0
  7 27  2  0
  8  9  2  0
 10  9  1  6
 10 11  1  0
 11 12  1  0
 12 13  1  0
 13 29  1  0
 14 29  1  0
 14 10  1  0
 15 29  1  0
 15 16  1  0
 16 30  1  0
 18 19  2  0
 20 21  2  0
 20 32  1  0
 22 17  2  0
 23  2  1  0
 26  6  1  0
 30 17  1  0
  2 24  1  0
  3 25  1  0
  4  5  1  0
  6 27  1  0
  7  8  1  0
  9 28  1  0
 16 31  2  0
 17 18  1  0
 19 20  1  0
 21 22  1  0
M  END
>  <rmsd>  (203) 
0.248096064

$$$$
MolPort-020-280-780 MCULE-5308239970 PubChem-110256833
     RDKit          3D

 25 27  0  0  0  0  0  0  0  0999 V2000
   17.6023   43.1865    8.1671 C   0  0  0  0  0  0  0  0  0  0  0  0
   16.2343   42.6689    7.9054 C   0  0  0  0  0  0  0  0  0  0  0  0
   14.4749   41.1867    8.4531 C   0  0  0  0  0  0  0  0  0  0  0  0
   13.7014   41.7126    7.4184 C   0  0  0  0  0  0  0  0  0  0  0  0
   14.2374   42.7339    6.6346 C   0  0  0  0  0  0  0  0  0  0  0  0
   13.8462   44.3270    4.6736 C   0  0  0  0  0  0  0  0  0  0  0  0
   13.3158   45.7255    2.8399 C   0  0  0  0  0  0  0  0  0  0  0  0
   14.5649   46.3369    2.9284 C   0  0  0  0  0  0  0  0  0  0  0  0
   15.4421   45.9065    3.9219 C   0  0  0  0  0  0  0  0  0  0  0  0
   13.9202   40.0927    9.3034 C   0  0  2  0  0  0  0  0  0  0  0  0
   13.8192   40.5377   10.7658 C   0  0  0  0  0  0  0  0  0  0  0  0
   13.3630   39.4169   11.7147 C   0  0  0  0  0  0  0  0  0  0  0  0
   13.2063   38.0635   11.0201 C   0  0  0  0  0  0  0  0  0  0  0  0
   14.7701   38.8260    9.1791 C   0  0  0  0  0  0  0  0  0  0  0  0
   15.1123   36.5961   10.2800 C   0  0  0  0  0  0  0  0  0  0  0  0
   14.7233   35.5576   11.2891 C   0  0  0  0  0  0  0  0  0  0  0  0
   15.8361   35.3510   12.2985 C   0  0  0  0  0  0  0  0  0  0  0  0
   14.3932   34.2445   10.6057 C   0  0  0  0  0  0  0  0  0  0  0  0
   15.7256   41.6738    8.6773 N   0  0  0  0  0  0  0  0  0  0  0  0
   15.4928   43.1912    6.8940 N   0  0  0  0  0  0  0  0  0  0  0  0
   13.4510   43.2809    5.5694 N   0  0  0  0  0  0  0  0  0  0  0  0
   12.9801   44.7368    3.7092 N   0  0  0  0  0  0  0  0  0  0  0  0
   15.0703   44.9148    4.7726 N   0  0  0  0  0  0  0  0  0  0  0  0
   14.3564   37.8102   10.1521 N   0  0  0  0  0  0  0  0  0  0  0  0
   16.1151   36.3971    9.5395 O   0  0  0  0  0  0  0  0  0  0  0  0
  1  2  1  0
  2 20  2  0
  3 19  2  0
  4  5  2  0
  5 21  1  0
  6 23  2  0
  7 22  2  0
  8  9  2  0
 10  3  1  6
 10 11  1  0
 11 12  1  0
 12 13  1  0
 13 24  1  0
 14 24  1  0
 14 10  1  0
 16 15  1  0
 16 17  1  0
 16 18  1  0
 21  6  1  0
 24 15  1  0
  2 19  1  0
  3  4  1  0
  5 20  1  0
  6 22  1  0
  7  8  1  0
  9 23  1  0
 15 25  2  0
M  END
>  <rmsd>  (204) 
0.248085871

$$$$
MolPort-019-935-295 67896704 CSSS00159303833 MCULE-5178677902 PubChem-56774757 ZINC000067896704 ZINC67896704
     RDKit          3D

 34 37  0  0  0  0  0  0  0  0999 V2000
   13.4428   39.1319   11.3066 C   0  0  0  0  0  0  0  0  0  0  0  0
   14.5356   36.9399   10.8434 C   0  0  0  0  0  0  0  0  0  0  0  0
   15.7379   37.1552   11.5660 C   0  0  0  0  0  0  0  0  0  0  0  0
   16.2129   38.5197   11.9632 C   0  0  0  0  0  0  0  0  0  0  0  0
   16.7503   39.6512    9.7633 C   0  0  2  0  0  0  0  0  0  0  0  0
   17.8397   39.5854    8.6716 C   0  0  0  0  0  0  0  0  0  0  0  0
   19.4279   38.5848    9.9152 C   0  0  0  0  0  0  0  0  0  0  0  0
   18.5757   38.6091   11.1419 C   0  0  0  0  0  0  0  0  0  0  0  0
   16.3840   41.1244    9.9949 C   0  0  1  0  0  0  0  0  0  0  0  0
   15.6280   41.6898    8.8330 C   0  0  0  0  0  0  0  0  0  0  0  0
   16.1827   42.7442    8.1016 C   0  0  0  0  0  0  0  0  0  0  0  0
   15.4883   43.2875    7.0173 C   0  0  0  0  0  0  0  0  0  0  0  0
   14.2310   42.7819    6.6537 C   0  0  0  0  0  0  0  0  0  0  0  0
   13.8995   44.3657    4.6621 C   0  0  0  0  0  0  0  0  0  0  0  0
   12.9731   44.8256    3.6102 C   0  0  0  0  0  0  0  0  0  0  0  0
   11.6997   44.3179    3.4062 C   0  0  0  0  0  0  0  0  0  0  0  0
   11.2465   45.0583    2.3269 C   0  0  0  0  0  0  0  0  0  0  0  0
    9.9129   44.9070    1.6884 C   0  0  0  0  0  0  0  0  0  0  0  0
   14.4359   46.5812    2.5599 C   0  0  0  0  0  0  0  0  0  0  0  0
   13.6780   41.7288    7.3902 C   0  0  0  0  0  0  0  0  0  0  0  0
   14.3708   41.1834    8.4745 C   0  0  0  0  0  0  0  0  0  0  0  0
   16.5775   36.0686   11.8446 C   0  0  0  0  0  0  0  0  0  0  0  0
   16.2496   34.7841   11.4102 C   0  0  0  0  0  0  0  0  0  0  0  0
   15.0806   34.5748   10.6799 C   0  0  0  0  0  0  0  0  0  0  0  0
   14.2332   35.6478   10.3971 C   0  0  0  0  0  0  0  0  0  0  0  0
   13.6149   37.9516   10.5371 O   0  0  0  0  0  0  0  0  0  0  0  0
   18.6069   38.4131    8.7864 O   0  0  0  0  0  0  0  0  0  0  0  0
   19.0475   38.2558   12.2552 O   0  0  0  0  0  0  0  0  0  0  0  0
   15.6386   41.2925   11.1640 O   0  0  0  0  0  0  0  0  0  0  0  0
   15.0421   44.8854    4.7698 O   0  0  0  0  0  0  0  0  0  0  0  0
   17.2047   39.0121   11.0101 N   0  0  0  0  0  0  0  0  0  0  0  0
   13.4853   43.3192    5.5528 N   0  0  0  0  0  0  0  0  0  0  0  0
   12.1744   45.9402    1.9131 N   0  0  0  0  0  0  0  0  0  0  0  0
   13.2225   45.7925    2.7012 N   0  0  0  0  0  0  0  0  0  0  0  0
  1 26  1  0
  2 26  1  0
  3 22  2  0
  4  3  1  0
  4 31  1  0
  5 31  1  0
  5  6  1  6
  5  9  1  0
  6 27  1  0
  7 27  1  0
  7  8  1  0
  8 31  1  0
  9 29  1  1
  9 10  1  0
 11 12  2  0
 13 32  1  0
 13 20  2  0
 14 15  1  0
 16 17  1  0
 18 17  1  0
 19 34  1  0
 21 10  2  0
 23 24  2  0
 25  2  2  0
 32 14  1  0
 34 33  1  0
 34 15  1  0
  2  3  1  0
  8 28  2  0
 10 11  1  0
 12 13  1  0
 14 30  2  0
 15 16  2  0
 17 33  2  0
 20 21  1  0
 22 23  1  0
 24 25  1  0
M  END
>  <rmsd>  (205) 
0.248056397

$$$$
MolPort-051-656-764 MCULE-2965618442
     RDKit          3D

 26 28  0  0  0  0  0  0  0  0999 V2000
   15.8924   37.8731   11.0158 C   0  0  2  0  0  0  0  0  0  0  0  0
   17.4926   36.7668   12.6525 C   0  0  0  0  0  0  0  0  0  0  0  0
   18.6400   37.6062   12.1821 C   0  0  0  0  0  0  0  0  0  0  0  0
   18.3633   38.1876   10.8013 C   0  0  0  0  0  0  0  0  0  0  0  0
   17.0156   38.8961   10.7931 C   0  0  1  0  0  0  0  0  0  0  0  0
   16.5536   40.9618    9.8077 C   0  0  0  0  0  0  0  0  0  0  0  0
   15.7689   41.5686    8.6974 C   0  0  0  0  0  0  0  0  0  0  0  0
   14.4673   41.1302    8.4296 C   0  0  0  0  0  0  0  0  0  0  0  0
   13.7303   41.7135    7.3952 C   0  0  0  0  0  0  0  0  0  0  0  0
   14.2846   42.7403    6.6230 C   0  0  0  0  0  0  0  0  0  0  0  0
   13.8911   44.3654    4.6802 C   0  0  0  0  0  0  0  0  0  0  0  0
   12.9370   44.8355    3.6429 C   0  0  0  0  0  0  0  0  0  0  0  0
   15.5882   43.1805    6.9001 C   0  0  0  0  0  0  0  0  0  0  0  0
   16.3265   42.5981    7.9344 C   0  0  0  0  0  0  0  0  0  0  0  0
   14.5568   38.5317   11.1909 C   0  0  0  0  0  0  0  0  0  0  0  0
   14.3289   39.4020   12.2678 C   0  0  0  0  0  0  0  0  0  0  0  0
   13.0868   40.0240   12.4195 C   0  0  0  0  0  0  0  0  0  0  0  0
   12.0660   39.7797   11.4972 C   0  0  0  0  0  0  0  0  0  0  0  0
   12.2863   38.9125   10.4238 C   0  0  0  0  0  0  0  0  0  0  0  0
   13.5273   38.2872   10.2689 C   0  0  0  0  0  0  0  0  0  0  0  0
   16.1721   36.9854   12.1450 N   0  0  0  0  0  0  0  0  0  0  0  0
   16.8307   39.5646    9.5159 N   0  0  0  0  0  0  0  0  0  0  0  0
   13.4971   43.3134    5.5701 N   0  0  0  0  0  0  0  0  0  0  0  0
   15.0290   44.8989    4.7595 O   0  0  0  0  0  0  0  0  0  0  0  0
   17.6803   35.9063   13.5505 O   0  0  0  0  0  0  0  0  0  0  0  0
   13.7259   37.4535    9.2176 F   0  0  0  0  0  0  0  0  0  0  0  0
  1 21  1  0
  1 15  1  1
  3  2  1  0
  3  4  1  0
  4  5  1  0
  5 22  1  6
  5  1  1  0
  6 22  1  0
  6  7  1  0
  8  9  2  0
 10 23  1  0
 10 13  2  0
 12 11  1  0
 14  7  2  0
 16 17  2  0
 18 19  2  0
 20 26  1  0
 20 15  2  0
 21  2  1  0
 23 11  1  0
  2 25  2  0
  7  8  1  0
  9 10  1  0
 11 24  2  0
 13 14  1  0
 15 16  1  0
 17 18  1  0
 19 20  1  0
M  END
>  <rmsd>  (206) 
0.248055607

$$$$
MolPort-001-908-547 2968747 CHEMBL1883492 CSSS00160004050 MCULE-8852134729 PubChem-2274529 ZINC000002968747 ZINC02968747
     RDKit          3D

 22 23  0  0  0  0  0  0  0  0999 V2000
   11.2315   39.4826   10.7645 C   0  0  0  0  0  0  0  0  0  0  0  0
   12.3399   38.8046   11.5473 C   0  0  0  0  0  0  0  0  0  0  0  0
   13.5890   39.6711   11.5655 C   0  0  0  0  0  0  0  0  0  0  0  0
   14.4082   39.4824   10.2982 C   0  0  0  0  0  0  0  0  0  0  0  0
   14.3751   41.1465    8.4664 C   0  0  0  0  0  0  0  0  0  0  0  0
   15.6636   41.6108    8.7745 C   0  0  0  0  0  0  0  0  0  0  0  0
   16.2391   42.6379    8.0230 C   0  0  0  0  0  0  0  0  0  0  0  0
   15.5312   43.2059    6.9610 C   0  0  0  0  0  0  0  0  0  0  0  0
   14.2432   42.7503    6.6428 C   0  0  0  0  0  0  0  0  0  0  0  0
   13.9008   44.3577    4.6759 C   0  0  0  0  0  0  0  0  0  0  0  0
   12.9619   44.8434    3.6275 C   0  0  0  0  0  0  0  0  0  0  0  0
   12.7204   47.3454    4.3797 C   0  0  0  0  0  0  0  0  0  0  0  0
   13.9544   49.3571    3.9936 C   0  0  0  0  0  0  0  0  0  0  0  0
   14.5994   50.6061    3.5120 C   0  0  0  0  0  0  0  0  0  0  0  0
   13.6741   41.7215    7.4012 C   0  0  0  0  0  0  0  0  0  0  0  0
   13.7704   40.1217    9.1992 O   0  0  0  0  0  0  0  0  0  0  0  0
   15.0392   44.8869    4.7773 O   0  0  0  0  0  0  0  0  0  0  0  0
   13.4850   43.3104    5.5621 N   0  0  0  0  0  0  0  0  0  0  0  0
   13.4969   47.6993    5.4262 N   0  0  0  0  0  0  0  0  0  0  0  0
   14.1850   48.8191    5.2105 N   0  0  0  0  0  0  0  0  0  0  0  0
   11.6744   45.8947    4.3674 S   0  0  0  0  0  0  0  0  0  0  0  0
   12.8542   48.4405    3.1083 S   0  0  0  0  0  0  0  0  0  0  0  0
  1  2  1  0
  2  3  1  0
  3  4  1  0
  4 16  1  0
  5 16  1  0
  6  7  2  0
  8  9  2  0
  9 18  1  0
 11 10  1  0
 11 21  1  0
 12 21  1  0
 12 22  1  0
 13 22  1  0
 14 13  1  0
 15  5  2  0
 18 10  1  0
 19 20  1  0
  5  6  1  0
  7  8  1  0
  9 15  1  0
 10 17  2  0
 12 19  2  0
 13 20  2  0
M  END
>  <rmsd>  (207) 
0.248051539

$$$$
MolPort-003-020-506 4087324 CHEMBL1459600 CSSS03437084380 LN01391650 MCULE-9036670436 PubChem-4617706 ZINC000004087324
     RDKit          3D

 25 27  0  0  0  0  0  0  0  0999 V2000
   14.2495   42.7309    6.6108 C   0  0  0  0  0  0  0  0  0  0  0  0
   13.8465   44.4808    4.8085 C   0  0  0  0  0  0  0  0  0  0  0  0
   12.8313   45.1527    3.9219 C   0  0  0  0  0  0  0  0  0  0  0  0
   13.1924   46.6096    3.6842 C   0  0  0  0  0  0  0  0  0  0  0  0
   12.7801   44.4368    2.5868 C   0  0  0  0  0  0  0  0  0  0  0  0
   11.4533   45.1065    4.5579 C   0  0  0  0  0  0  0  0  0  0  0  0
   15.2567   41.1960    8.3000 C   0  0  0  0  0  0  0  0  0  0  0  0
   15.5352   42.5379    8.5490 C   0  0  0  0  0  0  0  0  0  0  0  0
   16.3276   43.0015    9.7273 C   0  0  0  0  0  0  0  0  0  0  0  0
   14.9646   43.4077    7.6029 C   0  0  0  0  0  0  0  0  0  0  0  0
   15.0190   44.8437    7.7260 C   0  0  0  0  0  0  0  0  0  0  0  0
   15.6525   40.0384    9.1577 C   0  0  0  0  0  0  0  0  0  0  0  0
   14.5829   39.7327   10.1506 C   0  0  0  0  0  0  0  0  0  0  0  0
   14.5922   40.3673   11.4137 C   0  0  0  0  0  0  0  0  0  0  0  0
   13.5772   40.1065   12.3520 C   0  0  0  0  0  0  0  0  0  0  0  0
   12.5766   39.2111   11.9831 C   0  0  0  0  0  0  0  0  0  0  0  0
   12.5632   38.6039   10.7690 C   0  0  0  0  0  0  0  0  0  0  0  0
   10.7362   37.8696   11.9151 C   0  0  0  0  0  0  0  0  0  0  0  0
   13.5498   38.8367    9.8145 C   0  0  0  0  0  0  0  0  0  0  0  0
   13.4811   43.3093    5.5492 N   0  0  0  0  0  0  0  0  0  0  0  0
   15.0623   45.9957    7.8272 N   0  0  0  0  0  0  0  0  0  0  0  0
   15.0455   44.8753    4.8076 O   0  0  0  0  0  0  0  0  0  0  0  0
   11.4611   37.7774   10.6804 O   0  0  0  0  0  0  0  0  0  0  0  0
   11.4836   38.7953   12.7169 O   0  0  0  0  0  0  0  0  0  0  0  0
   14.2837   41.0824    6.9326 S   0  0  0  0  0  0  0  0  0  0  0  0
  1 20  1  0
  1 25  1  0
  3  2  1  0
  3  4  1  0
  3  5  1  0
  3  6  1  0
  7 25  1  0
  8 10  1  0
  9  8  1  0
 10 11  1  0
 12  7  1  0
 12 13  1  0
 14 15  2  0
 16 17  2  0
 16 24  1  0
 17 23  1  0
 18 23  1  0
 18 24  1  0
 19 13  2  0
 20  2  1  0
  2 22  2  0
  7  8  2  0
 10  1  2  0
 13 14  1  0
 15 16  1  0
 17 19  1  0
 11 21  3  0
M  END
>  <rmsd>  (208) 
0.248034239

$$$$
Molport-047-071-874 PubChem-132766510
     RDKit          3D

 31 34  0  0  0  0  0  0  0  0999 V2000
   16.7899   46.5259    4.0560 C   0  0  0  0  0  0  0  0  0  0  0  0
   15.4472   45.9035    3.9239 C   0  0  0  0  0  0  0  0  0  0  0  0
   14.5731   46.3358    2.9284 C   0  0  0  0  0  0  0  0  0  0  0  0
   13.3231   45.7265    2.8373 C   0  0  0  0  0  0  0  0  0  0  0  0
   12.3624   46.1557    1.7885 C   0  0  0  0  0  0  0  0  0  0  0  0
   13.8473   44.3268    4.6721 C   0  0  0  0  0  0  0  0  0  0  0  0
   14.2324   42.7355    6.6349 C   0  0  0  0  0  0  0  0  0  0  0  0
   13.6938   41.7163    7.4197 C   0  0  0  0  0  0  0  0  0  0  0  0
   14.4643   41.1926    8.4576 C   0  0  0  0  0  0  0  0  0  0  0  0
   16.2263   42.6721    7.9108 C   0  0  0  0  0  0  0  0  0  0  0  0
   17.5942   43.1899    8.1753 C   0  0  0  0  0  0  0  0  0  0  0  0
   13.9078   40.0992    9.3074 C   0  0  2  0  0  0  0  0  0  0  0  0
   13.8201   40.5390   10.7726 C   0  0  0  0  0  0  0  0  0  0  0  0
   13.4119   39.4064   11.7283 C   0  0  0  0  0  0  0  0  0  0  0  0
   13.1941   38.0712   11.0177 C   0  0  0  0  0  0  0  0  0  0  0  0
   14.7443   38.8255    9.1680 C   0  0  0  0  0  0  0  0  0  0  0  0
   15.1009   36.5912   10.2408 C   0  0  0  0  0  0  0  0  0  0  0  0
   14.5925   35.3516   10.8584 C   0  0  0  0  0  0  0  0  0  0  0  0
   13.3202   35.1540   11.1869 C   0  0  0  0  0  0  0  0  0  0  0  0
   12.8717   33.9003   11.7982 C   0  0  0  0  0  0  0  0  0  0  0  0
   11.5765   33.6249   12.1616 C   0  0  0  0  0  0  0  0  0  0  0  0
   12.8354   31.9460   12.6169 C   0  0  0  0  0  0  0  0  0  0  0  0
   12.9843   44.7379    3.7057 N   0  0  0  0  0  0  0  0  0  0  0  0
   13.4487   43.2817    5.5673 N   0  0  0  0  0  0  0  0  0  0  0  0
   15.7156   41.6786    8.6834 N   0  0  0  0  0  0  0  0  0  0  0  0
   15.4877   43.1925    6.8965 N   0  0  0  0  0  0  0  0  0  0  0  0
   14.3157   37.7938   10.1189 N   0  0  0  0  0  0  0  0  0  0  0  0
   11.5602   32.3837   12.6803 N   0  0  0  0  0  0  0  0  0  0  0  0
   13.6706   32.8561   12.0779 N   0  0  0  0  0  0  0  0  0  0  0  0
   15.0716   44.9129    4.7738 N   0  0  0  0  0  0  0  0  0  0  0  0
   16.2784   36.5751    9.7929 O   0  0  0  0  0  0  0  0  0  0  0  0
  1  2  1  0
  2 30  2  0
  3  4  2  0
  5  4  1  0
  6 23  2  0
  6 24  1  0
  7 26  2  0
  8  9  2  0
 10 25  2  0
 11 10  1  0
 12  9  1  6
 12 13  1  0
 13 14  1  0
 14 15  1  0
 15 27  1  0
 16 27  1  0
 16 12  1  0
 17 18  1  0
 19 20  1  0
 21 28  1  0
 22 29  1  0
 24  7  1  0
 27 17  1  0
 29 20  1  0
  2  3  1  0
  4 23  1  0
  6 30  1  0
  7  8  1  0
  9 25  1  0
 10 26  1  0
 17 31  2  0
 18 19  2  0
 20 21  2  0
 22 28  2  0
M  END
>  <rmsd>  (209) 
0.248018891

$$$$
Molport-020-292-983 CHEMBL3504835 CHEMBL3550852 MCULE-5536403963 MCULE-9979805251 PubChem-110265450 PubChem-118747446
     RDKit          3D

 22 24  0  0  0  0  0  0  0  0999 V2000
   12.6408   37.2843    9.3189 C   0  0  0  0  0  0  0  0  0  0  0  0
   13.7210   38.0640   11.3146 C   0  0  0  0  0  0  0  0  0  0  0  0
   12.9016   39.3499   11.4615 C   0  0  0  0  0  0  0  0  0  0  0  0
   13.5731   40.4781   10.6966 C   0  0  0  0  0  0  0  0  0  0  0  0
   13.7305   40.0744    9.2363 C   0  0  2  0  0  0  0  0  0  0  0  0
   14.5193   38.7621    9.1285 C   0  0  0  0  0  0  0  0  0  0  0  0
   14.3868   41.1611    8.4457 C   0  0  0  0  0  0  0  0  0  0  0  0
   15.6846   41.5948    8.7484 C   0  0  0  0  0  0  0  0  0  0  0  0
   16.2600   42.6105    7.9859 C   0  0  0  0  0  0  0  0  0  0  0  0
   15.5416   43.1809    6.9353 C   0  0  0  0  0  0  0  0  0  0  0  0
   14.2454   42.7275    6.6549 C   0  0  0  0  0  0  0  0  0  0  0  0
   13.8413   44.3222    4.6763 C   0  0  0  0  0  0  0  0  0  0  0  0
   13.2758   45.7004    2.8372 C   0  0  0  0  0  0  0  0  0  0  0  0
   12.2937   46.1129    1.8011 C   0  0  0  0  0  0  0  0  0  0  0  0
   14.5212   46.3223    2.9034 C   0  0  0  0  0  0  0  0  0  0  0  0
   15.4146   45.9075    3.8890 C   0  0  0  0  0  0  0  0  0  0  0  0
   16.7531   46.5440    3.9950 C   0  0  0  0  0  0  0  0  0  0  0  0
   13.9153   37.6744    9.9106 N   0  0  0  0  0  0  0  0  0  0  0  0
   13.4637   43.2800    5.5861 N   0  0  0  0  0  0  0  0  0  0  0  0
   12.9598   44.7170    3.7197 N   0  0  0  0  0  0  0  0  0  0  0  0
   15.0616   44.9207    4.7531 N   0  0  0  0  0  0  0  0  0  0  0  0
   13.7078   41.7347    7.4153 N   0  0  0  0  0  0  0  0  0  0  0  0
  1 18  1  0
  2 18  1  0
  2  3  1  0
  3  4  1  0
  4  5  1  0
  5  6  1  0
  5  7  1  6
  6 18  1  0
  7 22  2  0
  8  9  2  0
 10 11  2  0
 11 19  1  0
 12 21  2  0
 13 20  2  0
 14 13  1  0
 15 16  2  0
 17 16  1  0
 19 12  1  0
  7  8  1  0
  9 10  1  0
 11 22  1  0
 12 20  1  0
 13 15  1  0
 16 21  1  0
M  END
>  <rmsd>  (210) 
0.248006493

$$$$
MolPort-020-278-773 MCULE-9791678562 PubChem-110255643
     RDKit          3D

 25 27  0  0  0  0  0  0  0  0999 V2000
   17.6032   43.1837    8.1660 C   0  0  0  0  0  0  0  0  0  0  0  0
   16.2347   42.6670    7.9048 C   0  0  0  0  0  0  0  0  0  0  0  0
   14.4745   41.1861    8.4531 C   0  0  0  0  0  0  0  0  0  0  0  0
   13.7010   41.7126    7.4189 C   0  0  0  0  0  0  0  0  0  0  0  0
   14.2374   42.7335    6.6348 C   0  0  0  0  0  0  0  0  0  0  0  0
   13.8464   44.3270    4.6743 C   0  0  0  0  0  0  0  0  0  0  0  0
   15.4430   45.9055    3.9219 C   0  0  0  0  0  0  0  0  0  0  0  0
   14.5657   46.3366    2.9288 C   0  0  0  0  0  0  0  0  0  0  0  0
   13.3161   45.7261    2.8409 C   0  0  0  0  0  0  0  0  0  0  0  0
   13.9193   40.0925    9.3039 C   0  0  2  0  0  0  0  0  0  0  0  0
   13.8177   40.5385   10.7660 C   0  0  0  0  0  0  0  0  0  0  0  0
   13.3648   39.4175   11.7162 C   0  0  0  0  0  0  0  0  0  0  0  0
   13.2039   38.0647   11.0216 C   0  0  0  0  0  0  0  0  0  0  0  0
   14.7684   38.8254    9.1802 C   0  0  0  0  0  0  0  0  0  0  0  0
   15.1042   36.5926   10.2766 C   0  0  0  0  0  0  0  0  0  0  0  0
   14.7052   35.5382   11.2555 C   0  0  0  0  0  0  0  0  0  0  0  0
   13.3706   33.8413   11.7052 C   0  0  0  0  0  0  0  0  0  0  0  0
   15.7257   41.6724    8.6770 N   0  0  0  0  0  0  0  0  0  0  0  0
   15.4932   43.1899    6.8938 N   0  0  0  0  0  0  0  0  0  0  0  0
   13.4509   43.2811    5.5700 N   0  0  0  0  0  0  0  0  0  0  0  0
   15.0708   44.9140    4.7726 N   0  0  0  0  0  0  0  0  0  0  0  0
   12.9801   44.7375    3.7103 N   0  0  0  0  0  0  0  0  0  0  0  0
   14.3519   37.8091   10.1514 N   0  0  0  0  0  0  0  0  0  0  0  0
   16.1005   36.3839    9.5337 O   0  0  0  0  0  0  0  0  0  0  0  0
   13.7714   34.6839   10.6697 O   0  0  0  0  0  0  0  0  0  0  0  0
  1  2  1  0
  2 19  2  0
  3 18  2  0
  4  5  2  0
  5 20  1  0
  6 22  2  0
  7 21  2  0
  8  9  2  0
 10  3  1  6
 10 11  1  0
 11 12  1  0
 12 13  1  0
 13 23  1  0
 14 23  1  0
 14 10  1  0
 16 15  1  0
 16 25  1  0
 17 25  1  0
 20  6  1  0
 23 15  1  0
  2 18  1  0
  3  4  1  0
  5 19  1  0
  6 21  1  0
  7  8  1  0
  9 22  1  0
 15 24  2  0
M  END
>  <rmsd>  (211) 
0.247926652

$$$$
MolPort-007-967-229 ChemDiv-L497-0054 MCULE-7610445205 PubChem-46385453 ZINC000033129563 ZINC33129563
     RDKit          3D

 27 29  0  0  0  0  0  0  0  0999 V2000
   12.5852   46.5123   -1.0245 C   0  0  0  0  0  0  0  0  0  0  0  0
   12.8377   45.4002    1.1703 C   0  0  0  0  0  0  0  0  0  0  0  0
   13.5882   45.2455    2.3395 C   0  0  0  0  0  0  0  0  0  0  0  0
   13.1741   44.3602    3.3443 C   0  0  0  0  0  0  0  0  0  0  0  0
   11.9946   43.6255    3.1658 C   0  0  0  0  0  0  0  0  0  0  0  0
   11.2311   43.7704    1.9972 C   0  0  0  0  0  0  0  0  0  0  0  0
    9.5455   42.1258    2.7529 C   0  0  0  0  0  0  0  0  0  0  0  0
   11.6577   44.6579    1.0054 C   0  0  0  0  0  0  0  0  0  0  0  0
   13.9708   44.2006    4.5731 C   0  0  0  0  0  0  0  0  0  0  0  0
   14.3134   42.8497    6.7061 C   0  0  0  0  0  0  0  0  0  0  0  0
   15.6697   42.5181    6.6369 C   0  0  0  0  0  0  0  0  0  0  0  0
   16.5319   42.5035    5.4228 C   0  0  0  0  0  0  0  0  0  0  0  0
   14.6598   42.1194    8.8741 C   0  0  0  0  0  0  0  0  0  0  0  0
   13.7374   42.6082    7.9595 C   0  0  0  0  0  0  0  0  0  0  0  0
   13.4262   39.3316    9.8778 C   0  0  0  0  0  0  0  0  0  0  0  0
   12.4326   38.6160   10.7668 C   0  0  0  0  0  0  0  0  0  0  0  0
   13.1387   38.4746   12.0835 C   0  0  0  0  0  0  0  0  0  0  0  0
   14.1021   39.6347   12.1047 C   0  0  0  0  0  0  0  0  0  0  0  0
   13.2847   46.2933    0.1929 O   0  0  0  0  0  0  0  0  0  0  0  0
   10.0514   43.0485    1.7977 O   0  0  0  0  0  0  0  0  0  0  0  0
   15.0198   44.8818    4.7350 O   0  0  0  0  0  0  0  0  0  0  0  0
   12.9163   42.1331   10.8857 O   0  0  0  0  0  0  0  0  0  0  0  0
   15.2886   42.3693   11.4393 O   0  0  0  0  0  0  0  0  0  0  0  0
   13.5230   43.3113    5.6039 N   0  0  0  0  0  0  0  0  0  0  0  0
   14.4401   39.9589   10.7231 N   0  0  0  0  0  0  0  0  0  0  0  0
   16.1598   41.9450    8.1377 S   0  0  0  0  0  0  0  0  0  0  0  0
   14.3070   41.6794   10.5337 S   0  0  0  0  0  0  0  0  0  0  0  0
  1 19  1  0
  2 19  1  0
  3  4  2  0
  4  9  1  0
  5  6  2  0
  6 20  1  0
  7 20  1  0
  8  2  2  0
  9 24  1  0
 11 26  1  0
 12 11  1  0
 13 26  1  0
 14 10  1  0
 15 25  1  0
 15 16  1  0
 16 17  1  0
 17 18  1  0
 18 25  1  0
 24 10  1  0
 27 13  1  0
 27 25  1  0
  2  3  1  0
  4  5  1  0
  6  8  1  0
  9 21  2  0
 10 11  2  0
 13 14  2  0
 27 22  2  0
 27 23  2  0
M  END
>  <rmsd>  (212) 
0.247921661

$$$$
MolPort-039-210-490 CSSS03437013364 MCULE-2337650426 PubChem-121017037
     RDKit          3D

 25 28  0  0  0  0  0  0  0  0999 V2000
   15.1125   45.0202    4.6957 O   0  0  0  0  0  0  0  0  0  0  0  0
   13.4624   45.7482    6.3738 O   0  0  0  0  0  0  0  0  0  0  0  0
   12.9817   40.0071    9.9412 O   0  0  0  0  0  0  0  0  0  0  0  0
    9.8751   46.1828    0.9089 O   0  0  0  0  0  0  0  0  0  0  0  0
   13.7011   44.8586    5.1864 S   0  0  0  0  0  0  0  0  0  0  0  0
   13.4389   43.2073    5.6389 N   0  0  0  0  0  0  0  0  0  0  0  0
   14.9258   41.0706    8.0545 N   0  0  0  0  0  0  0  0  0  0  0  0
   15.6269   42.1711    8.2796 N   0  0  0  0  0  0  0  0  0  0  0  0
   14.1905   42.5644    6.6683 C   0  0  0  0  0  0  0  0  0  0  0  0
   14.0239   41.2611    7.0757 C   0  0  0  0  0  0  0  0  0  0  0  0
   15.0926   39.8386    8.8078 C   0  0  0  0  0  0  0  0  0  0  0  0
   14.3732   39.9350   10.1427 C   0  0  2  0  0  0  0  0  0  0  0  0
   14.7459   38.7282   11.0169 C   0  0  0  0  0  0  0  0  0  0  0  0
   13.5223   38.1496   11.7332 C   0  0  0  0  0  0  0  0  0  0  0  0
   12.5801   39.2527   12.2223 C   0  0  0  0  0  0  0  0  0  0  0  0
   12.4285   40.3746   11.1819 C   0  0  0  0  0  0  0  0  0  0  0  0
   15.1979   43.1255    7.4306 C   0  0  0  0  0  0  0  0  0  0  0  0
   12.5892   45.2975    3.9037 C   0  0  0  0  0  0  0  0  0  0  0  0
   11.5548   44.4190    3.5337 C   0  0  0  0  0  0  0  0  0  0  0  0
   10.6915   44.8103    2.5115 C   0  0  0  0  0  0  0  0  0  0  0  0
   10.8352   46.0101    1.8793 C   0  0  0  0  0  0  0  0  0  0  0  0
    9.0170   45.0424    0.8614 C   0  0  0  0  0  0  0  0  0  0  0  0
    9.5375   44.0710    1.9440 C   0  0  0  0  0  0  0  0  0  0  0  0
   11.8470   46.9056    2.2209 C   0  0  0  0  0  0  0  0  0  0  0  0
   12.7317   46.5379    3.2478 C   0  0  0  0  0  0  0  0  0  0  0  0
  5  6  1  0
  5 18  1  0
  6  9  1  0
  7  8  1  0
 10  7  1  0
 11  7  1  0
 12 11  1  6
 12 13  1  0
 12  3  1  0
 13 14  1  0
 14 15  1  0
 15 16  1  0
 16  3  1  0
 17  9  1  0
 19 20  2  0
 21  4  1  0
 21 24  2  0
 22  4  1  0
 22 23  1  0
 23 20  1  0
 25 18  2  0
  5  1  2  0
  5  2  2  0
  9 10  2  0
 17  8  2  0
 18 19  1  0
 20 21  1  0
 24 25  1  0
M  END
>  <rmsd>  (213) 
0.247878194

$$$$
MolPort-051-443-739 2356137063 CSSS09880969218 MCULE-4277650856 PubChem-162637231 QEFWAKVEWCZNOH-UHFFFAOYSA-N
     RDKit          3D

 27 29  0  0  0  0  0  0  0  0999 V2000
   13.9306   44.3020    4.6384 C   0  0  0  0  0  0  0  0  0  0  0  0
   14.2327   42.8658    6.7064 C   0  0  0  0  0  0  0  0  0  0  0  0
   13.8185   41.9286    7.6155 C   0  0  0  0  0  0  0  0  0  0  0  0
   14.8446   41.8438    8.5108 C   0  0  0  0  0  0  0  0  0  0  0  0
   14.7937   40.9857    9.6053 C   0  0  0  0  0  0  0  0  0  0  0  0
   13.6412   40.1830    9.7579 C   0  0  0  0  0  0  0  0  0  0  0  0
   13.5095   39.2770   10.9473 C   0  0  0  0  0  0  0  0  0  0  0  0
   12.5745   40.2951    8.8294 C   0  0  0  0  0  0  0  0  0  0  0  0
   12.6560   41.1746    7.7339 C   0  0  0  0  0  0  0  0  0  0  0  0
   13.0389   44.7015    3.5145 C   0  0  0  0  0  0  0  0  0  0  0  0
   10.8115   45.3702    4.4404 C   0  0  0  0  0  0  0  0  0  0  0  0
   10.2386   43.9923    4.5037 C   0  0  0  0  0  0  0  0  0  0  0  0
   10.2000   46.5519    4.8345 C   0  0  0  0  0  0  0  0  0  0  0  0
    8.8477   46.7492    5.4031 C   0  0  0  0  0  0  0  0  0  0  0  0
    7.9232   45.6032    5.6263 C   0  0  0  0  0  0  0  0  0  0  0  0
   11.1594   47.5251    4.5794 C   0  0  0  0  0  0  0  0  0  0  0  0
   11.0325   48.9887    4.8255 C   0  0  0  0  0  0  0  0  0  0  0  0
   13.4868   43.3098    5.5689 N   0  0  0  0  0  0  0  0  0  0  0  0
   15.8372   42.6865    8.1697 N   0  0  0  0  0  0  0  0  0  0  0  0
   15.4600   43.3152    7.0586 N   0  0  0  0  0  0  0  0  0  0  0  0
   12.0459   45.6578    3.9826 N   0  0  0  0  0  0  0  0  0  0  0  0
   12.2698   46.9588    4.0686 N   0  0  0  0  0  0  0  0  0  0  0  0
   14.7531   38.8153   11.3426 F   0  0  0  0  0  0  0  0  0  0  0  0
   12.7127   38.1881   10.6388 F   0  0  0  0  0  0  0  0  0  0  0  0
   12.9343   39.9759   11.9921 F   0  0  0  0  0  0  0  0  0  0  0  0
   15.0483   44.8666    4.7742 O   0  0  0  0  0  0  0  0  0  0  0  0
    8.4546   47.9051    5.7104 O   0  0  0  0  0  0  0  0  0  0  0  0
  1 18  1  0
  2  3  1  0
  3  4  2  0
  4 19  1  0
  5  6  2  0
  7  6  1  0
  7 23  1  0
  7 24  1  0
  7 25  1  0
  8  9  2  0
 10  1  1  0
 10 21  1  0
 12 11  1  0
 13 14  1  0
 13 16  1  0
 15 14  1  0
 17 16  1  0
 18  2  1  0
 19 20  1  0
 21 11  1  0
 21 22  1  0
  1 26  2  0
  2 20  2  0
  4  5  1  0
  6  8  1  0
  9  3  1  0
 11 13  2  0
 14 27  2  0
 16 22  2  0
M  END
>  <rmsd>  (214) 
0.247838199

$$$$
MolPort-002-625-187 9359837 PubChem-2044515 ZINC000009359837 ZINC09359837
     RDKit          3D

 26 29  0  0  0  0  0  0  0  0999 V2000
   14.2913   38.7764   11.6936 C   0  0  0  0  0  0  0  0  0  0  0  0
   13.0451   39.4409   11.1394 C   0  0  0  0  0  0  0  0  0  0  0  0
   13.3333   40.0599    9.7837 C   0  0  0  0  0  0  0  0  0  0  0  0
   14.1283   41.3448    9.9459 C   0  0  0  0  0  0  0  0  0  0  0  0
   14.1607   42.8252    6.6910 C   0  0  0  0  0  0  0  0  0  0  0  0
   14.0220   44.2087    4.5505 C   0  0  0  0  0  0  0  0  0  0  0  0
   13.3245   44.3872    3.2679 C   0  0  0  0  0  0  0  0  0  0  0  0
   11.5078   43.8210    1.8388 C   0  0  0  0  0  0  0  0  0  0  0  0
   11.9785   44.6926    0.8548 C   0  0  0  0  0  0  0  0  0  0  0  0
   13.1453   45.4202    1.0916 C   0  0  0  0  0  0  0  0  0  0  0  0
   13.8247   45.2701    2.3016 C   0  0  0  0  0  0  0  0  0  0  0  0
   15.5242   42.6372    6.8570 C   0  0  0  0  0  0  0  0  0  0  0  0
   16.6367   42.8333    6.0449 C   0  0  0  0  0  0  0  0  0  0  0  0
   17.8846   42.4585    6.5723 C   0  0  0  0  0  0  0  0  0  0  0  0
   19.0492   42.6378    5.8226 C   0  0  0  0  0  0  0  0  0  0  0  0
   20.2865   42.2598    6.3534 C   0  0  0  0  0  0  0  0  0  0  0  0
   20.3650   41.7002    7.6333 C   0  0  0  0  0  0  0  0  0  0  0  0
   19.2071   41.5127    8.3949 C   0  0  0  0  0  0  0  0  0  0  0  0
   17.9635   41.8864    7.8800 C   0  0  0  0  0  0  0  0  0  0  0  0
   15.6396   42.0758    8.0951 C   0  0  0  0  0  0  0  0  0  0  0  0
   14.4248   41.9160    8.6416 N   0  0  0  0  0  0  0  0  0  0  0  0
   13.5100   42.3643    7.7879 N   0  0  0  0  0  0  0  0  0  0  0  0
   13.4780   43.3181    5.5318 N   0  0  0  0  0  0  0  0  0  0  0  0
   12.1834   43.6879    3.0119 N   0  0  0  0  0  0  0  0  0  0  0  0
   16.8310   41.6950    8.6208 N   0  0  0  0  0  0  0  0  0  0  0  0
   15.0641   44.8735    4.7988 O   0  0  0  0  0  0  0  0  0  0  0  0
  1  2  1  0
  2  3  1  0
  3  4  1  0
  4 21  1  0
  5 23  1  0
  5 12  1  0
  6  7  1  0
  8 24  2  0
  9 10  2  0
 11  7  2  0
 13 14  2  0
 15 16  2  0
 17 18  2  0
 19 25  2  0
 19 14  1  0
 20 21  1  0
 20 12  2  0
 21 22  1  0
 23  6  1  0
  5 22  2  0
  6 26  2  0
  7 24  1  0
  8  9  1  0
 10 11  1  0
 12 13  1  0
 14 15  1  0
 16 17  1  0
 18 19  1  0
 20 25  1  0
M  END
>  <rmsd>  (215) 
0.247805923

$$$$
MolPort-051-449-184 CSSS09880959523 MCULE-2042059605 PubChem-162638207
     RDKit          3D

 24 26  0  0  0  0  0  0  0  0999 V2000
   12.3015   38.6129   10.9553 F   0  0  0  0  0  0  0  0  0  0  0  0
   14.5371   38.3630   10.8996 F   0  0  0  0  0  0  0  0  0  0  0  0
   13.6161   40.0086   12.1329 F   0  0  0  0  0  0  0  0  0  0  0  0
   13.5106   39.2880   10.9573 C   0  0  0  0  0  0  0  0  0  0  0  0
   13.6099   40.2213    9.7859 C   0  0  0  0  0  0  0  0  0  0  0  0
   12.5448   40.3317    8.8546 C   0  0  0  0  0  0  0  0  0  0  0  0
   12.6312   41.2049    7.7545 C   0  0  0  0  0  0  0  0  0  0  0  0
   13.8011   41.9462    7.6277 C   0  0  0  0  0  0  0  0  0  0  0  0
   14.8327   41.8498    8.5160 C   0  0  0  0  0  0  0  0  0  0  0  0
   14.2248   42.8699    6.7087 C   0  0  0  0  0  0  0  0  0  0  0  0
   13.9403   44.2890    4.6273 C   0  0  0  0  0  0  0  0  0  0  0  0
   13.0728   44.6598    3.4778 C   0  0  0  0  0  0  0  0  0  0  0  0
   11.5265   46.0330    2.7081 C   0  0  0  0  0  0  0  0  0  0  0  0
   10.4702   47.0791    3.0158 C   0  0  1  0  0  0  0  0  0  0  0  0
   11.1167   48.3552    3.5089 C   0  0  0  0  0  0  0  0  0  0  0  0
   10.3356   49.4403    2.8317 C   0  0  0  0  0  0  0  0  0  0  0  0
    9.2991   48.6925    2.0267 C   0  0  0  0  0  0  0  0  0  0  0  0
   14.7780   40.9962    9.6139 C   0  0  0  0  0  0  0  0  0  0  0  0
   15.8380   42.6713    8.1604 N   0  0  0  0  0  0  0  0  0  0  0  0
   15.4634   43.2986    7.0477 N   0  0  0  0  0  0  0  0  0  0  0  0
   13.4841   43.3100    5.5657 N   0  0  0  0  0  0  0  0  0  0  0  0
   15.0503   44.8651    4.7771 O   0  0  0  0  0  0  0  0  0  0  0  0
   12.1197   45.5902    3.8910 O   0  0  0  0  0  0  0  0  0  0  0  0
    9.7417   47.3731    1.8544 O   0  0  0  0  0  0  0  0  0  0  0  0
  4  1  1  0
  4  2  1  0
  4  3  1  0
  4  5  1  0
  6  7  2  0
  8  9  2  0
  9 19  1  0
 10 21  1  0
 10  8  1  0
 12 11  1  0
 12 23  1  0
 13 23  1  0
 14 13  1  6
 14 15  1  0
 14 24  1  0
 15 16  1  0
 16 17  1  0
 17 24  1  0
 18  5  2  0
 19 20  1  0
 21 11  1  0
  5  6  1  0
  7  8  1  0
  9 18  1  0
 10 20  2  0
 11 22  2  0
M  END
>  <rmsd>  (216) 
0.247777045

$$$$
MolPort-020-292-478 MCULE-2904049977 PubChem-110264946
     RDKit          3D

 28 30  0  0  0  0  0  0  0  0999 V2000
   12.3805   46.0929    1.7381 C   0  0  0  0  0  0  0  0  0  0  0  0
   13.3335   45.6897    2.8047 C   0  0  0  0  0  0  0  0  0  0  0  0
   14.5741   46.3170    2.9041 C   0  0  0  0  0  0  0  0  0  0  0  0
   15.4408   45.9093    3.9160 C   0  0  0  0  0  0  0  0  0  0  0  0
   13.8536   44.3177    4.6616 C   0  0  0  0  0  0  0  0  0  0  0  0
   14.2342   42.6957    6.6191 C   0  0  0  0  0  0  0  0  0  0  0  0
   13.6433   41.7286    7.4360 C   0  0  0  0  0  0  0  0  0  0  0  0
   14.3862   41.1415    8.4637 C   0  0  0  0  0  0  0  0  0  0  0  0
   16.2826   42.4468    7.8787 C   0  0  0  0  0  0  0  0  0  0  0  0
   15.5693   43.0548    6.8443 C   0  0  0  0  0  0  0  0  0  0  0  0
   17.6992   42.8219    8.1237 C   0  0  0  0  0  0  0  0  0  0  0  0
   13.7505   40.1066    9.3303 C   0  0  2  0  0  0  0  0  0  0  0  0
   13.7279   40.5594   10.7936 C   0  0  0  0  0  0  0  0  0  0  0  0
   13.6380   39.3848   11.7709 C   0  0  0  0  0  0  0  0  0  0  0  0
   13.0130   38.1667   11.0959 C   0  0  0  0  0  0  0  0  0  0  0  0
   14.4597   38.7563    9.1806 C   0  0  0  0  0  0  0  0  0  0  0  0
   13.5717   34.6709   10.2929 C   0  0  0  0  0  0  0  0  0  0  0  0
   11.4314   35.5005   10.7256 C   0  0  0  0  0  0  0  0  0  0  0  0
   16.7729   46.5524    4.0583 C   0  0  0  0  0  0  0  0  0  0  0  0
   15.0680   44.9230    4.7724 N   0  0  0  0  0  0  0  0  0  0  0  0
   12.9967   44.7073    3.6806 N   0  0  0  0  0  0  0  0  0  0  0  0
   13.4534   43.2805    5.5674 N   0  0  0  0  0  0  0  0  0  0  0  0
   15.6825   41.5110    8.6611 N   0  0  0  0  0  0  0  0  0  0  0  0
   13.8421   37.6795    9.9806 N   0  0  0  0  0  0  0  0  0  0  0  0
   12.3861   35.2277    9.6648 N   0  0  0  0  0  0  0  0  0  0  0  0
   12.8348   36.7335    8.9210 S   0  0  0  0  0  0  0  0  0  0  0  0
   13.5915   36.4282    7.6574 O   0  0  0  0  0  0  0  0  0  0  0  0
   11.5968   37.5103    8.5624 O   0  0  0  0  0  0  0  0  0  0  0  0
  1  2  1  0
  2 21  2  0
  3  4  2  0
  5 20  2  0
  5 22  1  0
  7  8  2  0
  9 23  2  0
 10  6  2  0
 11  9  1  0
 12  8  1  6
 12 13  1  0
 13 14  1  0
 14 15  1  0
 15 24  1  0
 16 24  1  0
 16 12  1  0
 17 25  1  0
 18 25  1  0
 19  4  1  0
 22  6  1  0
 26 24  1  0
 26 25  1  0
  2  3  1  0
  4 20  1  0
  5 21  1  0
  6  7  1  0
  8 23  1  0
  9 10  1  0
 26 27  2  0
 26 28  2  0
M  END
>  <rmsd>  (217) 
0.247745097

$$$$
MolPort-006-579-806 ChemDiv-V016-7939 MCULE-7327860342 PubChem-46040770 ZINC37544436
     RDKit          3D

 33 36  0  0  0  0  0  0  0  0999 V2000
    8.0059   41.0044   13.1483 F   0  0  0  0  0  0  0  0  0  0  0  0
    9.5051   40.4902    7.8717 F   0  0  0  0  0  0  0  0  0  0  0  0
    8.3761   40.8733   11.8520 C   0  0  0  0  0  0  0  0  0  0  0  0
    9.1571   39.7843   11.4551 C   0  0  0  0  0  0  0  0  0  0  0  0
    9.5401   39.6430   10.1161 C   0  0  0  0  0  0  0  0  0  0  0  0
   10.4026   38.4893    9.7168 C   0  0  0  0  0  0  0  0  0  0  0  0
   12.3708   38.5887   11.2780 C   0  0  0  0  0  0  0  0  0  0  0  0
   13.3302   39.7143   11.6434 C   0  0  0  0  0  0  0  0  0  0  0  0
   14.4154   39.7879   10.5773 C   0  0  0  0  0  0  0  0  0  0  0  0
   12.6026   39.4090    8.9145 C   0  0  0  0  0  0  0  0  0  0  0  0
   14.4285   41.1017    8.4374 C   0  0  0  0  0  0  0  0  0  0  0  0
   15.7535   41.5089    8.6645 C   0  0  0  0  0  0  0  0  0  0  0  0
   16.3391   42.5012    7.8754 C   0  0  0  0  0  0  0  0  0  0  0  0
   15.6043   43.1021    6.8518 C   0  0  0  0  0  0  0  0  0  0  0  0
   14.2785   42.7158    6.6114 C   0  0  0  0  0  0  0  0  0  0  0  0
   13.8971   44.3541    4.6775 C   0  0  0  0  0  0  0  0  0  0  0  0
   12.9470   44.8350    3.6407 C   0  0  0  0  0  0  0  0  0  0  0  0
   10.9987   46.3512    3.4945 C   0  0  0  0  0  0  0  0  0  0  0  0
   10.8105   46.0847    2.1279 C   0  0  0  0  0  0  0  0  0  0  0  0
    9.7714   46.7029    1.4264 C   0  0  0  0  0  0  0  0  0  0  0  0
    8.9154   47.5905    2.0844 C   0  0  0  0  0  0  0  0  0  0  0  0
    9.0991   47.8602    3.4432 C   0  0  0  0  0  0  0  0  0  0  0  0
   10.1375   47.2412    4.1456 C   0  0  0  0  0  0  0  0  0  0  0  0
   13.7019   41.7205    7.4062 C   0  0  0  0  0  0  0  0  0  0  0  0
    9.1441   40.6054    9.1738 C   0  0  0  0  0  0  0  0  0  0  0  0
    8.3630   41.6940    9.5747 C   0  0  0  0  0  0  0  0  0  0  0  0
    7.9790   41.8281   10.9120 C   0  0  0  0  0  0  0  0  0  0  0  0
   11.8068   38.8047    9.9471 N   0  0  0  0  0  0  0  0  0  0  0  0
   13.8248   40.0880    9.2708 N   0  0  0  0  0  0  0  0  0  0  0  0
   13.4916   43.3078    5.5689 N   0  0  0  0  0  0  0  0  0  0  0  0
   12.2234   39.3534    7.7126 O   0  0  0  0  0  0  0  0  0  0  0  0
   15.0304   44.8947    4.7752 O   0  0  0  0  0  0  0  0  0  0  0  0
   12.0264   45.7478    4.2241 O   0  0  0  0  0  0  0  0  0  0  0  0
  3  1  1  0
  4  5  2  0
  6  5  1  0
  6 28  1  0
  7 28  1  0
  7  8  1  0
  8  9  1  0
  9 29  1  0
 10 28  1  0
 12 13  2  0
 14 15  2  0
 15 30  1  0
 17 16  1  0
 17 33  1  0
 18 33  1  0
 19 20  2  0
 21 22  2  0
 23 18  2  0
 24 11  2  0
 25  2  1  0
 25 26  2  0
 27  3  2  0
 29 10  1  0
 29 11  1  0
 30 16  1  0
  3  4  1  0
  5 25  1  0
 10 31  2  0
 11 12  1  0
 13 14  1  0
 15 24  1  0
 16 32  2  0
 18 19  1  0
 20 21  1  0
 22 23  1  0
 26 27  1  0
M  END
>  <rmsd>  (218) 
0.247720554

$$$$
MolPort-001-808-492 CSSS00105904989 MCULE-8476172598 PubChem-2813925 ZINC000001033835
     RDKit          3D

 26 28  0  0  0  0  0  0  0  0999 V2000
   17.6387   41.3165   10.1511 C   0  0  0  0  0  0  0  0  0  0  0  0
   15.6091   41.5374    8.7440 C   0  0  0  0  0  0  0  0  0  0  0  0
   16.1969   42.5687    7.9930 C   0  0  0  0  0  0  0  0  0  0  0  0
   15.5071   43.1643    6.9373 C   0  0  0  0  0  0  0  0  0  0  0  0
   14.2155   42.7385    6.6087 C   0  0  0  0  0  0  0  0  0  0  0  0
   13.9076   44.3750    4.6537 C   0  0  0  0  0  0  0  0  0  0  0  0
   13.4602   45.9385    2.7438 C   0  0  0  0  0  0  0  0  0  0  0  0
   13.1577   45.6113    1.2790 C   0  0  0  0  0  0  0  0  0  0  0  0
   11.7956   44.9285    1.0690 C   0  0  0  0  0  0  0  0  0  0  0  0
   10.9268   44.9150    2.3262 C   0  0  0  0  0  0  0  0  0  0  0  0
   11.6933   44.2683    3.4775 C   0  0  0  0  0  0  0  0  0  0  0  0
   11.0651   45.5684   -0.0619 C   0  0  0  0  0  0  0  0  0  0  0  0
   13.6243   41.7162    7.3541 C   0  0  0  0  0  0  0  0  0  0  0  0
   14.2965   41.1122    8.4229 C   0  0  0  0  0  0  0  0  0  0  0  0
   14.0357   39.5311   10.3505 C   0  0  0  0  0  0  0  0  0  0  0  0
   13.6699   40.4445   11.4996 C   0  0  0  0  0  0  0  0  0  0  0  0
   13.4055   39.5324   12.6804 C   0  0  0  0  0  0  0  0  0  0  0  0
   13.1689   38.1409   12.1186 C   0  0  0  0  0  0  0  0  0  0  0  0
   13.2810   38.2500   10.6114 C   0  0  0  0  0  0  0  0  0  0  0  0
   16.3199   40.9313    9.7862 O   0  0  0  0  0  0  0  0  0  0  0  0
   15.0505   44.8906    4.7906 O   0  0  0  0  0  0  0  0  0  0  0  0
   10.6871   46.9041    0.0095 O   0  0  0  0  0  0  0  0  0  0  0  0
   10.7888   44.8946   -1.0878 O   0  0  0  0  0  0  0  0  0  0  0  0
   13.6176   40.0967    9.1145 O   0  0  0  0  0  0  0  0  0  0  0  0
   13.4744   43.3213    5.5281 N   0  0  0  0  0  0  0  0  0  0  0  0
   13.0356   44.8420    3.6152 N   0  0  0  0  0  0  0  0  0  0  0  0
  1 20  1  0
  2 20  1  0
  3  4  2  0
  5 25  1  0
  5 13  2  0
  6 26  1  0
  7 26  1  0
  7  8  1  0
  8  9  1  0
  9 10  1  0
  9 12  1  0
 10 11  1  0
 11 26  1  0
 12 22  1  0
 14 24  1  0
 14  2  2  0
 15 24  1  0
 15 16  1  0
 16 17  1  0
 17 18  1  0
 18 19  1  0
 19 15  1  0
 25  6  1  0
  2  3  1  0
  4  5  1  0
  6 21  2  0
 12 23  2  0
 13 14  1  0
M  END
>  <rmsd>  (219) 
0.247712448

$$$$
MolPort-020-292-568 MCULE-3374357361 PubChem-110265036
     RDKit          3D

 33 37  0  0  0  0  0  0  0  0999 V2000
   17.5251   43.1218    8.4195 C   0  0  0  0  0  0  0  0  0  0  0  0
   16.1669   42.6357    8.0635 C   0  0  0  0  0  0  0  0  0  0  0  0
   15.4819   43.2055    6.9888 C   0  0  0  0  0  0  0  0  0  0  0  0
   14.2031   42.7395    6.6572 C   0  0  0  0  0  0  0  0  0  0  0  0
   13.6373   41.7106    7.4139 C   0  0  0  0  0  0  0  0  0  0  0  0
   14.3500   41.1644    8.4845 C   0  0  0  0  0  0  0  0  0  0  0  0
   13.7439   40.0569    9.2799 C   0  0  2  0  0  0  0  0  0  0  0  0
   13.6348   40.4401   10.7575 C   0  0  0  0  0  0  0  0  0  0  0  0
   13.0145   39.2969   11.5593 C   0  0  0  0  0  0  0  0  0  0  0  0
   13.8496   38.0312   11.3913 C   0  0  0  0  0  0  0  0  0  0  0  0
   14.5564   38.7733    9.1162 C   0  0  0  0  0  0  0  0  0  0  0  0
   13.7025   36.4106    9.4762 C   0  0  0  0  0  0  0  0  0  0  0  0
   13.3962   36.1486    8.0499 C   0  0  0  0  0  0  0  0  0  0  0  0
   13.4718   34.8399    7.5518 C   0  0  0  0  0  0  0  0  0  0  0  0
   13.1580   34.5633    6.2183 C   0  0  0  0  0  0  0  0  0  0  0  0
   12.7765   35.6083    5.3531 C   0  0  0  0  0  0  0  0  0  0  0  0
   12.6824   36.9140    5.8549 C   0  0  0  0  0  0  0  0  0  0  0  0
   12.9872   37.1790    7.1917 C   0  0  0  0  0  0  0  0  0  0  0  0
   12.7060   33.9855    3.4315 C   0  0  0  0  0  0  0  0  0  0  0  0
   12.4152   32.9198    4.4822 C   0  0  0  0  0  0  0  0  0  0  0  0
   13.2946   33.1576    5.7081 C   0  0  0  0  0  0  0  0  0  0  0  0
   11.8345   36.3093    3.1166 C   0  0  0  0  0  0  0  0  0  0  0  0
   13.8526   44.3255    4.6631 C   0  0  0  0  0  0  0  0  0  0  0  0
   15.4507   45.9018    3.9083 C   0  0  0  0  0  0  0  0  0  0  0  0
   14.5803   46.3209    2.9042 C   0  0  0  0  0  0  0  0  0  0  0  0
   13.3335   45.7056    2.8118 C   0  0  0  0  0  0  0  0  0  0  0  0
   15.5936   41.6345    8.7824 N   0  0  0  0  0  0  0  0  0  0  0  0
   13.9925   37.7309    9.9696 N   0  0  0  0  0  0  0  0  0  0  0  0
   12.4477   35.3135    3.9817 N   0  0  0  0  0  0  0  0  0  0  0  0
   13.4507   43.2852    5.5644 N   0  0  0  0  0  0  0  0  0  0  0  0
   15.0745   44.9170    4.7651 N   0  0  0  0  0  0  0  0  0  0  0  0
   12.9934   44.7243    3.6879 N   0  0  0  0  0  0  0  0  0  0  0  0
   13.6983   35.4420   10.2852 O   0  0  0  0  0  0  0  0  0  0  0  0
  1  2  1  0
  2 27  2  0
  3  4  2  0
  4 30  1  0
  5  6  2  0
  7  6  1  6
  7  8  1  0
  8  9  1  0
  9 10  1  0
 10 28  1  0
 11 28  1  0
 11  7  1  0
 12 13  1  0
 14 15  2  0
 16 17  2  0
 16 29  1  0
 18 13  2  0
 19 29  1  0
 19 20  1  0
 20 21  1  0
 21 15  1  0
 22 29  1  0
 23 32  2  0
 24 31  2  0
 25 26  2  0
 28 12  1  0
 30 23  1  0
  2  3  1  0
  4  5  1  0
  6 27  1  0
 12 33  2  0
 13 14  1  0
 15 16  1  0
 17 18  1  0
 23 31  1  0
 24 25  1  0
 26 32  1  0
M  END
>  <rmsd>  (220) 
0.247697189

$$$$
MolPort-047-177-047 306144065 LN01336858 MCULE-1155020106 MCULE-6648016997 PubChem-124247674 PubChem-155828265 ZINC000306144065
     RDKit          3D

 31 35  0  0  0  0  0  0  0  0999 V2000
   18.8073   35.0500   15.9667 C   0  0  0  0  0  0  0  0  0  0  0  0
   20.7816   34.9643   14.6904 C   0  0  0  0  0  0  0  0  0  0  0  0
   18.9235   36.1772   13.8353 C   0  0  0  0  0  0  0  0  0  0  0  0
   19.2441   37.5230   14.5348 C   0  0  0  0  0  0  0  0  0  0  0  0
   18.0469   38.4722   14.5695 C   0  0  0  0  0  0  0  0  0  0  0  0
   17.2847   39.7865   12.5832 C   0  0  0  0  0  0  0  0  0  0  0  0
   16.2364   40.0366   11.5755 C   0  0  0  0  0  0  0  0  0  0  0  0
   15.2035   40.8758    9.8865 C   0  0  0  0  0  0  0  0  0  0  0  0
   14.9503   41.6895    8.6818 C   0  0  0  0  0  0  0  0  0  0  0  0
   15.8594   42.5914    8.1337 C   0  0  0  0  0  0  0  0  0  0  0  0
   14.1734   42.8279    6.6683 C   0  0  0  0  0  0  0  0  0  0  0  0
   13.9525   44.3072    4.6160 C   0  0  0  0  0  0  0  0  0  0  0  0
   13.1115   44.7199    3.4522 C   0  0  0  0  0  0  0  0  0  0  0  0
   13.8635   44.4720    2.1568 C   0  0  0  0  0  0  0  0  0  0  0  0
   12.7830   43.5103    2.5958 C   0  0  0  0  0  0  0  0  0  0  0  0
   13.0275   39.7504   10.1694 C   0  0  0  0  0  0  0  0  0  0  0  0
   12.3286   38.8675   11.0046 C   0  0  0  0  0  0  0  0  0  0  0  0
   12.9740   38.3221   12.1293 C   0  0  0  0  0  0  0  0  0  0  0  0
   14.3079   38.6509   12.4130 C   0  0  0  0  0  0  0  0  0  0  0  0
   14.9566   39.5182   11.5340 C   0  0  0  0  0  0  0  0  0  0  0  0
   17.0698   37.2791   12.5550 C   0  0  0  0  0  0  0  0  0  0  0  0
   17.4693   36.0511   13.3702 C   0  0  0  0  0  0  0  0  0  0  0  0
   19.3299   34.9940   14.6062 N   0  0  0  0  0  0  0  0  0  0  0  0
   17.4056   38.5238   13.2559 N   0  0  0  0  0  0  0  0  0  0  0  0
   16.3874   40.9036   10.5467 N   0  0  0  0  0  0  0  0  0  0  0  0
   15.4187   43.2225    7.0125 N   0  0  0  0  0  0  0  0  0  0  0  0
   13.4615   43.3170    5.5280 N   0  0  0  0  0  0  0  0  0  0  0  0
   14.3191   40.0405   10.4751 N   0  0  0  0  0  0  0  0  0  0  0  0
   18.1053   40.7084   12.8409 O   0  0  0  0  0  0  0  0  0  0  0  0
   15.0668   44.8650    4.8080 O   0  0  0  0  0  0  0  0  0  0  0  0
   13.5592   41.6823    7.7283 S   0  0  0  0  0  0  0  0  0  0  0  0
  1 23  1  0
  2 23  1  0
  3 23  1  0
  3  4  1  0
  4  5  1  0
  5 24  1  0
  6  7  1  0
  7 25  1  0
  8  9  1  0
  8 28  1  0
  9 31  1  0
 10 26  1  0
 11 27  1  0
 11 31  1  0
 13 12  1  0
 13 14  1  0
 14 15  1  0
 15 13  1  0
 17 18  1  0
 19 20  1  0
 20 28  1  0
 21 24  1  0
 21 22  1  0
 22  3  1  0
 24  6  1  0
 27 12  1  0
 28 16  1  0
  6 29  2  0
  8 25  2  0
  9 10  2  0
 11 26  2  0
 12 30  2  0
 16 17  2  0
 18 19  2  0
 20  7  2  0
M  END
>  <rmsd>  (221) 
0.247691035

$$$$
Molport-020-278-777 MCULE-4915832117 PubChem-110255647
     RDKit          3D

 25 27  0  0  0  0  0  0  0  0999 V2000
   17.6005   43.1835    8.1691 C   0  0  0  0  0  0  0  0  0  0  0  0
   16.2325   42.6661    7.9072 C   0  0  0  0  0  0  0  0  0  0  0  0
   14.4729   41.1839    8.4543 C   0  0  0  0  0  0  0  0  0  0  0  0
   13.6996   41.7101    7.4197 C   0  0  0  0  0  0  0  0  0  0  0  0
   14.2360   42.7315    6.6361 C   0  0  0  0  0  0  0  0  0  0  0  0
   13.8476   44.3250    4.6766 C   0  0  0  0  0  0  0  0  0  0  0  0
   15.4446   45.9080    3.9218 C   0  0  0  0  0  0  0  0  0  0  0  0
   14.5577   46.3311    2.9308 C   0  0  0  0  0  0  0  0  0  0  0  0
   12.9626   44.7509    3.6839 C   0  0  0  0  0  0  0  0  0  0  0  0
   13.9180   40.0899    9.3044 C   0  0  2  0  0  0  0  0  0  0  0  0
   13.8153   40.5353   10.7667 C   0  0  0  0  0  0  0  0  0  0  0  0
   13.3630   39.4138   11.7165 C   0  0  0  0  0  0  0  0  0  0  0  0
   13.2029   38.0612   11.0213 C   0  0  0  0  0  0  0  0  0  0  0  0
   14.7678   38.8231    9.1809 C   0  0  0  0  0  0  0  0  0  0  0  0
   15.1042   36.5901   10.2767 C   0  0  0  0  0  0  0  0  0  0  0  0
   14.7057   35.5358   11.2557 C   0  0  0  0  0  0  0  0  0  0  0  0
   13.3706   33.8394   11.7065 C   0  0  0  0  0  0  0  0  0  0  0  0
   15.7237   41.6709    8.6788 N   0  0  0  0  0  0  0  0  0  0  0  0
   15.4913   43.1886    6.8957 N   0  0  0  0  0  0  0  0  0  0  0  0
   13.4499   43.2788    5.5709 N   0  0  0  0  0  0  0  0  0  0  0  0
   15.0707   44.9157    4.7718 N   0  0  0  0  0  0  0  0  0  0  0  0
   13.3362   45.7434    2.8334 N   0  0  0  0  0  0  0  0  0  0  0  0
   14.3514   37.8064   10.1515 N   0  0  0  0  0  0  0  0  0  0  0  0
   16.1006   36.3818    9.5338 O   0  0  0  0  0  0  0  0  0  0  0  0
   13.7711   34.6819   10.6707 O   0  0  0  0  0  0  0  0  0  0  0  0
  1  2  1  0
  2 19  2  0
  3 18  2  0
  4  5  2  0
  5 20  1  0
  7 21  2  0
  8 22  2  0
  9  6  2  0
 10  3  1  6
 10 11  1  0
 11 12  1  0
 12 13  1  0
 13 23  1  0
 14 23  1  0
 14 10  1  0
 16 15  1  0
 16 25  1  0
 17 25  1  0
 20  6  1  0
 23 15  1  0
  2 18  1  0
  3  4  1  0
  5 19  1  0
  6 21  1  0
  7  8  1  0
  9 22  1  0
 15 24  2  0
M  END
>  <rmsd>  (222) 
0.247688651

$$$$
MolPort-008-289-815 19239352 MCULE-6904891206 PubChem-46971364 ZINC000019239352 ZINC19239352
     RDKit          3D

 28 31  0  0  0  0  0  0  0  0999 V2000
    7.7523   43.8827    2.0222 C   0  0  0  0  0  0  0  0  0  0  0  0
    9.1366   44.1167    2.5086 C   0  0  0  0  0  0  0  0  0  0  0  0
    9.6709   43.3329    3.5501 C   0  0  0  0  0  0  0  0  0  0  0  0
   11.6752   44.5311    3.4150 C   0  0  0  0  0  0  0  0  0  0  0  0
   12.9614   44.9316    3.6882 C   0  0  0  0  0  0  0  0  0  0  0  0
   13.1960   45.9751    2.7904 C   0  0  0  0  0  0  0  0  0  0  0  0
    9.9311   45.1206    1.9386 C   0  0  0  0  0  0  0  0  0  0  0  0
   13.8939   44.3985    4.6907 C   0  0  0  0  0  0  0  0  0  0  0  0
   14.2736   42.6905    6.5578 C   0  0  0  0  0  0  0  0  0  0  0  0
   15.8597   41.8914    8.1689 C   0  0  0  0  0  0  0  0  0  0  0  0
   16.9958   41.6024    9.0906 C   0  0  0  0  0  0  0  0  0  0  0  0
   17.0985   42.6718   10.1757 C   0  0  0  0  0  0  0  0  0  0  0  0
   16.1110   42.5193   11.2990 C   0  0  0  0  0  0  0  0  0  0  0  0
   16.0642   43.5142   12.2805 C   0  0  0  0  0  0  0  0  0  0  0  0
   15.1671   43.4136   13.3473 C   0  0  0  0  0  0  0  0  0  0  0  0
   14.3105   42.3136   13.4402 C   0  0  0  0  0  0  0  0  0  0  0  0
   14.3464   41.3077   12.4698 C   0  0  0  0  0  0  0  0  0  0  0  0
   15.2513   41.4139   11.4016 C   0  0  0  0  0  0  0  0  0  0  0  0
   13.4431   39.1589   11.6436 C   0  0  0  0  0  0  0  0  0  0  0  0
   10.9431   43.5485    3.9964 N   0  0  0  0  0  0  0  0  0  0  0  0
   12.0847   46.1638    2.0321 N   0  0  0  0  0  0  0  0  0  0  0  0
   11.1835   45.2822    2.4275 N   0  0  0  0  0  0  0  0  0  0  0  0
   13.4868   43.3155    5.5369 N   0  0  0  0  0  0  0  0  0  0  0  0
   13.8024   41.6725    7.3091 N   0  0  0  0  0  0  0  0  0  0  0  0
   14.6826   41.2299    8.2054 N   0  0  0  0  0  0  0  0  0  0  0  0
   15.0443   44.9019    4.7943 O   0  0  0  0  0  0  0  0  0  0  0  0
   13.4774   40.2197   12.5886 O   0  0  0  0  0  0  0  0  0  0  0  0
   15.8545   43.0962    6.9920 S   0  0  0  0  0  0  0  0  0  0  0  0
  1  2  1  0
  2  3  1  0
  4 20  1  0
  5  6  1  0
  5  8  1  0
  8 23  1  0
  9 28  1  0
 10 28  1  0
 11 10  1  0
 11 12  1  0
 12 13  1  0
 14 15  2  0
 16 17  2  0
 17 27  1  0
 18 13  2  0
 19 27  1  0
 22 21  1  0
 22  7  1  0
 22  4  1  0
 23  9  1  0
 24 25  1  0
  3 20  2  0
  4  5  2  0
  6 21  2  0
  7  2  2  0
  8 26  2  0
  9 24  2  0
 10 25  2  0
 13 14  1  0
 15 16  1  0
 17 18  1  0
M  END
>  <rmsd>  (223) 
0.247687578

$$$$
Molport-053-323-739 PubChem-110097764
     RDKit          3D

 26 29  0  0  0  0  0  0  0  0999 V2000
   11.2142   35.8239   11.6428 C   0  0  0  0  0  0  0  0  0  0  0  0
   12.1400   33.8590   10.4177 C   0  0  0  0  0  0  0  0  0  0  0  0
   13.2655   34.7955    8.8312 C   0  0  0  0  0  0  0  0  0  0  0  0
   12.6728   35.7695    9.6034 C   0  0  0  0  0  0  0  0  0  0  0  0
   12.8265   37.2437    9.4198 C   0  0  0  0  0  0  0  0  0  0  0  0
   13.9110   38.0984   11.3937 C   0  0  0  0  0  0  0  0  0  0  0  0
   13.0346   39.3462   11.5333 C   0  0  0  0  0  0  0  0  0  0  0  0
   13.6413   40.4908   10.7390 C   0  0  0  0  0  0  0  0  0  0  0  0
   13.7975   40.0696    9.2832 C   0  0  2  0  0  0  0  0  0  0  0  0
   14.6424   38.7916    9.1862 C   0  0  0  0  0  0  0  0  0  0  0  0
   14.3952   41.1705    8.4660 C   0  0  0  0  0  0  0  0  0  0  0  0
   13.6599   41.7098    7.4081 C   0  0  0  0  0  0  0  0  0  0  0  0
   14.2093   42.7374    6.6370 C   0  0  0  0  0  0  0  0  0  0  0  0
   16.1928   42.6960    7.9497 C   0  0  0  0  0  0  0  0  0  0  0  0
   15.6753   41.6692    8.7405 C   0  0  0  0  0  0  0  0  0  0  0  0
   13.8557   44.3270    4.6672 C   0  0  0  0  0  0  0  0  0  0  0  0
   15.4693   45.9026    3.9317 C   0  0  0  0  0  0  0  0  0  0  0  0
   14.5976   46.3278    2.9281 C   0  0  0  0  0  0  0  0  0  0  0  0
   12.9864   44.7544    3.6612 C   0  0  0  0  0  0  0  0  0  0  0  0
   11.9820   35.1811   10.5903 N   0  0  0  0  0  0  0  0  0  0  0  0
   12.9208   33.5947    9.3471 N   0  0  0  0  0  0  0  0  0  0  0  0
   14.0945   37.6914    9.9915 N   0  0  0  0  0  0  0  0  0  0  0  0
   15.4570   43.2034    6.9249 N   0  0  0  0  0  0  0  0  0  0  0  0
   13.4423   43.2831    5.5569 N   0  0  0  0  0  0  0  0  0  0  0  0
   15.0799   44.9130    4.7781 N   0  0  0  0  0  0  0  0  0  0  0  0
   13.3754   45.7444    2.8148 N   0  0  0  0  0  0  0  0  0  0  0  0
  1 20  1  0
  3 21  1  0
  4 20  1  0
  5  4  1  0
  5 22  1  0
  6 22  1  0
  6  7  1  0
  7  8  1  0
  8  9  1  0
  9 10  1  0
  9 11  1  6
 10 22  1  0
 12 13  2  0
 13 24  1  0
 14 23  2  0
 15 11  2  0
 17 25  2  0
 18 26  2  0
 19 16  2  0
 20  2  1  0
 24 16  1  0
  2 21  2  0
  3  4  2  0
 11 12  1  0
 13 23  1  0
 14 15  1  0
 16 25  1  0
 17 18  1  0
 19 26  1  0
M  END
>  <rmsd>  (224) 
0.247666344

$$$$
MolPort-003-020-514 16991800 CSSS03437211695 LN01391658 PubChem-16813897 ZINC000016991800
     RDKit          3D

 29 32  0  0  0  0  0  0  0  0999 V2000
   16.3320   43.0089    9.7265 C   0  0  0  0  0  0  0  0  0  0  0  0
   15.5378   42.5437    8.5501 C   0  0  0  0  0  0  0  0  0  0  0  0
   15.2583   41.2015    8.3040 C   0  0  0  0  0  0  0  0  0  0  0  0
   15.6549   40.0453    9.1633 C   0  0  0  0  0  0  0  0  0  0  0  0
   14.5881   39.7441   10.1604 C   0  0  0  0  0  0  0  0  0  0  0  0
   13.5549   38.8366    9.8332 C   0  0  0  0  0  0  0  0  0  0  0  0
   12.5287   38.5596   10.7545 C   0  0  0  0  0  0  0  0  0  0  0  0
   12.5750   39.2133   11.9830 C   0  0  0  0  0  0  0  0  0  0  0  0
   12.1591   39.9795   14.0881 C   0  0  0  0  0  0  0  0  0  0  0  0
   13.5639   40.0887   12.2978 C   0  0  0  0  0  0  0  0  0  0  0  0
   14.5960   40.3884   11.4126 C   0  0  0  0  0  0  0  0  0  0  0  0
   14.2490   42.7341    6.6135 C   0  0  0  0  0  0  0  0  0  0  0  0
   13.8532   44.4654    4.7943 C   0  0  0  0  0  0  0  0  0  0  0  0
   12.8532   45.0722    3.9013 C   0  0  0  0  0  0  0  0  0  0  0  0
   12.8716   46.3039    3.3742 C   0  0  0  0  0  0  0  0  0  0  0  0
   13.8141   47.3979    3.6670 C   0  0  0  0  0  0  0  0  0  0  0  0
   14.0797   48.3357    2.6627 C   0  0  0  0  0  0  0  0  0  0  0  0
   14.9162   49.4270    2.9171 C   0  0  0  0  0  0  0  0  0  0  0  0
   15.4775   49.5965    4.1857 C   0  0  0  0  0  0  0  0  0  0  0  0
   15.1951   48.6797    5.2018 C   0  0  0  0  0  0  0  0  0  0  0  0
   14.3581   47.5898    4.9457 C   0  0  0  0  0  0  0  0  0  0  0  0
   14.9662   43.4124    7.6033 C   0  0  0  0  0  0  0  0  0  0  0  0
   15.0208   44.8482    7.7268 C   0  0  0  0  0  0  0  0  0  0  0  0
   11.6955   39.1135   13.0424 O   0  0  0  0  0  0  0  0  0  0  0  0
   13.3537   40.5819   13.5699 O   0  0  0  0  0  0  0  0  0  0  0  0
   15.0447   44.8754    4.8067 O   0  0  0  0  0  0  0  0  0  0  0  0
   14.2833   41.0861    6.9383 S   0  0  0  0  0  0  0  0  0  0  0  0
   13.4815   43.3093    5.5492 N   0  0  0  0  0  0  0  0  0  0  0  0
   15.0652   45.9998    7.8312 N   0  0  0  0  0  0  0  0  0  0  0  0
  1  2  1  0
  3 27  1  0
  4  3  1  0
  4  5  1  0
  6  7  2  0
  8 24  1  0
  9 24  1  0
  9 25  1  0
 10 25  1  0
 10  8  2  0
 11  5  2  0
 12 27  1  0
 12 28  1  0
 13 14  1  0
 15 16  1  0
 17 18  2  0
 19 20  2  0
 21 16  2  0
 22 23  1  0
 22  2  1  0
 28 13  1  0
  2  3  2  0
  5  6  1  0
  7  8  1  0
 10 11  1  0
 12 22  2  0
 13 26  2  0
 14 15  2  0
 16 17  1  0
 18 19  1  0
 20 21  1  0
 23 29  3  0
M  END
>  <rmsd>  (225) 
0.247646675

$$$$
MolPort-019-899-254 67919839 CSSS00159803642 MCULE-1718019258 PubChem-56756871 ZINC000067919839
     RDKit          3D

 21 22  0  0  0  0  0  0  0  0999 V2000
   10.7705   38.4801    9.9698 C   0  0  0  0  0  0  0  0  0  0  0  0
   10.7168   40.4588   11.1938 C   0  0  0  0  0  0  0  0  0  0  0  0
   12.3591   38.8529   11.6346 C   0  0  0  0  0  0  0  0  0  0  0  0
   13.7054   39.5324   11.8238 C   0  0  0  0  0  0  0  0  0  0  0  0
   14.6128   39.2336   10.6424 C   0  0  0  0  0  0  0  0  0  0  0  0
   16.8130   39.7838   11.6576 C   0  0  0  0  0  0  0  0  0  0  0  0
   17.8319   40.6838   11.4053 C   0  0  0  0  0  0  0  0  0  0  0  0
   16.2836   41.0051    9.9598 C   0  0  0  0  0  0  0  0  0  0  0  0
   15.5506   41.5936    8.8131 C   0  0  0  0  0  0  0  0  0  0  0  0
   16.1524   42.6112    8.0591 C   0  0  0  0  0  0  0  0  0  0  0  0
   15.4801   43.1868    6.9777 C   0  0  0  0  0  0  0  0  0  0  0  0
   14.1918   42.7543    6.6325 C   0  0  0  0  0  0  0  0  0  0  0  0
   13.9217   44.3593    4.6525 C   0  0  0  0  0  0  0  0  0  0  0  0
   13.0319   44.8232    3.5568 C   0  0  0  0  0  0  0  0  0  0  0  0
   13.5884   41.7413    7.3831 C   0  0  0  0  0  0  0  0  0  0  0  0
   14.2616   41.1663    8.4643 C   0  0  0  0  0  0  0  0  0  0  0  0
   11.6111   39.5005   10.5679 N   0  0  0  0  0  0  0  0  0  0  0  0
   15.8472   39.9991   10.7484 N   0  0  0  0  0  0  0  0  0  0  0  0
   17.4985   41.4461   10.3427 N   0  0  0  0  0  0  0  0  0  0  0  0
   13.4699   43.3202    5.5300 N   0  0  0  0  0  0  0  0  0  0  0  0
   15.0566   44.8867    4.7912 O   0  0  0  0  0  0  0  0  0  0  0  0
  1 17  1  0
  2 17  1  0
  3 17  1  0
  3  4  1  0
  4  5  1  0
  5 18  1  0
  7 19  1  0
  8  9  1  0
  8 18  1  0
 10 11  2  0
 12 20  1  0
 12 15  2  0
 14 13  1  0
 16  9  2  0
 18  6  1  0
 20 13  1  0
  6  7  2  0
  8 19  2  0
  9 10  1  0
 11 12  1  0
 13 21  2  0
 15 16  1  0
M  END
>  <rmsd>  (226) 
0.247588739

$$$$
MolPort-015-143-826 169935888 LN04836198 MCULE-1027342254 PubChem-53217105 ZINC000169935888
     RDKit          3D

 27 29  0  0  0  0  0  0  0  0999 V2000
   11.4607   39.5341    9.3056 C   0  0  0  0  0  0  0  0  0  0  0  0
   11.9117   40.2487   10.5815 C   0  0  0  0  0  0  0  0  0  0  0  0
   10.7328   40.1851   11.5484 C   0  0  0  0  0  0  0  0  0  0  0  0
   13.2566   39.6731   11.1918 C   0  0  0  0  0  0  0  0  0  0  0  0
   13.1061   39.1803   12.6283 C   0  0  0  0  0  0  0  0  0  0  0  0
   13.8422   38.5054   10.3950 C   0  0  0  0  0  0  0  0  0  0  0  0
   14.3194   41.9350    8.9072 C   0  0  0  0  0  0  0  0  0  0  0  0
   13.6171   42.4971    7.8361 C   0  0  0  0  0  0  0  0  0  0  0  0
   14.2601   42.7644    6.6227 C   0  0  0  0  0  0  0  0  0  0  0  0
   13.9680   44.2508    4.5746 C   0  0  0  0  0  0  0  0  0  0  0  0
   13.6369   45.3505    2.3847 C   0  0  0  0  0  0  0  0  0  0  0  0
   14.6657   44.6807    1.5379 C   0  0  0  0  0  0  0  0  0  0  0  0
   14.2864   43.6920    0.6232 C   0  0  0  0  0  0  0  0  0  0  0  0
   15.2543   43.0521   -0.1573 C   0  0  0  0  0  0  0  0  0  0  0  0
   16.6024   43.3980   -0.0217 C   0  0  0  0  0  0  0  0  0  0  0  0
   16.9830   44.3831    0.8948 C   0  0  0  0  0  0  0  0  0  0  0  0
   16.0154   45.0231    1.6753 C   0  0  0  0  0  0  0  0  0  0  0  0
   15.6199   42.4232    6.4732 C   0  0  0  0  0  0  0  0  0  0  0  0
   16.3198   41.8612    7.5451 C   0  0  0  0  0  0  0  0  0  0  0  0
   15.6743   41.6241    8.7606 C   0  0  0  0  0  0  0  0  0  0  0  0
   12.1376   41.5998   10.2786 O   0  0  0  0  0  0  0  0  0  0  0  0
   14.1915   40.7193   11.2005 O   0  0  0  0  0  0  0  0  0  0  0  0
   15.0372   44.8909    4.7720 O   0  0  0  0  0  0  0  0  0  0  0  0
   13.2072   44.4806    3.4262 O   0  0  0  0  0  0  0  0  0  0  0  0
   13.5898   41.6542   10.2645 B   0  0  0  0  0  0  0  0  0  0  0  0
   13.4886   43.3209    5.5505 N   0  0  0  0  0  0  0  0  0  0  0  0
   16.2570   42.5720    5.2858 F   0  0  0  0  0  0  0  0  0  0  0  0
  1  2  1  0
  2  3  1  0
  2 21  1  0
  4 22  1  0
  4  5  1  0
  4  6  1  0
  4  2  1  0
  8  9  2  0
  9 26  1  0
 10 24  1  0
 11 24  1  0
 11 12  1  0
 13 14  2  0
 15 16  2  0
 17 12  2  0
 18 27  1  0
 18 19  2  0
 20  7  2  0
 25 21  1  0
 25 22  1  0
 25  7  1  0
 26 10  1  0
  7  8  1  0
  9 18  1  0
 10 23  2  0
 12 13  1  0
 14 15  1  0
 16 17  1  0
 19 20  1  0
M  END
>  <rmsd>  (227) 
0.24753274

$$$$
MolPort-020-293-088 MCULE-1520767777 PubChem-110265555
     RDKit          3D

 33 36  0  0  0  0  0  0  0  0999 V2000
   12.8309   29.4563    8.6067 C   0  0  0  0  0  0  0  0  0  0  0  0
   12.1033   30.7795    8.4804 C   0  0  0  0  0  0  0  0  0  0  0  0
   10.6375   30.5224    8.1994 C   0  0  0  0  0  0  0  0  0  0  0  0
   12.8471   32.7648    9.7668 C   0  0  0  0  0  0  0  0  0  0  0  0
   12.9631   33.4110   11.0103 C   0  0  0  0  0  0  0  0  0  0  0  0
   13.5906   34.6582   11.0951 C   0  0  0  0  0  0  0  0  0  0  0  0
   14.0938   35.2751    9.9461 C   0  0  0  0  0  0  0  0  0  0  0  0
   13.9666   34.6456    8.7049 C   0  0  0  0  0  0  0  0  0  0  0  0
   13.3499   33.3947    8.6155 C   0  0  0  0  0  0  0  0  0  0  0  0
   14.7373   36.6172   10.0425 C   0  0  0  0  0  0  0  0  0  0  0  0
   13.2054   38.0477   11.1402 C   0  0  0  0  0  0  0  0  0  0  0  0
   13.7403   39.3793   11.6737 C   0  0  0  0  0  0  0  0  0  0  0  0
   13.4408   40.5016   10.6806 C   0  0  0  0  0  0  0  0  0  0  0  0
   13.6723   40.0713    9.2254 C   0  0  2  0  0  0  0  0  0  0  0  0
   14.4565   38.7596    9.1332 C   0  0  0  0  0  0  0  0  0  0  0  0
   14.3381   41.1592    8.4449 C   0  0  0  0  0  0  0  0  0  0  0  0
   14.2229   42.7262    6.6533 C   0  0  0  0  0  0  0  0  0  0  0  0
   15.5111   43.1868    6.9600 C   0  0  0  0  0  0  0  0  0  0  0  0
   16.2114   42.6204    8.0248 C   0  0  0  0  0  0  0  0  0  0  0  0
   15.6266   41.6017    8.7754 C   0  0  0  0  0  0  0  0  0  0  0  0
   13.8457   44.3267    4.6740 C   0  0  0  0  0  0  0  0  0  0  0  0
   13.2998   45.7189    2.8399 C   0  0  0  0  0  0  0  0  0  0  0  0
   14.5484   46.3330    2.9166 C   0  0  0  0  0  0  0  0  0  0  0  0
   15.4328   45.9084    3.9057 C   0  0  0  0  0  0  0  0  0  0  0  0
   12.4577   32.7693   12.2578 C   0  0  0  0  0  0  0  0  0  0  0  0
   13.1021   31.8466   14.1543 C   0  0  0  0  0  0  0  0  0  0  0  0
   12.2326   31.5086    9.6948 O   0  0  0  0  0  0  0  0  0  0  0  0
   13.4551   31.9658   12.8111 O   0  0  0  0  0  0  0  0  0  0  0  0
   13.7542   37.6679    9.8208 N   0  0  0  0  0  0  0  0  0  0  0  0
   13.6757   41.7305    7.4026 N   0  0  0  0  0  0  0  0  0  0  0  0
   13.4565   43.2808    5.5748 N   0  0  0  0  0  0  0  0  0  0  0  0
   12.9724   44.7322    3.7142 N   0  0  0  0  0  0  0  0  0  0  0  0
   15.0690   44.9184    4.7617 N   0  0  0  0  0  0  0  0  0  0  0  0
  1  2  1  0
  2  3  1  0
  2 27  1  0
  4 27  1  0
  5  6  2  0
  7  8  2  0
  9  4  2  0
 10  7  1  0
 10 29  1  0
 11 29  1  0
 11 12  1  0
 12 13  1  0
 13 14  1  0
 14 15  1  0
 14 16  1  6
 15 29  1  0
 17 30  2  0
 17 31  1  0
 18 19  2  0
 20 16  2  0
 21 33  2  0
 22 32  2  0
 23 24  2  0
 25  5  1  0
 25 28  1  0
 26 28  1  0
 31 21  1  0
  4  5  1  0
  6  7  1  0
  8  9  1  0
 16 30  1  0
 17 18  1  0
 19 20  1  0
 21 32  1  0
 22 23  1  0
 24 33  1  0
M  END
>  <rmsd>  (228) 
0.247526988

$$$$
MolPort-051-671-642 MCULE-8642234493 PubChem-110111879
     RDKit          3D

 27 30  0  0  0  0  0  0  0  0999 V2000
   16.8270   46.5129    4.1017 C   0  0  0  0  0  0  0  0  0  0  0  0
   15.4818   45.9029    3.9391 C   0  0  0  0  0  0  0  0  0  0  0  0
   13.8539   44.3262    4.6646 C   0  0  0  0  0  0  0  0  0  0  0  0
   12.9787   44.7464    3.6596 C   0  0  0  0  0  0  0  0  0  0  0  0
   13.3727   45.7619    2.7865 C   0  0  0  0  0  0  0  0  0  0  0  0
   14.6323   46.3469    2.9239 C   0  0  0  0  0  0  0  0  0  0  0  0
   14.2101   42.7366    6.6344 C   0  0  0  0  0  0  0  0  0  0  0  0
   16.2035   42.6805    7.9320 C   0  0  0  0  0  0  0  0  0  0  0  0
   15.6824   41.6612    8.7303 C   0  0  0  0  0  0  0  0  0  0  0  0
   14.3954   41.1747    8.4673 C   0  0  0  0  0  0  0  0  0  0  0  0
   13.6569   41.7170    7.4131 C   0  0  0  0  0  0  0  0  0  0  0  0
   13.7959   40.0837    9.2953 C   0  0  2  0  0  0  0  0  0  0  0  0
   13.6091   40.5329   10.7475 C   0  0  0  0  0  0  0  0  0  0  0  0
   13.1348   39.3744   11.6282 C   0  0  0  0  0  0  0  0  0  0  0  0
   13.8362   38.0513   11.2900 C   0  0  0  0  0  0  0  0  0  0  0  0
   14.6129   38.7838    9.1743 C   0  0  0  0  0  0  0  0  0  0  0  0
   15.6454   36.9771   10.2499 C   0  0  0  0  0  0  0  0  0  0  0  0
   16.8259   36.7611   11.1463 C   0  0  0  0  0  0  0  0  0  0  0  0
   17.3239   37.6503   12.0799 C   0  0  0  0  0  0  0  0  0  0  0  0
   18.5091   35.8318   12.0672 C   0  0  0  0  0  0  0  0  0  0  0  0
   19.2264   37.5871   13.6822 C   0  0  0  0  0  0  0  0  0  0  0  0
   15.0791   44.9122    4.7795 N   0  0  0  0  0  0  0  0  0  0  0  0
   13.4414   43.2835    5.5563 N   0  0  0  0  0  0  0  0  0  0  0  0
   15.4645   43.1917    6.9114 N   0  0  0  0  0  0  0  0  0  0  0  0
   15.0338   38.2770   10.4813 N   0  0  0  0  0  0  0  0  0  0  0  0
   18.3780   37.0399   12.6409 N   0  0  0  0  0  0  0  0  0  0  0  0
   17.5583   35.6290   11.1330 N   0  0  0  0  0  0  0  0  0  0  0  0
  1  2  1  0
  3 22  2  0
  3 23  1  0
  4  5  2  0
  6  2  2  0
  8 24  2  0
  9 10  2  0
 11  7  2  0
 12 10  1  6
 12 13  1  0
 13 14  1  0
 14 15  1  0
 15 25  1  0
 16 25  1  0
 16 12  1  0
 17 25  1  0
 17 18  1  0
 18 27  1  0
 19 26  1  0
 21 26  1  0
 23  7  1  0
 26 20  1  0
  2 22  1  0
  3  4  1  0
  5  6  1  0
  7 24  1  0
  8  9  1  0
 10 11  1  0
 18 19  2  0
 20 27  2  0
M  END
>  <rmsd>  (229) 
0.24751544

$$$$
Molport-047-072-195 PubChem-132766832
     RDKit          3D

 32 35  0  0  0  0  0  0  0  0999 V2000
   12.3767   46.1238    1.7608 C   0  0  0  0  0  0  0  0  0  0  0  0
   13.3333   45.7041    2.8177 C   0  0  0  0  0  0  0  0  0  0  0  0
   14.5791   46.3209    2.9145 C   0  0  0  0  0  0  0  0  0  0  0  0
   15.4475   45.9008    3.9201 C   0  0  0  0  0  0  0  0  0  0  0  0
   16.7860   46.5312    4.0579 C   0  0  0  0  0  0  0  0  0  0  0  0
   13.8500   44.3210    4.6669 C   0  0  0  0  0  0  0  0  0  0  0  0
   14.2376   42.7293    6.6287 C   0  0  0  0  0  0  0  0  0  0  0  0
   13.6931   41.7229    7.4259 C   0  0  0  0  0  0  0  0  0  0  0  0
   14.4704   41.1893    8.4537 C   0  0  0  0  0  0  0  0  0  0  0  0
   16.2505   42.6335    7.8719 C   0  0  0  0  0  0  0  0  0  0  0  0
   17.6332   43.1239    8.1090 C   0  0  0  0  0  0  0  0  0  0  0  0
   13.9096   40.1057    9.3135 C   0  0  2  0  0  0  0  0  0  0  0  0
   13.8599   40.5423   10.7802 C   0  0  0  0  0  0  0  0  0  0  0  0
   13.3519   39.4374   11.7209 C   0  0  0  0  0  0  0  0  0  0  0  0
   13.1919   38.0822   11.0293 C   0  0  0  0  0  0  0  0  0  0  0  0
   14.7268   38.8198    9.1629 C   0  0  0  0  0  0  0  0  0  0  0  0
   15.0709   36.5772   10.2238 C   0  0  0  0  0  0  0  0  0  0  0  0
   15.0817   35.7006   11.4101 C   0  0  0  0  0  0  0  0  0  0  0  0
   14.5885   36.0476   12.5940 C   0  0  0  0  0  0  0  0  0  0  0  0
   14.6214   35.1384   13.7483 C   0  0  0  0  0  0  0  0  0  0  0  0
   15.1559   33.8620   13.7745 C   0  0  0  0  0  0  0  0  0  0  0  0
   14.9329   33.4375   15.0795 C   0  0  0  0  0  0  0  0  0  0  0  0
   13.4759   36.6731   15.3544 C   0  0  0  0  0  0  0  0  0  0  0  0
   15.0702   44.9146    4.7744 N   0  0  0  0  0  0  0  0  0  0  0  0
   13.4493   43.2812    5.5674 N   0  0  0  0  0  0  0  0  0  0  0  0
   15.7340   41.6527    8.6568 N   0  0  0  0  0  0  0  0  0  0  0  0
   15.5051   43.1636    6.8675 N   0  0  0  0  0  0  0  0  0  0  0  0
   14.3429   37.8192   10.1642 N   0  0  0  0  0  0  0  0  0  0  0  0
   14.3046   34.4106   15.7718 N   0  0  0  0  0  0  0  0  0  0  0  0
   14.1214   35.4326   14.9583 N   0  0  0  0  0  0  0  0  0  0  0  0
   12.9919   44.7213    3.6914 N   0  0  0  0  0  0  0  0  0  0  0  0
   15.7458   36.2103    9.2251 O   0  0  0  0  0  0  0  0  0  0  0  0
  1  2  1  0
  2 31  2  0
  3  4  2  0
  5  4  1  0
  6 24  2  0
  6 25  1  0
  7 27  2  0
  8  9  2  0
 10 26  2  0
 11 10  1  0
 12  9  1  6
 12 13  1  0
 13 14  1  0
 14 15  1  0
 15 28  1  0
 16 28  1  0
 16 12  1  0
 17 18  1  0
 19 20  1  0
 21 22  1  0
 23 30  1  0
 25  7  1  0
 28 17  1  0
 30 29  1  0
 30 20  1  0
  2  3  1  0
  4 24  1  0
  6 31  1  0
  7  8  1  0
  9 26  1  0
 10 27  1  0
 17 32  2  0
 18 19  2  0
 20 21  2  0
 22 29  2  0
M  END
>  <rmsd>  (230) 
0.247504205

$$$$
MolPort-029-900-191 96153777 CSC047926571 CSSS00047926571 MCULE-7326517109 PubChem-72905603 ZINC000096153777 ZINC96153777
     RDKit          3D

 24 25  0  0  0  0  0  0  0  0999 V2000
   16.3333   48.3762    3.4365 C   0  0  0  0  0  0  0  0  0  0  0  0
   16.0196   47.2376    1.4223 C   0  0  0  0  0  0  0  0  0  0  0  0
   13.4135   47.2194    3.4357 C   0  0  0  0  0  0  0  0  0  0  0  0
   13.4060   45.8924    2.6967 C   0  0  0  0  0  0  0  0  0  0  0  0
   13.9164   44.3667    4.6529 C   0  0  0  0  0  0  0  0  0  0  0  0
   14.1928   42.7493    6.6233 C   0  0  0  0  0  0  0  0  0  0  0  0
   13.5902   41.7293    7.3674 C   0  0  0  0  0  0  0  0  0  0  0  0
   14.2571   41.1418    8.4476 C   0  0  0  0  0  0  0  0  0  0  0  0
   14.1936   39.4931   10.3037 C   0  0  0  0  0  0  0  0  0  0  0  0
   14.0497   40.3867   11.5268 C   0  0  0  0  0  0  0  0  0  0  0  0
   13.0421   39.7149   12.4340 C   0  0  0  0  0  0  0  0  0  0  0  0
   13.1042   38.2494   12.0791 C   0  0  0  0  0  0  0  0  0  0  0  0
   13.4349   38.2132   10.6038 C   0  0  0  0  0  0  0  0  0  0  0  0
   15.5469   41.5828    8.7834 C   0  0  0  0  0  0  0  0  0  0  0  0
   16.1559   42.6012    8.0468 C   0  0  0  0  0  0  0  0  0  0  0  0
   15.4812   43.1827    6.9708 C   0  0  0  0  0  0  0  0  0  0  0  0
   15.7039   48.4663    2.1300 N   0  0  0  0  0  0  0  0  0  0  0  0
   13.0514   44.8131    3.6064 N   0  0  0  0  0  0  0  0  0  0  0  0
   13.4689   43.3215    5.5254 N   0  0  0  0  0  0  0  0  0  0  0  0
   13.9840   48.5342    2.3693 S   0  0  0  0  0  0  0  0  0  0  0  0
   13.6337   49.8486    3.0086 O   0  0  0  0  0  0  0  0  0  0  0  0
   13.2863   48.4439    1.0400 O   0  0  0  0  0  0  0  0  0  0  0  0
   15.0565   44.8865    4.7955 O   0  0  0  0  0  0  0  0  0  0  0  0
   13.6188   40.1234    9.1638 O   0  0  0  0  0  0  0  0  0  0  0  0
  1 17  1  0
  2 17  1  0
  3  4  1  0
  4 18  1  0
  5 19  1  0
  7  8  2  0
  8 24  1  0
  9 24  1  0
  9 10  1  0
 10 11  1  0
 11 12  1  0
 12 13  1  0
 13  9  1  0
 14 15  2  0
 16  6  2  0
 18  5  1  0
 19  6  1  0
 20 17  1  0
 20  3  1  0
  5 23  2  0
  6  7  1  0
  8 14  1  0
 15 16  1  0
 20 21  2  0
 20 22  2  0
M  END
>  <rmsd>  (231) 
0.24748899

$$$$
MolPort-000-825-472 CSSS00132827631
     RDKit          3D

 37 40  0  0  0  0  0  0  0  0999 V2000
   13.3599   39.1919   11.2098 C   0  0  0  0  0  0  0  0  0  0  0  0
   14.9374   37.8718    9.7671 C   0  0  0  0  0  0  0  0  0  0  0  0
   15.0695   36.6949    9.0205 C   0  0  0  0  0  0  0  0  0  0  0  0
   16.2695   36.3761    8.3830 C   0  0  0  0  0  0  0  0  0  0  0  0
   17.3595   37.2411    8.4670 C   0  0  0  0  0  0  0  0  0  0  0  0
   18.6326   36.8510    7.8438 C   0  0  0  0  0  0  0  0  0  0  0  0
   19.4732   37.6242    7.1331 C   0  0  0  0  0  0  0  0  0  0  0  0
   19.1605   39.0052    6.6708 C   0  0  0  0  0  0  0  0  0  0  0  0
   21.4153   39.2885    5.8826 C   0  0  0  0  0  0  0  0  0  0  0  0
   20.7841   37.0628    6.7467 C   0  0  0  0  0  0  0  0  0  0  0  0
   23.0960   37.4255    5.8385 C   0  0  0  0  0  0  0  0  0  0  0  0
   23.7008   37.7378    4.6104 C   0  0  0  0  0  0  0  0  0  0  0  0
   24.9787   37.2594    4.3073 C   0  0  0  0  0  0  0  0  0  0  0  0
   25.6640   36.4643    5.2294 C   0  0  0  0  0  0  0  0  0  0  0  0
   27.0225   35.9557    4.9070 C   0  0  0  0  0  0  0  0  0  0  0  0
   25.0719   36.1476    6.4546 C   0  0  0  0  0  0  0  0  0  0  0  0
   23.7941   36.6260    6.7579 C   0  0  0  0  0  0  0  0  0  0  0  0
   17.2567   38.4013    9.2410 C   0  0  0  0  0  0  0  0  0  0  0  0
   16.0555   38.7428    9.8747 C   0  0  0  0  0  0  0  0  0  0  0  0
   16.0242   40.0248   10.6487 C   0  0  0  0  0  0  0  0  0  0  0  0
   15.7146   41.6554    8.7919 C   0  0  0  0  0  0  0  0  0  0  0  0
   16.2752   42.6729    8.0146 C   0  0  0  0  0  0  0  0  0  0  0  0
   15.5555   43.2267    6.9523 C   0  0  0  0  0  0  0  0  0  0  0  0
   14.2631   42.7689    6.6551 C   0  0  0  0  0  0  0  0  0  0  0  0
   13.9007   44.3473    4.6685 C   0  0  0  0  0  0  0  0  0  0  0  0
   12.9660   44.7873    3.6007 C   0  0  0  0  0  0  0  0  0  0  0  0
   13.7017   41.7531    7.4354 C   0  0  0  0  0  0  0  0  0  0  0  0
   14.4204   41.1987    8.4976 C   0  0  0  0  0  0  0  0  0  0  0  0
   13.6861   38.0993   10.3635 O   0  0  0  0  0  0  0  0  0  0  0  0
   17.8749   39.5224    6.7670 O   0  0  0  0  0  0  0  0  0  0  0  0
   22.2678   40.1057    5.4428 O   0  0  0  0  0  0  0  0  0  0  0  0
   21.0270   35.8376    6.9334 O   0  0  0  0  0  0  0  0  0  0  0  0
   16.4640   41.1177    9.8444 O   0  0  0  0  0  0  0  0  0  0  0  0
   15.0329   44.8909    4.7603 O   0  0  0  0  0  0  0  0  0  0  0  0
   20.0770   39.7396    6.1160 N   0  0  0  0  0  0  0  0  0  0  0  0
   21.7773   37.9198    6.1514 N   0  0  0  0  0  0  0  0  0  0  0  0
   13.4949   43.3121    5.5727 N   0  0  0  0  0  0  0  0  0  0  0  0
  1 29  1  0
  2 29  1  0
  3  4  2  0
  5  6  1  0
  5 18  2  0
  7  8  1  0
  8 30  1  0
  9 35  1  0
  9 36  1  0
 10  7  1  0
 12 13  2  0
 14 16  2  0
 15 14  1  0
 17 11  2  0
 19  2  2  0
 20 19  1  0
 20 33  1  0
 21 33  1  0
 22 23  2  0
 24 37  1  0
 24 27  2  0
 26 25  1  0
 28 21  2  0
 36 10  1  0
 36 11  1  0
 37 25  1  0
  2  3  1  0
  4  5  1  0
  6  7  2  0
  8 35  2  0
  9 31  2  0
 10 32  2  0
 11 12  1  0
 13 14  1  0
 16 17  1  0
 18 19  1  0
 21 22  1  0
 23 24  1  0
 25 34  2  0
 27 28  1  0
M  END
>  <rmsd>  (232) 
0.247487336

$$$$
MolPort-005-018-059 11932735 CHEMBL1518335 CSSS00160014974 PubChem-24790852 ZINC000011932735
     RDKit          3D

 31 34  0  0  0  0  0  0  0  0999 V2000
   15.0626   44.8886    4.8375 O   0  0  0  0  0  0  0  0  0  0  0  0
   13.9286   44.3701    4.6662 C   0  0  0  0  0  0  0  0  0  0  0  0
   13.0505   44.8726    3.5719 C   0  0  0  0  0  0  0  0  0  0  0  0
   12.9809   43.8723    2.4243 C   0  0  0  0  0  0  0  0  0  0  0  0
   14.1292   44.0330    1.4820 C   0  0  0  0  0  0  0  0  0  0  0  0
   15.4280   43.6704    1.8637 C   0  0  0  0  0  0  0  0  0  0  0  0
   16.4892   43.8148    0.9652 C   0  0  0  0  0  0  0  0  0  0  0  0
   16.2558   44.3178   -0.3186 C   0  0  0  0  0  0  0  0  0  0  0  0
   14.9598   44.6740   -0.7046 C   0  0  0  0  0  0  0  0  0  0  0  0
   13.8979   44.5283    0.1940 C   0  0  0  0  0  0  0  0  0  0  0  0
   14.2354   42.6648    6.5328 C   0  0  0  0  0  0  0  0  0  0  0  0
   15.5714   42.8774    6.8151 C   0  0  0  0  0  0  0  0  0  0  0  0
   15.8172   42.0103    7.8736 C   0  0  0  0  0  0  0  0  0  0  0  0
   12.3466   41.2887    7.4066 C   0  0  0  0  0  0  0  0  0  0  0  0
   12.2518   39.7597    7.5402 C   0  0  0  0  0  0  0  0  0  0  0  0
   11.9426   39.3121    8.9709 C   0  0  0  0  0  0  0  0  0  0  0  0
   12.4213   39.6476   11.2480 C   0  0  0  0  0  0  0  0  0  0  0  0
   13.6604   38.9149   11.6379 C   0  0  0  0  0  0  0  0  0  0  0  0
   14.8167   39.5572   11.7822 C   0  0  0  0  0  0  0  0  0  0  0  0
   16.0601   38.8744   12.1666 C   0  0  0  0  0  0  0  0  0  0  0  0
   16.1019   37.4897   12.3965 C   0  0  0  0  0  0  0  0  0  0  0  0
   17.2996   36.8731   12.7721 C   0  0  0  0  0  0  0  0  0  0  0  0
   18.4614   37.6360   12.9167 C   0  0  0  0  0  0  0  0  0  0  0  0
   18.4277   39.0141   12.6811 C   0  0  0  0  0  0  0  0  0  0  0  0
   17.2289   39.6308   12.3090 C   0  0  0  0  0  0  0  0  0  0  0  0
   11.8438   41.4944    9.9197 C   0  0  0  0  0  0  0  0  0  0  0  0
   11.5716   42.0325    8.5017 C   0  0  0  0  0  0  0  0  0  0  0  0
   13.4658   43.3112    5.5109 N   0  0  0  0  0  0  0  0  0  0  0  0
   14.6893   41.3372    8.1830 N   0  0  0  0  0  0  0  0  0  0  0  0
   13.7374   41.7346    7.3579 N   0  0  0  0  0  0  0  0  0  0  0  0
   12.5727   40.2231    9.9211 N   0  0  0  0  0  0  0  0  0  0  0  0
  2 28  1  0
  3  2  1  0
  3  4  1  0
  4  5  1  0
  6  7  2  0
  8  9  2  0
 10  5  2  0
 12 13  1  0
 14 30  1  0
 14 15  1  0
 15 16  1  0
 16 31  1  0
 17 31  1  0
 17 18  1  0
 19 20  1  0
 21 22  2  0
 23 24  2  0
 25 20  2  0
 26 31  1  0
 26 27  1  0
 27 14  1  0
 28 11  1  0
 30 29  1  0
 30 11  1  0
  2  1  2  0
  5  6  1  0
  7  8  1  0
  9 10  1  0
 11 12  2  0
 13 29  2  0
 18 19  2  0
 20 21  1  0
 22 23  1  0
 24 25  1  0
M  END
>  <rmsd>  (233) 
0.24745506

$$$$
MolPort-000-056-042 1324325 MCULE-1065918161 PubChem-1428015 ZINC000001324325 ZINC01324325
     RDKit          3D

 26 27  0  0  0  0  0  0  0  0999 V2000
   14.5315   38.5499    7.0935 C   0  0  0  0  0  0  0  0  0  0  0  0
   15.0379   40.8445    7.8803 C   0  0  0  0  0  0  0  0  0  0  0  0
   14.3217   41.4172    6.8184 C   0  0  0  0  0  0  0  0  0  0  0  0
   14.2477   42.8028    6.6585 C   0  0  0  0  0  0  0  0  0  0  0  0
   13.8586   44.4366    4.7462 C   0  0  0  0  0  0  0  0  0  0  0  0
   12.8475   45.0289    3.8213 C   0  0  0  0  0  0  0  0  0  0  0  0
   13.2684   44.8345    2.3773 C   0  0  0  0  0  0  0  0  0  0  0  0
   12.6598   46.5058    4.1108 C   0  0  0  0  0  0  0  0  0  0  0  0
   14.8722   43.6451    7.6001 C   0  0  0  0  0  0  0  0  0  0  0  0
   15.3434   45.9383    8.4126 C   0  0  0  0  0  0  0  0  0  0  0  0
   15.5893   43.0724    8.6616 C   0  0  0  0  0  0  0  0  0  0  0  0
   15.6652   41.6869    8.8202 C   0  0  0  0  0  0  0  0  0  0  0  0
   16.1251   39.9921   10.6841 C   0  0  0  0  0  0  0  0  0  0  0  0
   14.7355   39.5676   10.9651 C   0  0  0  0  0  0  0  0  0  0  0  0
   14.4801   38.2665   11.4236 C   0  0  0  0  0  0  0  0  0  0  0  0
   13.1732   37.8580   11.7048 C   0  0  0  0  0  0  0  0  0  0  0  0
   12.1109   38.7498   11.5367 C   0  0  0  0  0  0  0  0  0  0  0  0
   12.3557   40.0508   11.0904 C   0  0  0  0  0  0  0  0  0  0  0  0
   13.6626   40.4584   10.8095 C   0  0  0  0  0  0  0  0  0  0  0  0
   15.1528   39.4544    7.9964 O   0  0  0  0  0  0  0  0  0  0  0  0
   15.0384   44.8839    4.7688 O   0  0  0  0  0  0  0  0  0  0  0  0
   14.7461   45.0349    7.4923 O   0  0  0  0  0  0  0  0  0  0  0  0
   17.0816   39.3312   11.1694 O   0  0  0  0  0  0  0  0  0  0  0  0
   13.4874   43.3181    5.5580 N   0  0  0  0  0  0  0  0  0  0  0  0
   16.4240   41.1707    9.9226 N   0  0  0  0  0  0  0  0  0  0  0  0
   12.9371   36.5980   12.1417 F   0  0  0  0  0  0  0  0  0  0  0  0
  1 20  1  0
  2 20  1  0
  3  4  2  0
  4 24  1  0
  6  5  1  0
  6  7  1  0
  6  8  1  0
  9 22  1  0
  9 11  2  0
 10 22  1  0
 12 25  1  0
 12  2  2  0
 13 14  1  0
 15 16  2  0
 16 26  1  0
 17 18  2  0
 19 14  2  0
 24  5  1  0
 25 13  1  0
  2  3  1  0
  4  9  1  0
  5 21  2  0
 11 12  1  0
 13 23  2  0
 14 15  1  0
 16 17  1  0
 18 19  1  0
M  END
>  <rmsd>  (234) 
0.247444659

$$$$
MolPort-007-723-501 ChemDiv-E157-6048 MCULE-2602760675 PubChem-22518049 ZINC000006818328 ZINC06818328
     RDKit          3D

 25 26  0  0  0  0  0  0  0  0999 V2000
   12.8193   39.1874   10.5246 C   0  0  0  0  0  0  0  0  0  0  0  0
   13.8519   39.6101   11.5524 C   0  0  0  0  0  0  0  0  0  0  0  0
   14.3949   42.0618   11.6973 C   0  0  0  0  0  0  0  0  0  0  0  0
   15.1138   43.1874   11.2615 C   0  0  0  0  0  0  0  0  0  0  0  0
   14.9173   44.4351   11.8579 C   0  0  0  0  0  0  0  0  0  0  0  0
   15.6844   45.6153   11.3805 C   0  0  0  0  0  0  0  0  0  0  0  0
   13.9990   44.5738   12.9011 C   0  0  0  0  0  0  0  0  0  0  0  0
   13.2767   43.4642   13.3460 C   0  0  0  0  0  0  0  0  0  0  0  0
   13.4723   42.2166   12.7467 C   0  0  0  0  0  0  0  0  0  0  0  0
   15.3243   41.5591    8.4312 C   0  0  0  0  0  0  0  0  0  0  0  0
   14.3231   42.7462    6.6180 C   0  0  0  0  0  0  0  0  0  0  0  0
   13.8805   44.3620    4.7119 C   0  0  0  0  0  0  0  0  0  0  0  0
   12.8992   44.8836    3.7190 C   0  0  0  0  0  0  0  0  0  0  0  0
   12.1064   46.0442    4.2993 C   0  0  0  0  0  0  0  0  0  0  0  0
   11.0519   45.5311    5.2615 C   0  0  0  0  0  0  0  0  0  0  0  0
   11.4238   46.7962    3.1754 C   0  0  0  0  0  0  0  0  0  0  0  0
   14.5911   40.7751   11.0759 N   0  0  0  0  0  0  0  0  0  0  0  0
   16.1313   42.5111    7.9138 N   0  0  0  0  0  0  0  0  0  0  0  0
   15.5741   43.1726    6.9011 N   0  0  0  0  0  0  0  0  0  0  0  0
   13.4965   43.2989    5.5895 N   0  0  0  0  0  0  0  0  0  0  0  0
   15.7581   40.5577    9.8012 S   0  0  0  0  0  0  0  0  0  0  0  0
   13.8385   41.5004    7.6400 S   0  0  0  0  0  0  0  0  0  0  0  0
   17.1219   40.9413   10.3043 O   0  0  0  0  0  0  0  0  0  0  0  0
   15.7919   39.1197    9.3637 O   0  0  0  0  0  0  0  0  0  0  0  0
   15.0260   44.8797    4.7812 O   0  0  0  0  0  0  0  0  0  0  0  0
  1  2  1  0
  2 17  1  0
  4  5  2  0
  6  5  1  0
  7  8  2  0
  9  3  2  0
 10 22  1  0
 11 20  1  0
 11 22  1  0
 13 12  1  0
 13 14  1  0
 14 15  1  0
 14 16  1  0
 17  3  1  0
 18 19  1  0
 20 12  1  0
 21 17  1  0
 21 10  1  0
  3  4  1  0
  5  7  1  0
  8  9  1  0
 10 18  2  0
 11 19  2  0
 12 25  2  0
 21 23  2  0
 21 24  2  0
M  END
>  <rmsd>  (235) 
0.247438818

$$$$
MolPort-046-971-918 MCULE-4054959356
     RDKit          3D

 26 29  0  0  0  0  0  0  0  0999 V2000
   13.8801   44.3166    4.6923 C   0  0  0  0  0  0  0  0  0  0  0  0
   14.1289   46.0439    2.9479 C   0  0  0  0  0  0  0  0  0  0  0  0
   15.2157   45.8754    3.8057 C   0  0  0  0  0  0  0  0  0  0  0  0
   16.4549   46.6863    3.6812 C   0  0  0  0  0  0  0  0  0  0  0  0
   14.2049   42.7220    6.6475 C   0  0  0  0  0  0  0  0  0  0  0  0
   13.6466   41.7094    7.4271 C   0  0  0  0  0  0  0  0  0  0  0  0
   14.3999   41.1798    8.4745 C   0  0  0  0  0  0  0  0  0  0  0  0
   13.8230   40.0936    9.3197 C   0  0  2  0  0  0  0  0  0  0  0  0
   13.7190   40.5375   10.7820 C   0  0  0  0  0  0  0  0  0  0  0  0
   13.6312   39.3560   11.7517 C   0  0  0  0  0  0  0  0  0  0  0  0
   13.1614   38.0932   11.0340 C   0  0  0  0  0  0  0  0  0  0  0  0
   13.3958   36.8009    9.0894 C   0  0  0  0  0  0  0  0  0  0  0  0
   14.2909   35.7053    8.6189 C   0  0  0  0  0  0  0  0  0  0  0  0
   14.6509   35.4826    7.3074 C   0  0  0  0  0  0  0  0  0  0  0  0
   15.4690   34.3680    7.3893 C   0  0  0  0  0  0  0  0  0  0  0  0
   14.6438   38.8049    9.1904 C   0  0  0  0  0  0  0  0  0  0  0  0
   16.1832   42.6400    7.9453 C   0  0  0  0  0  0  0  0  0  0  0  0
   17.5532   43.1435    8.2237 C   0  0  0  0  0  0  0  0  0  0  0  0
   12.9572   44.9360    3.4407 S   0  0  0  0  0  0  0  0  0  0  0  0
   15.0813   44.9241    4.7683 N   0  0  0  0  0  0  0  0  0  0  0  0
   13.4418   43.2743    5.5697 N   0  0  0  0  0  0  0  0  0  0  0  0
   14.1159   37.6837    9.9940 N   0  0  0  0  0  0  0  0  0  0  0  0
   15.5667   33.9778    8.6759 N   0  0  0  0  0  0  0  0  0  0  0  0
   14.8478   34.7917    9.4282 N   0  0  0  0  0  0  0  0  0  0  0  0
   15.6532   41.6533    8.7136 N   0  0  0  0  0  0  0  0  0  0  0  0
   15.4614   43.1670    6.9221 N   0  0  0  0  0  0  0  0  0  0  0  0
  1 19  1  0
  1 21  1  0
  2 19  1  0
  3 20  1  0
  4  3  1  0
  5 26  2  0
  6  7  2  0
  8  7  1  6
  8  9  1  0
  9 10  1  0
 10 11  1  0
 11 22  1  0
 12 22  1  0
 12 13  1  0
 13 14  1  0
 15 23  1  0
 16 22  1  0
 16  8  1  0
 17 25  2  0
 18 17  1  0
 21  5  1  0
 23 24  1  0
  1 20  2  0
  2  3  2  0
  5  6  1  0
  7 25  1  0
 13 24  2  0
 14 15  2  0
 17 26  1  0
M  END
>  <rmsd>  (236) 
0.247431546

$$$$
MolPort-002-865-767 5540775 CHEMBL1416512 CSSS00138423846 MCULE-2130640142 PubChem-3614254 ZINC000005540775 ZINC05540775
     RDKit          3D

 22 23  0  0  0  0  0  0  0  0999 V2000
   13.1590   40.7064   11.2819 C   0  0  0  0  0  0  0  0  0  0  0  0
   14.0635   39.4929   11.1728 C   0  0  0  0  0  0  0  0  0  0  0  0
   13.3150   38.2718   11.6632 C   0  0  0  0  0  0  0  0  0  0  0  0
   14.4835   39.2766    9.7275 C   0  0  0  0  0  0  0  0  0  0  0  0
   15.5222   40.2703    9.3129 C   0  0  0  0  0  0  0  0  0  0  0  0
   14.2829   42.6632    6.5115 C   0  0  0  0  0  0  0  0  0  0  0  0
   13.8844   44.4111    4.7138 C   0  0  0  0  0  0  0  0  0  0  0  0
   12.9502   44.9919    3.7334 C   0  0  0  0  0  0  0  0  0  0  0  0
   13.3447   46.0718    2.9292 C   0  0  0  0  0  0  0  0  0  0  0  0
   12.4574   46.6221    1.9994 C   0  0  0  0  0  0  0  0  0  0  0  0
   11.1694   46.0968    1.8669 C   0  0  0  0  0  0  0  0  0  0  0  0
   10.2263   46.6817    0.8786 C   0  0  0  0  0  0  0  0  0  0  0  0
   10.7681   45.0214    2.6640 C   0  0  0  0  0  0  0  0  0  0  0  0
   11.6553   44.4710    3.5938 C   0  0  0  0  0  0  0  0  0  0  0  0
   16.0660   42.1996    7.7920 C   0  0  0  0  0  0  0  0  0  0  0  0
   16.6528   40.2457    9.8696 O   0  0  0  0  0  0  0  0  0  0  0  0
   15.0467   44.8873    4.8313 O   0  0  0  0  0  0  0  0  0  0  0  0
   17.2427   42.3553    8.2138 O   0  0  0  0  0  0  0  0  0  0  0  0
   15.2387   41.2325    8.2852 N   0  0  0  0  0  0  0  0  0  0  0  0
   13.4678   43.3080    5.5289 N   0  0  0  0  0  0  0  0  0  0  0  0
   15.5578   43.0036    6.8089 N   0  0  0  0  0  0  0  0  0  0  0  0
   13.8023   41.3829    7.4599 S   0  0  0  0  0  0  0  0  0  0  0  0
  1  2  1  0
  2  3  1  0
  2  4  1  0
  4  5  1  0
  5 19  1  0
  6 22  1  0
  6 20  1  0
  7  8  1  0
  9 10  2  0
 11 13  2  0
 12 11  1  0
 14  8  2  0
 15 21  1  0
 15 19  1  0
 19 22  1  0
 20  7  1  0
  5 16  2  0
  6 21  2  0
  7 17  2  0
  8  9  1  0
 10 11  1  0
 13 14  1  0
 15 18  2  0
M  END
>  <rmsd>  (237) 
0.247356683

$$$$
MolPort-016-717-605 19717026 MCULE-1433638228 PubChem-46974456 ZINC000019717026
     RDKit          3D

 27 30  0  0  0  0  0  0  0  0999 V2000
   13.0290   39.4922   11.8229 C   0  0  0  0  0  0  0  0  0  0  0  0
   13.2958   38.8047   10.4964 C   0  0  0  0  0  0  0  0  0  0  0  0
   14.7444   40.4893    9.3816 C   0  0  0  0  0  0  0  0  0  0  0  0
   15.8301   40.2541   10.2514 C   0  0  0  0  0  0  0  0  0  0  0  0
   17.0238   40.9896   10.1265 C   0  0  0  0  0  0  0  0  0  0  0  0
   17.1544   41.9701    9.1321 C   0  0  0  0  0  0  0  0  0  0  0  0
   16.0723   42.1852    8.2839 C   0  0  0  0  0  0  0  0  0  0  0  0
   14.3584   42.7798    6.6622 C   0  0  0  0  0  0  0  0  0  0  0  0
   13.8745   44.3399    4.6883 C   0  0  0  0  0  0  0  0  0  0  0  0
   12.8975   44.7621    3.6691 C   0  0  0  0  0  0  0  0  0  0  0  0
   11.6357   44.1566    3.6037 C   0  0  0  0  0  0  0  0  0  0  0  0
   10.7092   44.5565    2.6374 C   0  0  0  0  0  0  0  0  0  0  0  0
   11.0268   45.5685    1.7194 C   0  0  0  0  0  0  0  0  0  0  0  0
    8.8295   45.5652    0.4661 C   0  0  0  0  0  0  0  0  0  0  0  0
    8.0936   44.5012    1.2068 C   0  0  0  0  0  0  0  0  0  0  0  0
   12.2908   46.1725    1.7874 C   0  0  0  0  0  0  0  0  0  0  0  0
   13.2183   45.7733    2.7534 C   0  0  0  0  0  0  0  0  0  0  0  0
   14.8898   41.4684    8.3938 C   0  0  0  0  0  0  0  0  0  0  0  0
   13.5466   39.7703    9.4807 O   0  0  0  0  0  0  0  0  0  0  0  0
   15.0067   44.8928    4.7351 O   0  0  0  0  0  0  0  0  0  0  0  0
   15.9423   43.2780    7.0185 S   0  0  0  0  0  0  0  0  0  0  0  0
   13.5283   43.3038    5.6184 N   0  0  0  0  0  0  0  0  0  0  0  0
   10.0846   45.9934    0.7170 N   0  0  0  0  0  0  0  0  0  0  0  0
   10.3256   46.9391   -0.1755 N   0  0  0  0  0  0  0  0  0  0  0  0
    9.2583   47.0867   -0.9464 N   0  0  0  0  0  0  0  0  0  0  0  0
    8.3066   46.2432   -0.5710 N   0  0  0  0  0  0  0  0  0  0  0  0
   13.9303   41.7971    7.4904 N   0  0  0  0  0  0  0  0  0  0  0  0
  1  2  1  0
  2 19  1  0
  3 19  1  0
  4  5  2  0
  6  7  2  0
  7 21  1  0
  8 21  1  0
  8 22  1  0
  9 10  1  0
 11 12  2  0
 13 23  1  0
 13 16  2  0
 14 23  1  0
 15 14  1  0
 17 10  2  0
 18 27  1  0
 18  3  2  0
 22  9  1  0
 23 24  1  0
 25 26  1  0
  3  4  1  0
  5  6  1  0
  8 27  2  0
  9 20  2  0
 10 11  1  0
 12 13  1  0
 14 26  2  0
 16 17  1  0
 18  7  1  0
 24 25  2  0
M  END
>  <rmsd>  (238) 
0.247338757

$$$$
MolPort-047-072-147 PubChem-132766983
     RDKit          3D

 31 34  0  0  0  0  0  0  0  0999 V2000
   16.4376   46.6931    3.6628 C   0  0  0  0  0  0  0  0  0  0  0  0
   15.1968   45.8813    3.8002 C   0  0  0  0  0  0  0  0  0  0  0  0
   13.8676   44.3172    4.6990 C   0  0  0  0  0  0  0  0  0  0  0  0
   14.2318   42.7196    6.6458 C   0  0  0  0  0  0  0  0  0  0  0  0
   13.6927   41.6989    7.4282 C   0  0  0  0  0  0  0  0  0  0  0  0
   14.4648   41.1698    8.4622 C   0  0  0  0  0  0  0  0  0  0  0  0
   16.2283   42.6480    7.9161 C   0  0  0  0  0  0  0  0  0  0  0  0
   17.5977   43.1617    8.1783 C   0  0  0  0  0  0  0  0  0  0  0  0
   13.9074   40.0762    9.3113 C   0  0  2  0  0  0  0  0  0  0  0  0
   13.8106   40.5181   10.7742 C   0  0  0  0  0  0  0  0  0  0  0  0
   13.3088   39.4054   11.7087 C   0  0  0  0  0  0  0  0  0  0  0  0
   13.1925   38.0449   11.0191 C   0  0  0  0  0  0  0  0  0  0  0  0
   14.7558   38.8079    9.1866 C   0  0  0  0  0  0  0  0  0  0  0  0
   15.1199   36.5763   10.2653 C   0  0  0  0  0  0  0  0  0  0  0  0
   15.1286   35.7122   11.4607 C   0  0  0  0  0  0  0  0  0  0  0  0
   14.6108   36.0642   12.6330 C   0  0  0  0  0  0  0  0  0  0  0  0
   14.6409   35.1700   13.7991 C   0  0  0  0  0  0  0  0  0  0  0  0
   15.1854   33.8985   13.8465 C   0  0  0  0  0  0  0  0  0  0  0  0
   14.9566   33.4900   15.1557 C   0  0  0  0  0  0  0  0  0  0  0  0
   13.4684   36.7158   15.3745 C   0  0  0  0  0  0  0  0  0  0  0  0
   14.0846   46.0285    2.9765 C   0  0  0  0  0  0  0  0  0  0  0  0
   13.9392   46.9901    1.8489 C   0  0  0  0  0  0  0  0  0  0  0  0
   15.0733   44.9267    4.7596 N   0  0  0  0  0  0  0  0  0  0  0  0
   13.4493   43.2710    5.5814 N   0  0  0  0  0  0  0  0  0  0  0  0
   15.7170   41.6534    8.6869 N   0  0  0  0  0  0  0  0  0  0  0  0
   15.4883   43.1736    6.9054 N   0  0  0  0  0  0  0  0  0  0  0  0
   14.3682   37.8029   10.1822 N   0  0  0  0  0  0  0  0  0  0  0  0
   14.3161   34.4676   15.8302 N   0  0  0  0  0  0  0  0  0  0  0  0
   14.1306   35.4768   15.0015 N   0  0  0  0  0  0  0  0  0  0  0  0
   15.8187   36.2139    9.2815 O   0  0  0  0  0  0  0  0  0  0  0  0
   12.9074   44.9301    3.4621 S   0  0  0  0  0  0  0  0  0  0  0  0
  1  2  1  0
  2 23  1  0
  3 24  1  0
  3 31  1  0
  4 26  2  0
  5  6  2  0
  7 25  2  0
  8  7  1  0
  9  6  1  6
  9 10  1  0
 10 11  1  0
 11 12  1  0
 12 27  1  0
 13 27  1  0
 13  9  1  0
 14 15  1  0
 16 17  1  0
 18 19  1  0
 20 29  1  0
 21 31  1  0
 22 21  1  0
 24  4  1  0
 27 14  1  0
 29 28  1  0
 29 17  1  0
  3 23  2  0
  4  5  1  0
  6 25  1  0
  7 26  1  0
 14 30  2  0
 15 16  2  0
 17 18  2  0
 19 28  2  0
 21  2  2  0
M  END
>  <rmsd>  (239) 
0.247334763

$$$$
Molport-051-836-447 MCULE-6687774003 MCULE-7570445166
     RDKit          3D

 29 32  0  0  0  0  0  0  0  0999 V2000
   12.0121   42.5358    3.1946 C   0  0  0  0  0  0  0  0  0  0  0  0
   12.1239   43.9909    2.8851 C   0  0  0  0  0  0  0  0  0  0  0  0
   13.0362   44.8463    3.5425 C   0  0  0  0  0  0  0  0  0  0  0  0
   13.9186   44.3629    4.6387 C   0  0  0  0  0  0  0  0  0  0  0  0
   14.1948   42.7431    6.6127 C   0  0  0  0  0  0  0  0  0  0  0  0
   13.5816   41.7382    7.3688 C   0  0  0  0  0  0  0  0  0  0  0  0
   14.2506   41.1418    8.4426 C   0  0  0  0  0  0  0  0  0  0  0  0
   14.1784   39.5029   10.3069 C   0  0  0  0  0  0  0  0  0  0  0  0
   13.4104   38.2311   10.6211 C   0  0  0  0  0  0  0  0  0  0  0  0
   12.7074   38.4642   11.9412 C   0  0  0  0  0  0  0  0  0  0  0  0
   13.5090   39.5369   12.6371 C   0  0  0  0  0  0  0  0  0  0  0  0
   14.0557   40.4033   11.5259 C   0  0  0  0  0  0  0  0  0  0  0  0
   15.5535   41.5577    8.7595 C   0  0  0  0  0  0  0  0  0  0  0  0
   16.1736   42.5597    8.0098 C   0  0  0  0  0  0  0  0  0  0  0  0
   15.4966   43.1504    6.9401 C   0  0  0  0  0  0  0  0  0  0  0  0
   13.0851   46.1948    3.1192 C   0  0  0  0  0  0  0  0  0  0  0  0
   11.4266   45.8414    1.5132 C   0  0  0  0  0  0  0  0  0  0  0  0
   11.3194   44.4944    1.8671 C   0  0  0  0  0  0  0  0  0  0  0  0
   10.5772   46.4198    0.4266 C   0  0  2  0  0  0  0  0  0  0  0  0
    9.0921   46.3561    0.8003 C   0  0  0  0  0  0  0  0  0  0  0  0
    8.2143   46.5971   -0.4259 C   0  0  0  0  0  0  0  0  0  0  0  0
    8.5967   45.6865   -1.6060 C   0  0  0  0  0  0  0  0  0  0  0  0
   10.8768   45.7576   -0.9276 C   0  0  0  0  0  0  0  0  0  0  0  0
   15.0547   44.8852    4.8011 O   0  0  0  0  0  0  0  0  0  0  0  0
   13.6017   40.1392    9.1713 O   0  0  0  0  0  0  0  0  0  0  0  0
   13.8679   47.0145    3.6698 O   0  0  0  0  0  0  0  0  0  0  0  0
   12.2931   46.6266    2.1420 O   0  0  0  0  0  0  0  0  0  0  0  0
   13.4685   43.3234    5.5208 N   0  0  0  0  0  0  0  0  0  0  0  0
    9.7850   44.8736   -1.3316 N   0  0  0  0  0  0  0  0  0  0  0  0
  1  2  1  0
  3  4  1  0
  3 16  1  0
  4 28  1  0
  6  7  2  0
  7 25  1  0
  8 25  1  0
  8  9  1  0
  9 10  1  0
 10 11  1  0
 11 12  1  0
 12  8  1  0
 13 14  2  0
 15  5  2  0
 16 27  1  0
 17 27  1  0
 18  2  1  0
 19 17  1  1
 19 20  1  0
 20 21  1  0
 21 22  1  0
 22 29  1  0
 23 29  1  0
 23 19  1  0
 28  5  1  0
  2  3  2  0
  4 24  2  0
  5  6  1  0
  7 13  1  0
 14 15  1  0
 16 26  2  0
 17 18  2  0
M  END
>  <rmsd>  (240) 
0.247298241

$$$$
MolPort-028-722-939 44203134 CSC047754199 CSSS00047754199 MCULE-8381017728 PubChem-72845750 ZINC000044203134 ZINC44203134
     RDKit          3D

 28 30  0  0  0  0  0  0  0  0999 V2000
   14.6981   41.4173   -3.3179 C   0  0  0  0  0  0  0  0  0  0  0  0
   16.0113   43.5172   -3.1171 C   0  0  0  0  0  0  0  0  0  0  0  0
   14.2893   42.9249   -1.3600 C   0  0  0  0  0  0  0  0  0  0  0  0
   14.8057   43.8489   -0.3223 C   0  0  0  0  0  0  0  0  0  0  0  0
   13.9237   44.3968    0.6219 C   0  0  0  0  0  0  0  0  0  0  0  0
   14.3945   45.2500    1.6258 C   0  0  0  0  0  0  0  0  0  0  0  0
   13.4490   45.8204    2.6282 C   0  0  0  0  0  0  0  0  0  0  0  0
   13.9198   44.3609    4.6471 C   0  0  0  0  0  0  0  0  0  0  0  0
   14.1936   42.7410    6.6156 C   0  0  0  0  0  0  0  0  0  0  0  0
   13.5816   41.7348    7.3710 C   0  0  0  0  0  0  0  0  0  0  0  0
   14.2509   41.1393    8.4452 C   0  0  0  0  0  0  0  0  0  0  0  0
   14.1803   39.4999   10.3090 C   0  0  0  0  0  0  0  0  0  0  0  0
   14.0596   40.3986   11.5311 C   0  0  0  0  0  0  0  0  0  0  0  0
   13.0753   39.7279   12.4645 C   0  0  0  0  0  0  0  0  0  0  0  0
   13.1188   38.2633   12.1034 C   0  0  0  0  0  0  0  0  0  0  0  0
   13.4085   38.2309   10.6199 C   0  0  0  0  0  0  0  0  0  0  0  0
   15.5525   41.5579    8.7636 C   0  0  0  0  0  0  0  0  0  0  0  0
   16.1716   42.5611    8.0145 C   0  0  0  0  0  0  0  0  0  0  0  0
   15.4946   43.1505    6.9442 C   0  0  0  0  0  0  0  0  0  0  0  0
   15.7571   45.5519    1.7004 C   0  0  0  0  0  0  0  0  0  0  0  0
   16.6458   45.0036    0.7729 C   0  0  0  0  0  0  0  0  0  0  0  0
   16.1722   44.1537   -0.2306 C   0  0  0  0  0  0  0  0  0  0  0  0
   15.0419   42.5979   -2.5429 N   0  0  0  0  0  0  0  0  0  0  0  0
   13.0588   44.8039    3.5964 N   0  0  0  0  0  0  0  0  0  0  0  0
   13.4676   43.3208    5.5230 N   0  0  0  0  0  0  0  0  0  0  0  0
   13.1538   42.4002   -1.1918 O   0  0  0  0  0  0  0  0  0  0  0  0
   15.0557   44.8870    4.7981 O   0  0  0  0  0  0  0  0  0  0  0  0
   13.6036   40.1348    9.1727 O   0  0  0  0  0  0  0  0  0  0  0  0
  1 23  1  0
  2 23  1  0
  3  4  1  0
  5  6  2  0
  7  6  1  0
  7 24  1  0
  8 25  1  0
 10 11  2  0
 11 28  1  0
 12 28  1  0
 12 13  1  0
 13 14  1  0
 14 15  1  0
 15 16  1  0
 16 12  1  0
 17 18  2  0
 19  9  2  0
 20 21  2  0
 22  4  2  0
 23  3  1  0
 24  8  1  0
 25  9  1  0
  3 26  2  0
  4  5  1  0
  6 20  1  0
  8 27  2  0
  9 10  1  0
 11 17  1  0
 18 19  1  0
 21 22  1  0
M  END
>  <rmsd>  (241) 
0.247296095

$$$$
MolPort-006-579-749 ChemDiv-V021-4514 MCULE-1845203336 PubChem-46040713 ZINC000037544475 ZINC37544475
     RDKit          3D

 30 33  0  0  0  0  0  0  0  0999 V2000
   11.0959   34.8434    5.2700 F   0  0  0  0  0  0  0  0  0  0  0  0
   13.2461   35.3345    5.7308 F   0  0  0  0  0  0  0  0  0  0  0  0
   12.4952   33.2269    5.9716 F   0  0  0  0  0  0  0  0  0  0  0  0
   12.1610   34.5639    6.1067 C   0  0  0  0  0  0  0  0  0  0  0  0
   11.7839   34.8859    7.5237 C   0  0  0  0  0  0  0  0  0  0  0  0
   11.7976   33.8968    8.5186 C   0  0  0  0  0  0  0  0  0  0  0  0
   11.4476   34.2138    9.8342 C   0  0  0  0  0  0  0  0  0  0  0  0
   11.0809   35.5212   10.1640 C   0  0  0  0  0  0  0  0  0  0  0  0
   11.0589   36.5122    9.1776 C   0  0  0  0  0  0  0  0  0  0  0  0
   10.6925   37.9138    9.5351 C   0  0  0  0  0  0  0  0  0  0  0  0
   12.3851   38.5527   11.2697 C   0  0  0  0  0  0  0  0  0  0  0  0
   13.3198   39.7031   11.6274 C   0  0  0  0  0  0  0  0  0  0  0  0
   14.4170   39.7883   10.5787 C   0  0  0  0  0  0  0  0  0  0  0  0
   12.6434   39.3653    8.8926 C   0  0  0  0  0  0  0  0  0  0  0  0
   14.4295   41.1127    8.4464 C   0  0  0  0  0  0  0  0  0  0  0  0
   15.7470   41.5368    8.6862 C   0  0  0  0  0  0  0  0  0  0  0  0
   16.3275   42.5367    7.9028 C   0  0  0  0  0  0  0  0  0  0  0  0
   15.5952   43.1282    6.8720 C   0  0  0  0  0  0  0  0  0  0  0  0
   14.2766   42.7257    6.6194 C   0  0  0  0  0  0  0  0  0  0  0  0
   13.8983   44.3496    4.6702 C   0  0  0  0  0  0  0  0  0  0  0  0
   12.9446   44.8328    3.6264 C   0  0  0  0  0  0  0  0  0  0  0  0
   12.5110   43.6756    2.7448 C   0  0  0  0  0  0  0  0  0  0  0  0
   13.5519   44.6518    2.2467 C   0  0  0  0  0  0  0  0  0  0  0  0
   13.7045   41.7236    7.4094 C   0  0  0  0  0  0  0  0  0  0  0  0
   11.4142   36.1948    7.8625 C   0  0  0  0  0  0  0  0  0  0  0  0
   11.8809   38.6756    9.9007 N   0  0  0  0  0  0  0  0  0  0  0  0
   13.8325   40.0887    9.2723 N   0  0  0  0  0  0  0  0  0  0  0  0
   13.4919   43.3085    5.5703 N   0  0  0  0  0  0  0  0  0  0  0  0
   12.2656   39.3381    7.6891 O   0  0  0  0  0  0  0  0  0  0  0  0
   15.0309   44.8930    4.7750 O   0  0  0  0  0  0  0  0  0  0  0  0
  4  1  1  0
  4  2  1  0
  4  3  1  0
  4  5  1  0
  6  7  2  0
  8  9  2  0
 10  9  1  0
 10 26  1  0
 11 26  1  0
 11 12  1  0
 12 13  1  0
 13 27  1  0
 14 26  1  0
 16 17  2  0
 18 19  2  0
 19 28  1  0
 21 20  1  0
 21 22  1  0
 22 23  1  0
 23 21  1  0
 24 15  2  0
 25  5  2  0
 27 14  1  0
 27 15  1  0
 28 20  1  0
  5  6  1  0
  7  8  1  0
  9 25  1  0
 14 29  2  0
 15 16  1  0
 17 18  1  0
 19 24  1  0
 20 30  2  0
M  END
>  <rmsd>  (242) 
0.247281566

$$$$
MolPort-000-841-011 CSSS00132831161
     RDKit          3D

 34 36  0  0  0  0  0  0  0  0999 V2000
   22.2987   36.5270    3.4707 C   0  0  0  0  0  0  0  0  0  0  0  0
   23.2781   37.4182    4.2098 C   0  0  0  0  0  0  0  0  0  0  0  0
   23.0392   37.3376    5.7112 C   0  0  1  0  0  0  0  0  0  0  0  0
   24.1972   37.9405    6.4869 C   0  0  0  0  0  0  0  0  0  0  0  0
   21.4487   39.3406    5.8786 C   0  0  0  0  0  0  0  0  0  0  0  0
   19.2241   39.0434    6.7495 C   0  0  0  0  0  0  0  0  0  0  0  0
   19.4877   37.6441    7.1536 C   0  0  0  0  0  0  0  0  0  0  0  0
   18.6294   36.8584    7.8296 C   0  0  0  0  0  0  0  0  0  0  0  0
   17.3595   37.2456    8.4636 C   0  0  0  0  0  0  0  0  0  0  0  0
   16.2729   36.3753    8.3872 C   0  0  0  0  0  0  0  0  0  0  0  0
   15.0747   36.6889    9.0306 C   0  0  0  0  0  0  0  0  0  0  0  0
   14.9403   37.8668    9.7753 C   0  0  0  0  0  0  0  0  0  0  0  0
   13.3600   39.1878   11.2142 C   0  0  0  0  0  0  0  0  0  0  0  0
   16.0543   38.7436    9.8752 C   0  0  0  0  0  0  0  0  0  0  0  0
   16.0217   40.0258   10.6492 C   0  0  0  0  0  0  0  0  0  0  0  0
   15.7127   41.6563    8.7924 C   0  0  0  0  0  0  0  0  0  0  0  0
   14.4185   41.1998    8.4979 C   0  0  0  0  0  0  0  0  0  0  0  0
   13.7001   41.7541    7.4353 C   0  0  0  0  0  0  0  0  0  0  0  0
   14.2620   42.7696    6.6550 C   0  0  0  0  0  0  0  0  0  0  0  0
   13.9004   44.3474    4.6678 C   0  0  0  0  0  0  0  0  0  0  0  0
   12.9660   44.7874    3.5997 C   0  0  0  0  0  0  0  0  0  0  0  0
   15.5543   43.2272    6.9524 C   0  0  0  0  0  0  0  0  0  0  0  0
   16.2738   42.6735    8.0149 C   0  0  0  0  0  0  0  0  0  0  0  0
   17.2538   38.4069    9.2357 C   0  0  0  0  0  0  0  0  0  0  0  0
   20.7832   37.0866    6.7309 C   0  0  0  0  0  0  0  0  0  0  0  0
   21.7577   37.9401    6.1025 N   0  0  0  0  0  0  0  0  0  0  0  0
   20.2773   39.8204    6.1733 N   0  0  0  0  0  0  0  0  0  0  0  0
   13.4941   43.3127    5.5723 N   0  0  0  0  0  0  0  0  0  0  0  0
   22.6478   40.4690    5.1628 S   0  0  0  0  0  0  0  0  0  0  0  0
   18.0760   39.5518    6.8389 O   0  0  0  0  0  0  0  0  0  0  0  0
   13.6909   38.0891   10.3776 O   0  0  0  0  0  0  0  0  0  0  0  0
   16.4617   41.1189    9.8455 O   0  0  0  0  0  0  0  0  0  0  0  0
   15.0328   44.8906    4.7595 O   0  0  0  0  0  0  0  0  0  0  0  0
   21.0443   35.8671    6.9313 O   0  0  0  0  0  0  0  0  0  0  0  0
  1  2  1  0
  3  2  1  0
  3  4  1  1
  3 26  1  0
  5 29  1  0
  6 27  1  0
  6  7  1  0
  7 25  1  0
  8  9  1  0
 10 11  2  0
 12 31  1  0
 12 14  2  0
 13 31  1  0
 15 14  1  0
 15 32  1  0
 16 32  1  0
 17 18  2  0
 19 28  1  0
 19 22  2  0
 21 20  1  0
 23 16  2  0
 24  9  2  0
 25 26  1  0
 26  5  1  0
 28 20  1  0
  5 27  2  0
  6 30  2  0
  7  8  2  0
  9 10  1  0
 11 12  1  0
 14 24  1  0
 16 17  1  0
 18 19  1  0
 20 33  2  0
 22 23  1  0
 25 34  2  0
M  END
>  <rmsd>  (243) 
0.247277573

$$$$
MolPort-020-292-548 MCULE-9838256581 PubChem-110265016
     RDKit          3D

 33 37  0  0  0  0  0  0  0  0999 V2000
   17.7000   42.7872    8.1105 C   0  0  0  0  0  0  0  0  0  0  0  0
   16.2784   42.4266    7.8712 C   0  0  0  0  0  0  0  0  0  0  0  0
   15.5695   43.0357    6.8344 C   0  0  0  0  0  0  0  0  0  0  0  0
   14.2295   42.6916    6.6156 C   0  0  0  0  0  0  0  0  0  0  0  0
   13.6303   41.7359    7.4394 C   0  0  0  0  0  0  0  0  0  0  0  0
   14.3686   41.1478    8.4698 C   0  0  0  0  0  0  0  0  0  0  0  0
   13.7246   40.1208    9.3397 C   0  0  2  0  0  0  0  0  0  0  0  0
   13.7260   40.5634   10.8069 C   0  0  0  0  0  0  0  0  0  0  0  0
   13.6835   39.3789   11.7759 C   0  0  0  0  0  0  0  0  0  0  0  0
   13.0073   38.1727   11.1254 C   0  0  0  0  0  0  0  0  0  0  0  0
   14.4070   38.7591    9.1741 C   0  0  0  0  0  0  0  0  0  0  0  0
   12.7843   37.0434    9.0768 C   0  0  0  0  0  0  0  0  0  0  0  0
   13.4199   35.9075    8.3410 C   0  0  0  0  0  0  0  0  0  0  0  0
   13.8089   34.7622    9.0476 C   0  0  0  0  0  0  0  0  0  0  0  0
   14.3929   33.6891    8.3727 C   0  0  0  0  0  0  0  0  0  0  0  0
   14.6144   33.7651    6.9924 C   0  0  0  0  0  0  0  0  0  0  0  0
   14.2134   34.8970    6.2805 C   0  0  0  0  0  0  0  0  0  0  0  0
   13.6101   35.9770    6.9486 C   0  0  0  0  0  0  0  0  0  0  0  0
   13.3800   37.2740    4.8506 C   0  0  0  0  0  0  0  0  0  0  0  0
   15.8975   31.6699    7.0910 C   0  0  0  0  0  0  0  0  0  0  0  0
   15.0938   31.3321    8.3486 C   0  0  0  0  0  0  0  0  0  0  0  0
   13.8537   44.3211    4.6624 C   0  0  0  0  0  0  0  0  0  0  0  0
   15.4411   45.9167    3.9261 C   0  0  0  0  0  0  0  0  0  0  0  0
   14.5707   46.3368    2.9224 C   0  0  0  0  0  0  0  0  0  0  0  0
   13.3296   45.7119    2.8205 C   0  0  0  0  0  0  0  0  0  0  0  0
   15.6695   41.5037    8.6617 N   0  0  0  0  0  0  0  0  0  0  0  0
   13.7529   37.6883    9.9520 N   0  0  0  0  0  0  0  0  0  0  0  0
   13.4515   43.2811    5.5642 N   0  0  0  0  0  0  0  0  0  0  0  0
   15.0698   44.9223    4.7740 N   0  0  0  0  0  0  0  0  0  0  0  0
   12.9943   44.7213    3.6880 N   0  0  0  0  0  0  0  0  0  0  0  0
   13.2047   37.1223    6.2526 O   0  0  0  0  0  0  0  0  0  0  0  0
   15.2380   32.6952    6.3441 O   0  0  0  0  0  0  0  0  0  0  0  0
   14.7617   32.5282    9.0582 O   0  0  0  0  0  0  0  0  0  0  0  0
  1  2  1  0
  2 26  2  0
  3  4  2  0
  4 28  1  0
  5  6  2  0
  7  6  1  6
  7  8  1  0
  8  9  1  0
  9 10  1  0
 10 27  1  0
 11 27  1  0
 11  7  1  0
 12 27  1  0
 12 13  1  0
 14 15  2  0
 15 33  1  0
 16 17  2  0
 16 32  1  0
 18 31  1  0
 18 13  2  0
 19 31  1  0
 20 32  1  0
 20 21  1  0
 21 33  1  0
 22 30  2  0
 23 29  2  0
 24 25  2  0
 28 22  1  0
  2  3  1  0
  4  5  1  0
  6 26  1  0
 13 14  1  0
 15 16  1  0
 17 18  1  0
 22 29  1  0
 23 24  1  0
 25 30  1  0
M  END
>  <rmsd>  (244) 
0.247277379

$$$$
MolPort-020-298-667 CHEMBL3450043 MCULE-7664358719 PubChem-110269812
     RDKit          3D

 24 26  0  0  0  0  0  0  0  0999 V2000
   13.8556   44.3250    4.6636 C   0  0  0  0  0  0  0  0  0  0  0  0
   14.2014   42.7251    6.6490 C   0  0  0  0  0  0  0  0  0  0  0  0
   14.2900   41.1550    8.4397 C   0  0  0  0  0  0  0  0  0  0  0  0
   13.6107   40.0698    9.2126 C   0  0  1  0  0  0  0  0  0  0  0  0
   14.3799   38.7442    9.1022 C   0  0  0  0  0  0  0  0  0  0  0  0
   14.1163   38.1721   11.3947 C   0  0  0  0  0  0  0  0  0  0  0  0
   13.0690   39.2896   11.5479 C   0  0  0  0  0  0  0  0  0  0  0  0
   13.3795   40.4981   10.6668 C   0  0  0  0  0  0  0  0  0  0  0  0
   15.8498   37.2344   10.1171 C   0  0  0  0  0  0  0  0  0  0  0  0
   17.1620   37.2920   10.8747 C   0  0  0  0  0  0  0  0  0  0  0  0
   15.5814   41.5822    8.7764 C   0  0  0  0  0  0  0  0  0  0  0  0
   16.1808   42.5963    8.0308 C   0  0  0  0  0  0  0  0  0  0  0  0
   15.4921   43.1720    6.9632 C   0  0  0  0  0  0  0  0  0  0  0  0
   15.4561   45.9037    3.9192 C   0  0  0  0  0  0  0  0  0  0  0  0
   14.5899   46.3246    2.9121 C   0  0  0  0  0  0  0  0  0  0  0  0
   13.3437   45.7091    2.8132 C   0  0  0  0  0  0  0  0  0  0  0  0
   12.3900   46.1283    1.7533 C   0  0  0  0  0  0  0  0  0  0  0  0
   16.7946   46.5333    4.0602 C   0  0  0  0  0  0  0  0  0  0  0  0
   13.4498   43.2832    5.5616 N   0  0  0  0  0  0  0  0  0  0  0  0
   13.6399   41.7334    7.3934 N   0  0  0  0  0  0  0  0  0  0  0  0
   15.0980   38.4566   10.3421 N   0  0  0  0  0  0  0  0  0  0  0  0
   15.0764   44.9173    4.7724 N   0  0  0  0  0  0  0  0  0  0  0  0
   13.0004   44.7258    3.6856 N   0  0  0  0  0  0  0  0  0  0  0  0
   17.8770   36.1162   10.6546 O   0  0  0  0  0  0  0  0  0  0  0  0
  1 19  1  0
  1 23  2  0
  3 20  2  0
  4  3  1  6
  4  5  1  0
  5 21  1  0
  6 21  1  0
  6  7  1  0
  7  8  1  0
  8  4  1  0
  9 21  1  0
  9 10  1  0
 10 24  1  0
 11 12  2  0
 13  2  2  0
 14 22  2  0
 15 16  2  0
 17 16  1  0
 18 14  1  0
 19  2  1  0
  1 22  1  0
  2 20  1  0
  3 11  1  0
 12 13  1  0
 14 15  1  0
 16 23  1  0
M  END
>  <rmsd>  (245) 
0.247216403

$$$$
MolPort-000-056-083 1324411 MCULE-3750092769 PubChem-1428095 ZINC000001324411 ZINC01324411
     RDKit          3D

 29 31  0  0  0  0  0  0  0  0999 V2000
   15.3310   45.9431    8.4152 C   0  0  0  0  0  0  0  0  0  0  0  0
   14.8679   43.6492    7.6002 C   0  0  0  0  0  0  0  0  0  0  0  0
   15.5848   43.0777    8.6625 C   0  0  0  0  0  0  0  0  0  0  0  0
   15.6643   41.6922    8.8201 C   0  0  0  0  0  0  0  0  0  0  0  0
   16.1257   39.9975   10.6838 C   0  0  0  0  0  0  0  0  0  0  0  0
   14.7367   39.5713   10.9654 C   0  0  0  0  0  0  0  0  0  0  0  0
   14.4828   38.2741   11.4294 C   0  0  0  0  0  0  0  0  0  0  0  0
   13.1710   37.8837   11.7072 C   0  0  0  0  0  0  0  0  0  0  0  0
   12.3652   40.0293   11.0938 C   0  0  0  0  0  0  0  0  0  0  0  0
   13.6628   40.4567   10.8060 C   0  0  0  0  0  0  0  0  0  0  0  0
   15.0410   40.8489    7.8783 C   0  0  0  0  0  0  0  0  0  0  0  0
   14.5438   38.5535    7.0880 C   0  0  0  0  0  0  0  0  0  0  0  0
   14.3249   41.4204    6.8159 C   0  0  0  0  0  0  0  0  0  0  0  0
   14.2475   42.8059    6.6568 C   0  0  0  0  0  0  0  0  0  0  0  0
   13.8576   44.4402    4.7415 C   0  0  0  0  0  0  0  0  0  0  0  0
   12.8702   45.0440    3.8301 C   0  0  0  0  0  0  0  0  0  0  0  0
   11.5605   44.5452    3.7735 C   0  0  0  0  0  0  0  0  0  0  0  0
   10.6222   45.1188    2.9106 C   0  0  0  0  0  0  0  0  0  0  0  0
   10.9869   46.1958    2.0984 C   0  0  0  0  0  0  0  0  0  0  0  0
   12.2893   46.6997    2.1488 C   0  0  0  0  0  0  0  0  0  0  0  0
   13.2275   46.1260    3.0117 C   0  0  0  0  0  0  0  0  0  0  0  0
   14.7379   45.0386    7.4932 O   0  0  0  0  0  0  0  0  0  0  0  0
   17.0833   39.3377   11.1684 O   0  0  0  0  0  0  0  0  0  0  0  0
   15.1597   39.4590    7.9936 O   0  0  0  0  0  0  0  0  0  0  0  0
   15.0388   44.8823    4.7713 O   0  0  0  0  0  0  0  0  0  0  0  0
   16.4229   41.1772    9.9231 N   0  0  0  0  0  0  0  0  0  0  0  0
   12.1471   38.7614   11.5334 N   0  0  0  0  0  0  0  0  0  0  0  0
   13.4872   43.3200    5.5560 N   0  0  0  0  0  0  0  0  0  0  0  0
    9.7080   46.9777    0.9224 Br  0  0  0  0  0  0  0  0  0  0  0  0
  1 22  1  0
  2 22  1  0
  3  4  2  0
  4 26  1  0
  5  6  1  0
  7  8  2  0
  9 27  2  0
 10  6  2  0
 11 24  1  0
 11 13  2  0
 12 24  1  0
 14 28  1  0
 14  2  2  0
 15 16  1  0
 17 18  2  0
 19 29  1  0
 19 20  2  0
 21 16  2  0
 26  5  1  0
 28 15  1  0
  2  3  1  0
  4 11  1  0
  5 23  2  0
  6  7  1  0
  8 27  1  0
  9 10  1  0
 13 14  1  0
 15 25  2  0
 16 17  1  0
 18 19  1  0
 20 21  1  0
M  END
>  <rmsd>  (246) 
0.247207984

$$$$
MolPort-021-744-327 LN00413324 MCULE-3927398453
     RDKit          3D

 27 30  0  0  0  0  0  0  0  0999 V2000
   12.2397   38.5163   11.0295 C   0  0  0  0  0  0  0  0  0  0  0  0
   13.5398   39.3049   10.9586 C   0  0  0  0  0  0  0  0  0  0  0  0
   14.6876   38.3147   10.8971 C   0  0  0  0  0  0  0  0  0  0  0  0
   13.6679   40.1199   12.2319 C   0  0  0  0  0  0  0  0  0  0  0  0
   13.6033   40.2270    9.7605 C   0  0  0  0  0  0  0  0  0  0  0  0
   12.5319   40.3072    8.8259 C   0  0  0  0  0  0  0  0  0  0  0  0
   12.6098   41.1735    7.7210 C   0  0  0  0  0  0  0  0  0  0  0  0
   13.7693   41.9263    7.6043 C   0  0  0  0  0  0  0  0  0  0  0  0
   14.2078   42.8581    6.7018 C   0  0  0  0  0  0  0  0  0  0  0  0
   13.9296   44.3176    4.6426 C   0  0  0  0  0  0  0  0  0  0  0  0
   13.0395   44.7416    3.5226 C   0  0  0  0  0  0  0  0  0  0  0  0
   11.9508   45.6815    4.0298 C   0  0  0  0  0  0  0  0  0  0  0  0
   10.8141   44.9574    4.6890 C   0  0  0  0  0  0  0  0  0  0  0  0
    9.0823   44.6166    5.8354 C   0  0  0  0  0  0  0  0  0  0  0  0
    7.9476   44.6894    6.6353 C   0  0  0  0  0  0  0  0  0  0  0  0
    7.2921   43.4775    6.9201 C   0  0  0  0  0  0  0  0  0  0  0  0
    7.7953   42.2631    6.3976 C   0  0  0  0  0  0  0  0  0  0  0  0
    9.5344   43.4330    5.3535 C   0  0  0  0  0  0  0  0  0  0  0  0
   14.7807   41.8328    8.5064 C   0  0  0  0  0  0  0  0  0  0  0  0
   13.4805   43.3122    5.5576 N   0  0  0  0  0  0  0  0  0  0  0  0
    9.8780   45.6142    5.4263 N   0  0  0  0  0  0  0  0  0  0  0  0
    8.9173   42.2548    5.6158 N   0  0  0  0  0  0  0  0  0  0  0  0
   10.6353   43.6079    4.6140 N   0  0  0  0  0  0  0  0  0  0  0  0
   15.4378   43.2914    7.0702 N   0  0  0  0  0  0  0  0  0  0  0  0
   15.7936   42.6576    8.1865 N   0  0  0  0  0  0  0  0  0  0  0  0
   14.7209   41.0026    9.5755 N   0  0  0  0  0  0  0  0  0  0  0  0
   15.0554   44.8662    4.7817 O   0  0  0  0  0  0  0  0  0  0  0  0
  1  2  1  0
  2  3  1  0
  2  4  1  0
  2  5  1  0
  5 26  2  0
  6  7  2  0
  8  9  1  0
  9 20  1  0
 11 10  1  0
 11 12  1  0
 12 13  1  0
 14 21  1  0
 15 16  2  0
 17 22  2  0
 18 23  1  0
 18 14  2  0
 19  8  2  0
 20 10  1  0
 23 13  1  0
 25 24  1  0
 25 19  1  0
  5  6  1  0
  7  8  1  0
  9 24  2  0
 10 27  2  0
 13 21  2  0
 14 15  1  0
 16 17  1  0
 18 22  1  0
 19 26  1  0
M  END
>  <rmsd>  (247) 
0.247198731

$$$$
MolPort-001-982-606 203121 CHEMBL1566340 CSSS00159737014 ChemDiv-5254-2769 MCULE-4065647770 PubChem-752229 ZINC000000203121 ZINC00203121
     RDKit          3D

 22 25  0  0  0  0  0  0  0  0999 V2000
   12.8603   44.9781    3.8213 C   0  0  0  0  0  0  0  0  0  0  0  0
   13.8647   44.4019    4.7524 C   0  0  0  0  0  0  0  0  0  0  0  0
   14.3745   42.6509    6.5149 C   0  0  0  0  0  0  0  0  0  0  0  0
   14.0609   41.5879    7.3253 C   0  0  0  0  0  0  0  0  0  0  0  0
   12.7751   40.8691    7.4182 C   0  0  0  0  0  0  0  0  0  0  0  0
   10.7630   40.3121    7.0481 C   0  0  0  0  0  0  0  0  0  0  0  0
    9.4540   40.1998    6.5866 C   0  0  0  0  0  0  0  0  0  0  0  0
    8.6444   39.2068    7.1698 C   0  0  0  0  0  0  0  0  0  0  0  0
    9.1554   38.3663    8.1846 C   0  0  0  0  0  0  0  0  0  0  0  0
   10.4830   38.5069    8.6291 C   0  0  0  0  0  0  0  0  0  0  0  0
   11.2555   39.4994    8.0265 C   0  0  0  0  0  0  0  0  0  0  0  0
   13.4115   39.2570    9.2756 C   0  0  0  0  0  0  0  0  0  0  0  0
   13.2654   40.0085   10.5853 C   0  0  0  0  0  0  0  0  0  0  0  0
   12.5572   39.1234   11.5897 C   0  0  0  0  0  0  0  0  0  0  0  0
   14.0598   39.2915   11.6562 C   0  0  0  0  0  0  0  0  0  0  0  0
   15.0217   44.8970    4.8000 O   0  0  0  0  0  0  0  0  0  0  0  0
   16.0685   42.1627    7.6578 O   0  0  0  0  0  0  0  0  0  0  0  0
   13.5007   43.2935    5.5801 N   0  0  0  0  0  0  0  0  0  0  0  0
   15.6520   42.9963    6.7453 N   0  0  0  0  0  0  0  0  0  0  0  0
   15.1641   41.3026    8.0396 N   0  0  0  0  0  0  0  0  0  0  0  0
   11.7016   41.1881    6.6451 N   0  0  0  0  0  0  0  0  0  0  0  0
   12.5303   39.8348    8.2681 N   0  0  0  0  0  0  0  0  0  0  0  0
  1  2  1  0
  2 18  1  0
  4  5  1  0
  4  3  1  0
  6 21  1  0
  7  8  2  0
  9 10  2  0
 11 22  1  0
 11  6  2  0
 12 22  1  0
 12 13  1  0
 13 14  1  0
 14 15  1  0
 15 13  1  0
 17 20  1  0
 18  3  1  0
 19 17  1  0
 22  5  1  0
  2 16  2  0
  3 19  2  0
  4 20  2  0
  5 21  2  0
  6  7  1  0
  8  9  1  0
 10 11  1  0
M  END
>  <rmsd>  (248) 
0.247106656

$$$$
MolPort-001-901-439 830104 CSSS00159729154 MCULE-6437410963 PubChem-1104026 ZINC000000830104 ZINC00830104
     RDKit          3D

 27 29  0  0  0  0  0  0  0  0999 V2000
   14.2313   37.7961    7.9982 C   0  0  0  0  0  0  0  0  0  0  0  0
   14.1166   39.0188   10.1511 C   0  0  0  0  0  0  0  0  0  0  0  0
   14.7392   39.8683   11.0922 C   0  0  0  0  0  0  0  0  0  0  0  0
   14.0611   40.2014   12.2735 C   0  0  0  0  0  0  0  0  0  0  0  0
   12.7685   39.7297   12.5100 C   0  0  0  0  0  0  0  0  0  0  0  0
   12.1423   38.9116   11.5697 C   0  0  0  0  0  0  0  0  0  0  0  0
   12.8130   38.5556   10.3984 C   0  0  0  0  0  0  0  0  0  0  0  0
   16.1064   40.3937   10.8876 C   0  0  0  0  0  0  0  0  0  0  0  0
   15.7779   41.4490    8.5810 C   0  0  0  0  0  0  0  0  0  0  0  0
   14.5024   41.9633    8.8489 C   0  0  0  0  0  0  0  0  0  0  0  0
   13.7611   42.5718    7.8347 C   0  0  0  0  0  0  0  0  0  0  0  0
   14.2881   42.6955    6.5454 C   0  0  0  0  0  0  0  0  0  0  0  0
   13.9312   44.3143    4.6169 C   0  0  0  0  0  0  0  0  0  0  0  0
   13.0843   44.7008    3.4752 C   0  0  0  0  0  0  0  0  0  0  0  0
   11.8437   44.0791    3.2709 C   0  0  0  0  0  0  0  0  0  0  0  0
   11.0400   44.4437    2.1867 C   0  0  0  0  0  0  0  0  0  0  0  0
   11.4713   45.4326    1.2986 C   0  0  0  0  0  0  0  0  0  0  0  0
   12.7062   46.0569    1.4941 C   0  0  0  0  0  0  0  0  0  0  0  0
   13.5099   45.6922    2.5784 C   0  0  0  0  0  0  0  0  0  0  0  0
   15.5670   42.1627    6.2676 C   0  0  0  0  0  0  0  0  0  0  0  0
   16.1407   42.1545    4.8919 C   0  0  0  0  0  0  0  0  0  0  0  0
   16.3014   41.5537    7.2900 C   0  0  0  0  0  0  0  0  0  0  0  0
   14.8050   38.6304    8.9953 O   0  0  0  0  0  0  0  0  0  0  0  0
   16.8991   40.4333   11.8657 O   0  0  0  0  0  0  0  0  0  0  0  0
   15.0382   44.8904    4.8031 O   0  0  0  0  0  0  0  0  0  0  0  0
   16.5735   40.8407    9.6065 N   0  0  0  0  0  0  0  0  0  0  0  0
   13.4773   43.3146    5.5384 N   0  0  0  0  0  0  0  0  0  0  0  0
  1 23  1  0
  2 23  1  0
  3  4  2  0
  3  8  1  0
  5  6  2  0
  7  2  2  0
  8 26  1  0
 10 11  2  0
 12 27  1  0
 12 20  2  0
 13 14  1  0
 15 16  2  0
 17 18  2  0
 19 14  2  0
 21 20  1  0
 22  9  2  0
 26  9  1  0
 27 13  1  0
  2  3  1  0
  4  5  1  0
  6  7  1  0
  8 24  2  0
  9 10  1  0
 11 12  1  0
 13 25  2  0
 14 15  1  0
 16 17  1  0
 18 19  1  0
 20 22  1  0
M  END
>  <rmsd>  (249) 
0.247105435

$$$$
MolPort-046-958-383 MCULE-7699084467 PubChem-110093603
     RDKit          3D

 31 34  0  0  0  0  0  0  0  0999 V2000
   16.0393   31.9223    4.0476 C   0  0  0  0  0  0  0  0  0  0  0  0
   16.6100   33.0736    4.8475 C   0  0  0  0  0  0  0  0  0  0  0  0
   15.3582   34.0140    6.8122 C   0  0  0  0  0  0  0  0  0  0  0  0
   14.9446   35.2283    6.1986 C   0  0  0  0  0  0  0  0  0  0  0  0
   14.1913   36.1515    6.9330 C   0  0  0  0  0  0  0  0  0  0  0  0
   13.8291   35.8876    8.2551 C   0  0  0  0  0  0  0  0  0  0  0  0
   14.2296   34.6957    8.8594 C   0  0  0  0  0  0  0  0  0  0  0  0
   14.9869   33.7693    8.1405 C   0  0  0  0  0  0  0  0  0  0  0  0
   13.0398   36.8942    9.0234 C   0  0  0  0  0  0  0  0  0  0  0  0
   13.0628   38.0663   11.0575 C   0  0  0  0  0  0  0  0  0  0  0  0
   13.6294   39.3037   11.7520 C   0  0  0  0  0  0  0  0  0  0  0  0
   13.6477   40.4976   10.7943 C   0  0  0  0  0  0  0  0  0  0  0  0
   13.7293   40.0731    9.3238 C   0  0  2  0  0  0  0  0  0  0  0  0
   14.5007   38.7576    9.1704 C   0  0  0  0  0  0  0  0  0  0  0  0
   14.3515   41.1478    8.4965 C   0  0  0  0  0  0  0  0  0  0  0  0
   16.2104   42.5435    8.0059 C   0  0  0  0  0  0  0  0  0  0  0  0
   15.5158   43.1296    6.9464 C   0  0  0  0  0  0  0  0  0  0  0  0
   14.2097   42.7123    6.6605 C   0  0  0  0  0  0  0  0  0  0  0  0
   13.6269   41.7131    7.4439 C   0  0  0  0  0  0  0  0  0  0  0  0
   13.8818   44.3067    4.6855 C   0  0  0  0  0  0  0  0  0  0  0  0
   15.2085   45.8711    3.7770 C   0  0  0  0  0  0  0  0  0  0  0  0
   14.1158   46.0044    2.9191 C   0  0  0  0  0  0  0  0  0  0  0  0
   17.5973   42.9771    8.3132 C   0  0  0  0  0  0  0  0  0  0  0  0
   15.2909   35.6015    4.7965 C   0  0  0  0  0  0  0  0  0  0  0  0
   16.1187   33.0169    6.1787 O   0  0  0  0  0  0  0  0  0  0  0  0
   16.4198   36.4213    4.7890 O   0  0  0  0  0  0  0  0  0  0  0  0
   13.9049   37.6390    9.9291 N   0  0  0  0  0  0  0  0  0  0  0  0
   15.6212   41.5721    8.7520 N   0  0  0  0  0  0  0  0  0  0  0  0
   13.4527   43.2731    5.5799 N   0  0  0  0  0  0  0  0  0  0  0  0
   15.0748   44.9312    4.7520 N   0  0  0  0  0  0  0  0  0  0  0  0
   12.9533   44.8932    3.4243 S   0  0  0  0  0  0  0  0  0  0  0  0
  1  2  1  0
  2 25  1  0
  3 25  1  0
  4  5  2  0
  6  7  2  0
  8  3  2  0
  9  6  1  0
  9 27  1  0
 10 27  1  0
 10 11  1  0
 11 12  1  0
 12 13  1  0
 13 14  1  0
 13 15  1  6
 14 27  1  0
 16 28  2  0
 17 18  2  0
 18 29  1  0
 19 15  2  0
 20 31  1  0
 21 30  1  0
 22 31  1  0
 23 16  1  0
 24  4  1  0
 24 26  1  0
 29 20  1  0
  3  4  1  0
  5  6  1  0
  7  8  1  0
 15 28  1  0
 16 17  1  0
 18 19  1  0
 20 30  2  0
 21 22  2  0
M  END
>  <rmsd>  (250) 
0.247090921

$$$$
MolPort-003-020-522 9390687 CSSS03437190948 LN01391664 MCULE-6427518754 PubChem-4550575 ZINC000009390687
     RDKit          3D

 30 33  0  0  0  0  0  0  0  0999 V2000
   14.2478   42.7239    6.6084 C   0  0  0  0  0  0  0  0  0  0  0  0
   13.8583   44.4608    4.7936 C   0  0  0  0  0  0  0  0  0  0  0  0
   12.8582   45.1189    3.9074 C   0  0  0  0  0  0  0  0  0  0  0  0
   12.7708   44.3993    2.5679 C   0  0  0  0  0  0  0  0  0  0  0  0
   14.3808   45.7527    1.2376 C   0  0  0  0  0  0  0  0  0  0  0  0
   15.6225   45.8108    0.5952 C   0  0  0  0  0  0  0  0  0  0  0  0
   16.0516   46.9976   -0.0066 C   0  0  0  0  0  0  0  0  0  0  0  0
   15.2388   48.1340    0.0299 C   0  0  0  0  0  0  0  0  0  0  0  0
   13.9962   48.0841    0.6676 C   0  0  0  0  0  0  0  0  0  0  0  0
   13.5672   46.8976    1.2693 C   0  0  0  0  0  0  0  0  0  0  0  0
   15.2514   41.1820    8.2936 C   0  0  0  0  0  0  0  0  0  0  0  0
   15.5438   42.5216    8.5389 C   0  0  0  0  0  0  0  0  0  0  0  0
   16.3477   42.9794    9.7117 C   0  0  0  0  0  0  0  0  0  0  0  0
   14.9753   43.3955    7.5951 C   0  0  0  0  0  0  0  0  0  0  0  0
   15.0433   44.8309    7.7172 C   0  0  0  0  0  0  0  0  0  0  0  0
   15.6424   40.0218    9.1502 C   0  0  0  0  0  0  0  0  0  0  0  0
   14.5765   39.7270   10.1502 C   0  0  0  0  0  0  0  0  0  0  0  0
   14.5994   40.3629   11.4124 C   0  0  0  0  0  0  0  0  0  0  0  0
   13.5881   40.1122   12.3575 C   0  0  0  0  0  0  0  0  0  0  0  0
   12.5774   39.2252   11.9962 C   0  0  0  0  0  0  0  0  0  0  0  0
   12.5511   38.6165   10.7830 C   0  0  0  0  0  0  0  0  0  0  0  0
   10.7251   37.8996   11.9416 C   0  0  0  0  0  0  0  0  0  0  0  0
   13.5335   38.8395    9.8219 C   0  0  0  0  0  0  0  0  0  0  0  0
   13.4792   43.3070    5.5493 N   0  0  0  0  0  0  0  0  0  0  0  0
   15.0978   45.9825    7.8178 N   0  0  0  0  0  0  0  0  0  0  0  0
   15.0466   44.8789    4.8060 O   0  0  0  0  0  0  0  0  0  0  0  0
   13.9804   44.5488    1.8281 O   0  0  0  0  0  0  0  0  0  0  0  0
   11.4412   37.7995   10.7025 O   0  0  0  0  0  0  0  0  0  0  0  0
   11.4856   38.8198   12.7375 O   0  0  0  0  0  0  0  0  0  0  0  0
   14.2692   41.0756    6.9324 S   0  0  0  0  0  0  0  0  0  0  0  0
  1 24  1  0
  1 30  1  0
  3  2  1  0
  3  4  1  0
  4 27  1  0
  5 27  1  0
  6  7  2  0
  8  9  2  0
 10  5  2  0
 11 30  1  0
 12 14  1  0
 13 12  1  0
 14 15  1  0
 16 11  1  0
 16 17  1  0
 18 19  2  0
 20 21  2  0
 20 29  1  0
 21 28  1  0
 22 28  1  0
 22 29  1  0
 23 17  2  0
 24  2  1  0
  2 26  2  0
  5  6  1  0
  7  8  1  0
  9 10  1  0
 11 12  2  0
 14  1  2  0
 17 18  1  0
 19 20  1  0
 21 23  1  0
 15 25  3  0
M  END
>  <rmsd>  (251) 
0.247089133

$$$$
MolPort-002-799-218 MCULE-6031247094 PubChem-135401448
     RDKit          3D

 27 29  0  0  0  0  0  0  0  0999 V2000
   12.7187   43.6464    2.6003 C   0  0  0  0  0  0  0  0  0  0  0  0
   13.0250   44.7990    3.5369 C   0  0  0  0  0  0  0  0  0  0  0  0
   11.7338   45.3692    4.0908 C   0  0  0  0  0  0  0  0  0  0  0  0
   13.9151   44.3476    4.6467 C   0  0  0  0  0  0  0  0  0  0  0  0
   14.2268   42.7965    6.6483 C   0  0  0  0  0  0  0  0  0  0  0  0
   14.3598   41.2938    8.4686 C   0  0  0  0  0  0  0  0  0  0  0  0
   15.6480   41.7477    8.7862 C   0  0  0  0  0  0  0  0  0  0  0  0
   15.5297   40.4777   10.9608 C   0  0  2  0  0  0  0  0  0  0  0  0
   16.3927   39.6259   11.8925 C   0  0  0  0  0  0  0  0  0  0  0  0
   14.4636   39.5794   10.3177 C   0  0  1  0  0  0  0  0  0  0  0  0
   13.4642   39.1033   11.3571 C   0  0  0  0  0  0  0  0  0  0  0  0
   17.7491   41.3657   10.1118 C   0  0  0  0  0  0  0  0  0  0  0  0
   18.2717   42.1778   11.2293 C   0  0  0  0  0  0  0  0  0  0  0  0
   19.6498   42.2603   11.4668 C   0  0  0  0  0  0  0  0  0  0  0  0
   19.2935   43.7176   13.3070 C   0  0  0  0  0  0  0  0  0  0  0  0
   17.9132   43.6695   13.1055 C   0  0  0  0  0  0  0  0  0  0  0  0
   17.4044   42.8971   12.0607 C   0  0  0  0  0  0  0  0  0  0  0  0
   16.1857   42.7815    7.9841 C   0  0  0  0  0  0  0  0  0  0  0  0
   15.0481   44.8824    4.7771 O   0  0  0  0  0  0  0  0  0  0  0  0
   18.5488   40.8430    9.2885 O   0  0  0  0  0  0  0  0  0  0  0  0
   17.3151   43.2818    8.2259 O   0  0  0  0  0  0  0  0  0  0  0  0
   13.4770   43.3190    5.5459 N   0  0  0  0  0  0  0  0  0  0  0  0
   13.6826   41.8217    7.4178 N   0  0  0  0  0  0  0  0  0  0  0  0
   16.3322   41.1764    9.9311 N   0  0  0  0  0  0  0  0  0  0  0  0
   13.7458   40.2798    9.2612 N   0  0  0  0  0  0  0  0  0  0  0  0
   20.1266   43.0189   12.4903 N   0  0  0  0  0  0  0  0  0  0  0  0
   15.4669   43.2684    6.9400 N   0  0  0  0  0  0  0  0  0  0  0  0
  1  2  1  0
  2  3  1  0
  2  4  1  0
  4 22  1  0
  6 23  1  0
  7 24  1  0
  7 18  1  0
  8 24  1  0
  8  9  1  6
  8 10  1  0
 10 11  1  1
 10 25  1  0
 12 13  1  0
 14 26  2  0
 15 16  2  0
 17 13  2  0
 18 27  1  0
 22  5  1  0
 24 12  1  0
 25  6  1  0
 27  5  1  0
  4 19  2  0
  5 23  2  0
  6  7  2  0
 12 20  2  0
 13 14  1  0
 15 26  1  0
 16 17  1  0
 18 21  2  0
M  END
>  <rmsd>  (252) 
0.247036457

$$$$
MolPort-008-338-731 36353994 CSSS00160717244 LN00877548 MCULE-5276027582 PubChem-45491328 ZINC000036353994 ZINC36353994
     RDKit          3D

 29 31  0  0  0  0  0  0  0  0999 V2000
   17.9551   41.1294    9.8298 C   0  0  0  0  0  0  0  0  0  0  0  0
   15.8066   41.5120    8.6550 C   0  0  0  0  0  0  0  0  0  0  0  0
   16.4223   42.3507    7.7106 C   0  0  0  0  0  0  0  0  0  0  0  0
   15.6753   42.9482    6.6954 C   0  0  0  0  0  0  0  0  0  0  0  0
   14.2973   42.7224    6.6078 C   0  0  0  0  0  0  0  0  0  0  0  0
   13.9099   44.3234    4.6461 C   0  0  0  0  0  0  0  0  0  0  0  0
   13.0121   44.7143    3.5538 C   0  0  0  0  0  0  0  0  0  0  0  0
   12.5621   46.1525    1.5312 C   0  0  0  0  0  0  0  0  0  0  0  0
   13.1337   47.3572    0.8701 C   0  0  0  0  0  0  0  0  0  0  0  0
   14.3275   47.2744    0.1471 C   0  0  0  0  0  0  0  0  0  0  0  0
   14.8456   48.4146   -0.4702 C   0  0  0  0  0  0  0  0  0  0  0  0
   14.1566   49.6248   -0.3571 C   0  0  0  0  0  0  0  0  0  0  0  0
   12.4738   48.5858    0.9584 C   0  0  0  0  0  0  0  0  0  0  0  0
   13.6823   41.8812    7.5384 C   0  0  0  0  0  0  0  0  0  0  0  0
   14.4177   41.2662    8.5642 C   0  0  0  0  0  0  0  0  0  0  0  0
   14.3599   39.1619    9.9597 C   0  0  0  0  0  0  0  0  0  0  0  0
   14.2083   38.9467   11.4758 C   0  0  0  0  0  0  0  0  0  0  0  0
   12.9793   39.5947   12.1371 C   0  0  0  0  0  0  0  0  0  0  0  0
   11.7384   39.5645   11.2573 C   0  0  0  0  0  0  0  0  0  0  0  0
   16.5530   40.9403    9.6925 O   0  0  0  0  0  0  0  0  0  0  0  0
   15.0256   44.8965    4.7700 O   0  0  0  0  0  0  0  0  0  0  0  0
   11.9191   44.1062    3.3927 O   0  0  0  0  0  0  0  0  0  0  0  0
   11.2233   40.1702    8.6802 O   0  0  0  0  0  0  0  0  0  0  0  0
   11.7627   42.0320   10.2051 O   0  0  0  0  0  0  0  0  0  0  0  0
   13.4977   43.3088    5.5732 N   0  0  0  0  0  0  0  0  0  0  0  0
   13.3777   45.7816    2.6773 N   0  0  0  0  0  0  0  0  0  0  0  0
   12.9947   49.6851    0.3486 N   0  0  0  0  0  0  0  0  0  0  0  0
   13.7445   40.4050    9.5029 N   0  0  0  0  0  0  0  0  0  0  0  0
   12.0582   40.6002    9.8529 S   0  0  0  0  0  0  0  0  0  0  0  0
  1 20  1  0
  2 20  1  0
  3  4  2  0
  5 25  1  0
  5 14  2  0
  6  7  1  0
  7 26  1  0
  8 26  1  0
  8  9  1  0
 10 11  2  0
 12 27  2  0
 13  9  2  0
 15 28  1  0
 15  2  2  0
 16 28  1  0
 16 17  1  0
 17 18  1  0
 18 19  1  0
 19 29  1  0
 25  6  1  0
 29 28  1  0
  2  3  1  0
  4  5  1  0
  6 21  2  0
  7 22  2  0
  9 10  1  0
 11 12  1  0
 13 27  1  0
 14 15  1  0
 29 23  2  0
 29 24  2  0
M  END
>  <rmsd>  (253) 
0.247010559

$$$$
MolPort-003-077-886 4328235 CSSS03437148117 MCULE-2822599927 PubChem-7190982 ZINC000004328235 ZINC04328235
     RDKit          3D

 28 30  0  0  0  0  0  0  0  0999 V2000
    9.4471   44.0056    2.4364 C   0  0  0  0  0  0  0  0  0  0  0  0
   10.7886   44.6349    2.5465 C   0  0  0  0  0  0  0  0  0  0  0  0
   11.1576   45.6529    1.6632 C   0  0  0  0  0  0  0  0  0  0  0  0
   12.4194   46.2445    1.7671 C   0  0  0  0  0  0  0  0  0  0  0  0
   13.3123   45.8179    2.7546 C   0  0  0  0  0  0  0  0  0  0  0  0
   12.9501   44.7964    3.6456 C   0  0  0  0  0  0  0  0  0  0  0  0
   11.6815   44.2083    3.5340 C   0  0  0  0  0  0  0  0  0  0  0  0
   13.8903   44.3458    4.6869 C   0  0  0  0  0  0  0  0  0  0  0  0
   14.2958   42.7529    6.6500 C   0  0  0  0  0  0  0  0  0  0  0  0
   15.8850   42.0844    8.3124 C   0  0  0  0  0  0  0  0  0  0  0  0
   18.0888   40.6137    8.3388 C   0  0  0  0  0  0  0  0  0  0  0  0
   17.3042   39.3500    8.2359 C   0  0  0  0  0  0  0  0  0  0  0  0
   16.1083   37.4497    9.3794 C   0  0  0  0  0  0  0  0  0  0  0  0
   15.3537   37.3172   10.6929 C   0  0  0  0  0  0  0  0  0  0  0  0
   14.3442   38.4090   10.8364 C   0  0  0  0  0  0  0  0  0  0  0  0
   13.2340   38.4683    9.9837 C   0  0  0  0  0  0  0  0  0  0  0  0
   12.3005   39.5003   10.1195 C   0  0  0  0  0  0  0  0  0  0  0  0
   12.4738   40.4739   11.1078 C   0  0  0  0  0  0  0  0  0  0  0  0
   13.5790   40.4144   11.9622 C   0  0  0  0  0  0  0  0  0  0  0  0
   14.5124   39.3820   11.8276 C   0  0  0  0  0  0  0  0  0  0  0  0
   15.0277   44.8826    4.7765 O   0  0  0  0  0  0  0  0  0  0  0  0
   16.9332   38.9405    7.1038 O   0  0  0  0  0  0  0  0  0  0  0  0
   13.5033   43.2999    5.5895 N   0  0  0  0  0  0  0  0  0  0  0  0
   13.8441   41.7633    7.4501 N   0  0  0  0  0  0  0  0  0  0  0  0
   14.7272   41.3925    8.3752 N   0  0  0  0  0  0  0  0  0  0  0  0
   16.9542   38.6317    9.4181 N   0  0  0  0  0  0  0  0  0  0  0  0
   17.2580   41.8184    9.4288 S   0  0  0  0  0  0  0  0  0  0  0  0
   15.8620   43.2239    7.0746 S   0  0  0  0  0  0  0  0  0  0  0  0
  1  2  1  0
  3  4  2  0
  5  6  2  0
  6  8  1  0
  7  2  2  0
  8 23  1  0
  9 28  1  0
 10 27  1  0
 10 28  1  0
 11 27  1  0
 11 12  1  0
 12 26  1  0
 13 26  1  0
 13 14  1  0
 14 15  1  0
 16 17  2  0
 18 19  2  0
 20 15  2  0
 23  9  1  0
 24 25  1  0
  2  3  1  0
  4  5  1  0
  6  7  1  0
  8 21  2  0
  9 24  2  0
 10 25  2  0
 12 22  2  0
 15 16  1  0
 17 18  1  0
 19 20  1  0
M  END
>  <rmsd>  (254) 
0.247007027

$$$$
MolPort-046-971-810 MCULE-8808227310 PubChem-110111796
     RDKit          3D

 27 30  0  0  0  0  0  0  0  0999 V2000
   11.6290   44.1612    3.4725 C   0  0  0  0  0  0  0  0  0  0  0  0
   12.9809   44.7638    3.6472 C   0  0  0  0  0  0  0  0  0  0  0  0
   13.8514   44.3302    4.6609 C   0  0  0  0  0  0  0  0  0  0  0  0
   15.4917   45.9038    3.9490 C   0  0  0  0  0  0  0  0  0  0  0  0
   14.6519   46.3580    2.9319 C   0  0  0  0  0  0  0  0  0  0  0  0
   13.3903   45.7818    2.7839 C   0  0  0  0  0  0  0  0  0  0  0  0
   14.2116   42.7358    6.6316 C   0  0  0  0  0  0  0  0  0  0  0  0
   16.2054   42.6767    7.9280 C   0  0  0  0  0  0  0  0  0  0  0  0
   15.6844   41.6561    8.7247 C   0  0  0  0  0  0  0  0  0  0  0  0
   14.3968   41.1705    8.4619 C   0  0  0  0  0  0  0  0  0  0  0  0
   13.6584   41.7149    7.4088 C   0  0  0  0  0  0  0  0  0  0  0  0
   13.7943   40.0773    9.2859 C   0  0  2  0  0  0  0  0  0  0  0  0
   13.6534   40.5014   10.7423 C   0  0  0  0  0  0  0  0  0  0  0  0
   13.0382   39.3646   11.5413 C   0  0  0  0  0  0  0  0  0  0  0  0
   13.8972   38.1049   11.3957 C   0  0  0  0  0  0  0  0  0  0  0  0
   14.6228   38.7892    9.1831 C   0  0  0  0  0  0  0  0  0  0  0  0
   12.7868   37.2658    9.4314 C   0  0  0  0  0  0  0  0  0  0  0  0
   12.6095   35.7791    9.5398 C   0  0  0  0  0  0  0  0  0  0  0  0
   13.5137   34.8752   10.0703 C   0  0  0  0  0  0  0  0  0  0  0  0
   12.8764   33.6477    9.9315 C   0  0  0  0  0  0  0  0  0  0  0  0
   10.3386   35.6923    8.5027 C   0  0  0  0  0  0  0  0  0  0  0  0
   15.0785   44.9114    4.7819 N   0  0  0  0  0  0  0  0  0  0  0  0
   13.4422   43.2842    5.5548 N   0  0  0  0  0  0  0  0  0  0  0  0
   15.4660   43.1900    6.9087 N   0  0  0  0  0  0  0  0  0  0  0  0
   14.0669   37.6960    9.9925 N   0  0  0  0  0  0  0  0  0  0  0  0
   11.6708   33.8266    9.3529 N   0  0  0  0  0  0  0  0  0  0  0  0
   11.5209   35.1163    9.1209 N   0  0  0  0  0  0  0  0  0  0  0  0
  1  2  1  0
  3 22  2  0
  3 23  1  0
  4  5  2  0
  6  2  2  0
  8 24  2  0
  9 10  2  0
 11  7  2  0
 12 10  1  6
 12 13  1  0
 13 14  1  0
 14 15  1  0
 15 25  1  0
 16 25  1  0
 16 12  1  0
 17 25  1  0
 17 18  1  0
 19 20  1  0
 21 27  1  0
 23  7  1  0
 27 26  1  0
 27 18  1  0
  2  3  1  0
  4 22  1  0
  5  6  1  0
  7 24  1  0
  8  9  1  0
 10 11  1  0
 18 19  2  0
 20 26  2  0
M  END
>  <rmsd>  (255) 
0.246968269

$$$$
MolPort-020-292-467 MCULE-8174521789 PubChem-110264935
     RDKit          3D

 31 34  0  0  0  0  0  0  0  0999 V2000
   11.6208   44.1535    3.4894 C   0  0  0  0  0  0  0  0  0  0  0  0
   12.9715   44.7612    3.6542 C   0  0  0  0  0  0  0  0  0  0  0  0
   13.8506   44.3316    4.6624 C   0  0  0  0  0  0  0  0  0  0  0  0
   15.4798   45.9110    3.9372 C   0  0  0  0  0  0  0  0  0  0  0  0
   14.6313   46.3610    2.9256 C   0  0  0  0  0  0  0  0  0  0  0  0
   13.3711   45.7799    2.7870 C   0  0  0  0  0  0  0  0  0  0  0  0
   14.2062   42.7204    6.6399 C   0  0  0  0  0  0  0  0  0  0  0  0
   13.6316   41.6998    7.4012 C   0  0  0  0  0  0  0  0  0  0  0  0
   14.3500   41.1351    8.4583 C   0  0  0  0  0  0  0  0  0  0  0  0
   16.1884   42.5737    8.0162 C   0  0  0  0  0  0  0  0  0  0  0  0
   15.4990   43.1598    6.9533 C   0  0  0  0  0  0  0  0  0  0  0  0
   17.5601   43.0331    8.3553 C   0  0  0  0  0  0  0  0  0  0  0  0
   13.7322   40.0439    9.2683 C   0  0  2  0  0  0  0  0  0  0  0  0
   13.5813   40.4840   10.7232 C   0  0  0  0  0  0  0  0  0  0  0  0
   13.0326   39.3393   11.5657 C   0  0  0  0  0  0  0  0  0  0  0  0
   13.9361   38.1196   11.4166 C   0  0  0  0  0  0  0  0  0  0  0  0
   14.5836   38.7766    9.1849 C   0  0  0  0  0  0  0  0  0  0  0  0
   14.7950   36.4805    9.8796 C   0  0  0  0  0  0  0  0  0  0  0  0
   16.2436   36.5754   10.3036 C   0  0  0  0  0  0  0  0  0  0  0  0
   18.1632   37.9944   11.1852 C   0  0  0  0  0  0  0  0  0  0  0  0
   20.3164   37.4838   11.5712 C   0  0  0  0  0  0  0  0  0  0  0  0
   20.3152   38.8229   11.9384 C   0  0  0  0  0  0  0  0  0  0  0  0
   21.4948   39.5787   12.4337 C   0  0  0  0  0  0  0  0  0  0  0  0
   15.0761   44.9180    4.7739 N   0  0  0  0  0  0  0  0  0  0  0  0
   13.4487   43.2840    5.5599 N   0  0  0  0  0  0  0  0  0  0  0  0
   15.6056   41.5826    8.7411 N   0  0  0  0  0  0  0  0  0  0  0  0
   14.0037   37.7119   10.0100 N   0  0  0  0  0  0  0  0  0  0  0  0
   16.8015   37.8028   10.7931 N   0  0  0  0  0  0  0  0  0  0  0  0
   19.1069   37.0269   11.1496 N   0  0  0  0  0  0  0  0  0  0  0  0
   16.9595   35.5433   10.2136 O   0  0  0  0  0  0  0  0  0  0  0  0
   18.7726   39.4599   11.7353 S   0  0  0  0  0  0  0  0  0  0  0  0
  1  2  1  0
  3 24  2  0
  3 25  1  0
  4  5  2  0
  6  2  2  0
  8  9  2  0
 10 26  2  0
 11  7  2  0
 12 10  1  0
 13  9  1  6
 13 14  1  0
 14 15  1  0
 15 16  1  0
 16 27  1  0
 17 27  1  0
 17 13  1  0
 18 27  1  0
 18 19  1  0
 19 28  1  0
 20 31  1  0
 21 29  1  0
 22 31  1  0
 23 22  1  0
 25  7  1  0
 28 20  1  0
  2  3  1  0
  4 24  1  0
  5  6  1  0
  7  8  1  0
  9 26  1  0
 10 11  1  0
 19 30  2  0
 20 29  2  0
 21 22  2  0
M  END
>  <rmsd>  (256) 
0.246954083

$$$$
MolPort-006-609-941 ChemDiv-V028-4791 MCULE-8657905711 PubChem-46070025 ZINC000034735430 ZINC34735430
     RDKit          3D

 29 32  0  0  0  0  0  0  0  0999 V2000
   13.6959   34.4332    6.8142 F   0  0  0  0  0  0  0  0  0  0  0  0
   11.0891   35.6319   11.5174 F   0  0  0  0  0  0  0  0  0  0  0  0
   13.0505   34.7302    7.9674 C   0  0  0  0  0  0  0  0  0  0  0  0
   12.3715   35.9450    8.0950 C   0  0  0  0  0  0  0  0  0  0  0  0
   11.7050   36.2564    9.2851 C   0  0  0  0  0  0  0  0  0  0  0  0
   11.0021   37.5686    9.4136 C   0  0  0  0  0  0  0  0  0  0  0  0
   12.2079   38.7542   11.2728 C   0  0  0  0  0  0  0  0  0  0  0  0
   13.7085   38.8500   11.4787 C   0  0  0  0  0  0  0  0  0  0  0  0
   14.2469   40.0881   10.7607 C   0  0  0  0  0  0  0  0  0  0  0  0
   12.6841   39.3750    8.9061 C   0  0  0  0  0  0  0  0  0  0  0  0
   14.3823   41.2105    8.5300 C   0  0  0  0  0  0  0  0  0  0  0  0
   15.6857   41.6627    8.7955 C   0  0  0  0  0  0  0  0  0  0  0  0
   16.2726   42.6505    8.0014 C   0  0  0  0  0  0  0  0  0  0  0  0
   15.5609   43.2016    6.9344 C   0  0  0  0  0  0  0  0  0  0  0  0
   14.2566   42.7707    6.6557 C   0  0  0  0  0  0  0  0  0  0  0  0
   13.9058   44.3411    4.6553 C   0  0  0  0  0  0  0  0  0  0  0  0
   12.9905   44.7937    3.5586 C   0  0  0  0  0  0  0  0  0  0  0  0
   11.6245   45.1633    4.1050 C   0  0  0  0  0  0  0  0  0  0  0  0
   11.0107   43.9890    3.3679 C   0  0  0  0  0  0  0  0  0  0  0  0
   12.3774   43.6134    2.8286 C   0  0  0  0  0  0  0  0  0  0  0  0
   13.6775   41.7813    7.4565 C   0  0  0  0  0  0  0  0  0  0  0  0
   11.7265   35.3472   10.3543 C   0  0  0  0  0  0  0  0  0  0  0  0
   12.4054   34.1320   10.2226 C   0  0  0  0  0  0  0  0  0  0  0  0
   13.0673   33.8238    9.0308 C   0  0  0  0  0  0  0  0  0  0  0  0
   11.9316   38.6021    9.8521 N   0  0  0  0  0  0  0  0  0  0  0  0
   13.7753   40.2039    9.3701 N   0  0  0  0  0  0  0  0  0  0  0  0
   13.4927   43.3129    5.5703 N   0  0  0  0  0  0  0  0  0  0  0  0
   12.4137   39.2957    7.6762 O   0  0  0  0  0  0  0  0  0  0  0  0
   15.0346   44.8885    4.7644 O   0  0  0  0  0  0  0  0  0  0  0  0
  3  1  1  0
  4  5  2  0
  6  5  1  0
  6 25  1  0
  7 25  1  0
  7  8  1  0
  8  9  1  0
  9 26  1  0
 10 25  1  0
 12 13  2  0
 14 15  2  0
 15 27  1  0
 17 16  1  0
 17 18  1  0
 18 19  1  0
 19 20  1  0
 20 17  1  0
 21 11  2  0
 22  2  1  0
 22 23  2  0
 24  3  2  0
 26 10  1  0
 26 11  1  0
 27 16  1  0
  3  4  1  0
  5 22  1  0
 10 28  2  0
 11 12  1  0
 13 14  1  0
 15 21  1  0
 16 29  2  0
 23 24  1  0
M  END
>  <rmsd>  (257) 
0.246926531

$$$$
Molport-002-804-440 CSSS00104477131 MCULE-4480941808 PubChem-1813607 ZINC02176372
     RDKit          3D

 21 22  0  0  0  0  0  0  0  0999 V2000
   11.2343   39.5246   10.7931 C   0  0  0  0  0  0  0  0  0  0  0  0
   12.3416   38.8347   11.5669 C   0  0  0  0  0  0  0  0  0  0  0  0
   13.6014   39.6858   11.5712 C   0  0  0  0  0  0  0  0  0  0  0  0
   14.4059   39.4844   10.2965 C   0  0  0  0  0  0  0  0  0  0  0  0
   14.3761   41.1448    8.4613 C   0  0  0  0  0  0  0  0  0  0  0  0
   15.6732   41.5934    8.7557 C   0  0  0  0  0  0  0  0  0  0  0  0
   16.2543   42.6114    7.9961 C   0  0  0  0  0  0  0  0  0  0  0  0
   15.5433   43.1859    6.9397 C   0  0  0  0  0  0  0  0  0  0  0  0
   14.2463   42.7464    6.6355 C   0  0  0  0  0  0  0  0  0  0  0  0
   13.6720   41.7262    7.4016 C   0  0  0  0  0  0  0  0  0  0  0  0
   13.8986   44.3582    4.6674 C   0  0  0  0  0  0  0  0  0  0  0  0
   12.9820   44.8204    3.6102 C   0  0  0  0  0  0  0  0  0  0  0  0
   13.3695   45.8419    2.7299 C   0  0  0  0  0  0  0  0  0  0  0  0
   12.4989   46.2794    1.7274 C   0  0  0  0  0  0  0  0  0  0  0  0
   11.2345   45.6989    1.5976 C   0  0  0  0  0  0  0  0  0  0  0  0
   10.8407   44.6809    2.4703 C   0  0  0  0  0  0  0  0  0  0  0  0
   11.7112   44.2434    3.4727 C   0  0  0  0  0  0  0  0  0  0  0  0
   13.7657   40.1293    9.2022 O   0  0  0  0  0  0  0  0  0  0  0  0
   15.0389   44.8852    4.7807 O   0  0  0  0  0  0  0  0  0  0  0  0
   13.4852   43.3115    5.5594 N   0  0  0  0  0  0  0  0  0  0  0  0
    9.2574   43.9534    2.3086 Cl  0  0  0  0  0  0  0  0  0  0  0  0
  1  2  1  0
  2  3  1  0
  3  4  1  0
  4 18  1  0
  5 18  1  0
  6  7  2  0
  8  9  2  0
  9 20  1  0
 10  5  2  0
 11 12  1  0
 13 14  2  0
 15 16  2  0
 16 21  1  0
 17 12  2  0
 20 11  1  0
  5  6  1  0
  7  8  1  0
  9 10  1  0
 11 19  2  0
 12 13  1  0
 14 15  1  0
 16 17  1  0
M  END
>  <rmsd>  (258) 
0.246895254

$$$$
MolPort-006-609-949 ChemDiv-V017-8360 MCULE-6791322291 PubChem-46070033 ZINC000034735441 ZINC34735441
     RDKit          3D

 28 30  0  0  0  0  0  0  0  0999 V2000
   11.7714   43.9030    3.4010 C   0  0  0  0  0  0  0  0  0  0  0  0
   12.9831   44.8057    3.5620 C   0  0  0  0  0  0  0  0  0  0  0  0
   12.5236   46.2287    3.8206 C   0  0  0  0  0  0  0  0  0  0  0  0
   13.8993   44.3486    4.6599 C   0  0  0  0  0  0  0  0  0  0  0  0
   14.2569   42.7660    6.6538 C   0  0  0  0  0  0  0  0  0  0  0  0
   13.6871   41.7568    7.4368 C   0  0  0  0  0  0  0  0  0  0  0  0
   14.3909   41.1805    8.5081 C   0  0  0  0  0  0  0  0  0  0  0  0
   15.6847   41.6515    8.7911 C   0  0  0  0  0  0  0  0  0  0  0  0
   16.2627   42.6591    8.0162 C   0  0  0  0  0  0  0  0  0  0  0  0
   15.5517   43.2134    6.9500 C   0  0  0  0  0  0  0  0  0  0  0  0
   14.3968   39.8291   10.6223 C   0  0  0  0  0  0  0  0  0  0  0  0
   13.3086   39.5615   11.6488 C   0  0  0  0  0  0  0  0  0  0  0  0
   12.4833   38.3515   11.2214 C   0  0  0  0  0  0  0  0  0  0  0  0
   10.9473   37.5826    9.4032 C   0  0  0  0  0  0  0  0  0  0  0  0
   11.4832   36.3506    8.7531 C   0  0  0  0  0  0  0  0  0  0  0  0
   11.7250   36.3299    7.3749 C   0  0  0  0  0  0  0  0  0  0  0  0
   12.2433   35.1793    6.7727 C   0  0  0  0  0  0  0  0  0  0  0  0
   12.5212   34.0484    7.5479 C   0  0  0  0  0  0  0  0  0  0  0  0
   12.2842   34.0693    8.9258 C   0  0  0  0  0  0  0  0  0  0  0  0
   11.7667   35.2199    9.5288 C   0  0  0  0  0  0  0  0  0  0  0  0
   13.0615   32.8703    6.9302 C   0  0  0  0  0  0  0  0  0  0  0  0
   12.6727   39.3462    8.8965 C   0  0  0  0  0  0  0  0  0  0  0  0
   15.0337   44.8876    4.7657 O   0  0  0  0  0  0  0  0  0  0  0  0
   12.2491   39.4161    7.7097 O   0  0  0  0  0  0  0  0  0  0  0  0
   13.4920   43.3121    5.5694 N   0  0  0  0  0  0  0  0  0  0  0  0
   13.7950   40.1474    9.3268 N   0  0  0  0  0  0  0  0  0  0  0  0
   12.0369   38.4521    9.8298 N   0  0  0  0  0  0  0  0  0  0  0  0
   13.5004   31.9222    6.4314 N   0  0  0  0  0  0  0  0  0  0  0  0
  1  2  1  0
  2  3  1  0
  2  4  1  0
  4 25  1  0
  6  7  2  0
  7 26  1  0
  8  9  2  0
 10  5  2  0
 11 26  1  0
 11 12  1  0
 12 13  1  0
 13 27  1  0
 14 27  1  0
 14 15  1  0
 16 17  2  0
 18 19  2  0
 18 21  1  0
 20 15  2  0
 22 26  1  0
 25  5  1  0
 27 22  1  0
  4 23  2  0
  5  6  1  0
  7  8  1  0
  9 10  1  0
 15 16  1  0
 17 18  1  0
 19 20  1  0
 22 24  2  0
 21 28  3  0
M  END
>  <rmsd>  (259) 
0.246881798

$$$$
MolPort-007-967-222 CHEMBL5013382 ChemDiv-L497-0043 MCULE-7356281051 PubChem-46385446 ZINC000033129556 ZINC33129556
     RDKit          3D

 25 27  0  0  0  0  0  0  0  0999 V2000
   16.5306   42.5037    5.4348 C   0  0  0  0  0  0  0  0  0  0  0  0
   15.6631   42.5204    6.6450 C   0  0  0  0  0  0  0  0  0  0  0  0
   14.3065   42.8521    6.7076 C   0  0  0  0  0  0  0  0  0  0  0  0
   13.9734   44.2001    4.5713 C   0  0  0  0  0  0  0  0  0  0  0  0
   13.1821   44.3589    3.3388 C   0  0  0  0  0  0  0  0  0  0  0  0
   12.0023   43.6236    3.1551 C   0  0  0  0  0  0  0  0  0  0  0  0
   11.2508   43.7710    1.9855 C   0  0  0  0  0  0  0  0  0  0  0  0
   11.6757   44.6568    0.9891 C   0  0  0  0  0  0  0  0  0  0  0  0
   12.8508   45.3924    1.1648 C   0  0  0  0  0  0  0  0  0  0  0  0
   13.6013   45.2441    2.3346 C   0  0  0  0  0  0  0  0  0  0  0  0
   13.7250   42.6132    7.9589 C   0  0  0  0  0  0  0  0  0  0  0  0
   14.6435   42.1261    8.8784 C   0  0  0  0  0  0  0  0  0  0  0  0
   13.4422   39.3288    9.8959 C   0  0  0  0  0  0  0  0  0  0  0  0
   12.7546   38.2723   10.7235 C   0  0  0  0  0  0  0  0  0  0  0  0
   12.8630   38.7880   12.1287 C   0  0  0  0  0  0  0  0  0  0  0  0
   14.1073   39.6493   12.1234 C   0  0  0  0  0  0  0  0  0  0  0  0
   13.5210   43.3119    5.6010 N   0  0  0  0  0  0  0  0  0  0  0  0
   14.4435   39.9734   10.7387 N   0  0  0  0  0  0  0  0  0  0  0  0
   15.0218   44.8815    4.7373 O   0  0  0  0  0  0  0  0  0  0  0  0
   15.2465   42.4016   11.4473 O   0  0  0  0  0  0  0  0  0  0  0  0
   12.8829   42.1230   10.8755 O   0  0  0  0  0  0  0  0  0  0  0  0
   10.1125   43.0538    1.8222 F   0  0  0  0  0  0  0  0  0  0  0  0
   10.9523   44.8050   -0.1474 F   0  0  0  0  0  0  0  0  0  0  0  0
   16.1467   41.9505    8.1490 S   0  0  0  0  0  0  0  0  0  0  0  0
   14.2839   41.6904   10.5379 S   0  0  0  0  0  0  0  0  0  0  0  0
  1  2  1  0
  2 24  1  0
  3 17  1  0
  3 11  1  0
  4  5  1  0
  6  7  2  0
  7 22  1  0
  8 23  1  0
  8  9  2  0
 10  5  2  0
 12 24  1  0
 13 18  1  0
 13 14  1  0
 14 15  1  0
 15 16  1  0
 16 18  1  0
 17  4  1  0
 25 12  1  0
 25 18  1  0
  2  3  2  0
  4 19  2  0
  5  6  1  0
  7  8  1  0
  9 10  1  0
 11 12  2  0
 25 20  2  0
 25 21  2  0
M  END
>  <rmsd>  (260) 
0.246856332

$$$$
MolPort-039-138-684 261494877 MCULE-4726689180 MCULE-5610323746 PubChem-102594534 ZINC000261494877
     RDKit          3D

 33 35  0  0  0  0  0  0  0  0999 V2000
   13.4393   43.6684    1.8980 C   0  0  0  0  0  0  0  0  0  0  0  0
   13.1966   45.0826    2.3958 C   0  0  0  0  0  0  0  0  0  0  0  0
   12.0876   45.6968    1.5616 C   0  0  0  0  0  0  0  0  0  0  0  0
   12.8161   45.0843    3.8834 C   0  0  1  0  0  0  0  0  0  0  0  0
   13.3233   47.5727    4.2678 C   0  0  0  0  0  0  0  0  0  0  0  0
   13.6197   50.0011    4.6280 C   0  0  0  0  0  0  0  0  0  0  0  0
   13.4371   50.5714    3.2620 C   0  0  0  0  0  0  0  0  0  0  0  0
   12.2978   51.3268    2.9647 C   0  0  0  0  0  0  0  0  0  0  0  0
   12.1130   51.8385    1.6769 C   0  0  0  0  0  0  0  0  0  0  0  0
   13.0649   51.5912    0.6834 C   0  0  0  0  0  0  0  0  0  0  0  0
   14.2015   50.8310    0.9761 C   0  0  0  0  0  0  0  0  0  0  0  0
   14.3858   50.3189    2.2642 C   0  0  0  0  0  0  0  0  0  0  0  0
   13.8555   44.4520    4.7608 C   0  0  0  0  0  0  0  0  0  0  0  0
   14.2880   42.6937    6.5691 C   0  0  0  0  0  0  0  0  0  0  0  0
   15.4819   43.2701    7.0293 C   0  0  0  0  0  0  0  0  0  0  0  0
   16.2196   42.6515    8.0424 C   0  0  0  0  0  0  0  0  0  0  0  0
   15.7674   41.4544    8.6032 C   0  0  0  0  0  0  0  0  0  0  0  0
   14.5776   40.8733    8.1525 C   0  0  0  0  0  0  0  0  0  0  0  0
   13.8420   41.4958    7.1378 C   0  0  0  0  0  0  0  0  0  0  0  0
   12.1528   39.1345    9.7810 C   0  0  0  0  0  0  0  0  0  0  0  0
   11.2168   40.3426    9.8481 C   0  0  0  0  0  0  0  0  0  0  0  0
   11.2716   37.8986    9.9381 C   0  0  0  0  0  0  0  0  0  0  0  0
   13.3443   39.1931   10.8256 C   0  0  0  0  0  0  0  0  0  0  0  0
   13.3480   40.4617   11.6828 C   0  0  0  0  0  0  0  0  0  0  0  0
   13.3530   38.0179   11.7992 C   0  0  0  0  0  0  0  0  0  0  0  0
   12.4735   46.4236    4.3653 N   0  0  0  0  0  0  0  0  0  0  0  0
   13.4901   43.3154    5.5535 N   0  0  0  0  0  0  0  0  0  0  0  0
   14.4593   47.4834    3.7252 O   0  0  0  0  0  0  0  0  0  0  0  0
   12.8723   48.7970    4.7667 O   0  0  0  0  0  0  0  0  0  0  0  0
   15.0324   44.9032    4.7778 O   0  0  0  0  0  0  0  0  0  0  0  0
   12.7224   39.0833    8.4995 O   0  0  0  0  0  0  0  0  0  0  0  0
   14.5410   39.1459   10.0941 O   0  0  0  0  0  0  0  0  0  0  0  0
   14.0828   39.5203    8.7665 B   0  0  0  0  0  0  0  0  0  0  0  0
  1  2  1  0
  2  3  1  0
  4  2  1  0
  4 26  1  1
  4 13  1  0
  5 29  1  0
  6 29  1  0
  6  7  1  0
  8  9  2  0
 10 11  2  0
 12  7  2  0
 13 27  1  0
 15 16  2  0
 17 18  2  0
 18 33  1  0
 19 14  2  0
 20 31  1  0
 20 21  1  0
 20 22  1  0
 20 23  1  0
 23 24  1  0
 23 25  1  0
 23 32  1  0
 26  5  1  0
 27 14  1  0
 33 31  1  0
 33 32  1  0
  5 28  2  0
  7  8  1  0
  9 10  1  0
 11 12  1  0
 13 30  2  0
 14 15  1  0
 16 17  1  0
 18 19  1  0
M  END
>  <rmsd>  (261) 
0.246855721

$$$$
MolPort-020-293-084 MCULE-8317610416 PubChem-110265551
     RDKit          3D

 33 36  0  0  0  0  0  0  0  0999 V2000
   20.7964   39.4511   13.2611 C   0  0  0  0  0  0  0  0  0  0  0  0
   20.4867   38.1234   12.6019 C   0  0  0  0  0  0  0  0  0  0  0  0
   18.1547   37.3272   12.3470 C   0  0  0  0  0  0  0  0  0  0  0  0
   16.9909   36.8158   12.9470 C   0  0  0  0  0  0  0  0  0  0  0  0
   15.8581   36.5563   12.1687 C   0  0  0  0  0  0  0  0  0  0  0  0
   15.8774   36.7916   10.7905 C   0  0  0  0  0  0  0  0  0  0  0  0
   17.0368   37.2890   10.1880 C   0  0  0  0  0  0  0  0  0  0  0  0
   18.1686   37.5569   10.9611 C   0  0  0  0  0  0  0  0  0  0  0  0
   14.6526   36.5188    9.9621 C   0  0  0  0  0  0  0  0  0  0  0  0
   13.2039   38.0470   11.1499 C   0  0  0  0  0  0  0  0  0  0  0  0
   13.7479   39.3747   11.6809 C   0  0  0  0  0  0  0  0  0  0  0  0
   13.4580   40.5019   10.6915 C   0  0  0  0  0  0  0  0  0  0  0  0
   13.6667   40.0785    9.2308 C   0  0  2  0  0  0  0  0  0  0  0  0
   14.4410   38.7644    9.1145 C   0  0  0  0  0  0  0  0  0  0  0  0
   14.3327   41.1651    8.4494 C   0  0  0  0  0  0  0  0  0  0  0  0
   14.2203   42.7297    6.6553 C   0  0  0  0  0  0  0  0  0  0  0  0
   15.5120   43.1830    6.9563 C   0  0  0  0  0  0  0  0  0  0  0  0
   16.2133   42.6133    8.0188 C   0  0  0  0  0  0  0  0  0  0  0  0
   15.6255   41.5985    8.7727 C   0  0  0  0  0  0  0  0  0  0  0  0
   13.8492   44.3217    4.6683 C   0  0  0  0  0  0  0  0  0  0  0  0
   15.4369   45.9032    3.9027 C   0  0  0  0  0  0  0  0  0  0  0  0
   14.5592   46.3182    2.9032 C   0  0  0  0  0  0  0  0  0  0  0  0
   13.3140   45.6983    2.8188 C   0  0  0  0  0  0  0  0  0  0  0  0
   12.3483   46.1110    1.7675 C   0  0  0  0  0  0  0  0  0  0  0  0
   16.7746   46.5378    4.0281 C   0  0  0  0  0  0  0  0  0  0  0  0
   16.9276   36.5823   14.4184 C   0  0  0  0  0  0  0  0  0  0  0  0
   19.2788   37.5987   13.1364 O   0  0  0  0  0  0  0  0  0  0  0  0
   16.4948   37.7422   15.0610 O   0  0  0  0  0  0  0  0  0  0  0  0
   13.7573   37.6756    9.8312 N   0  0  0  0  0  0  0  0  0  0  0  0
   13.6703   41.7375    7.4077 N   0  0  0  0  0  0  0  0  0  0  0  0
   13.4561   43.2813    5.5736 N   0  0  0  0  0  0  0  0  0  0  0  0
   15.0691   44.9184    4.7628 N   0  0  0  0  0  0  0  0  0  0  0  0
   12.9828   44.7165    3.6978 N   0  0  0  0  0  0  0  0  0  0  0  0
  1  2  1  0
  2 27  1  0
  3 27  1  0
  4  5  2  0
  6  7  2  0
  8  3  2  0
  9  6  1  0
  9 29  1  0
 10 29  1  0
 10 11  1  0
 11 12  1  0
 12 13  1  0
 13 14  1  0
 13 15  1  6
 14 29  1  0
 16 30  2  0
 16 31  1  0
 17 18  2  0
 19 15  2  0
 20 33  2  0
 21 32  2  0
 22 23  2  0
 24 23  1  0
 25 21  1  0
 26  4  1  0
 26 28  1  0
 31 20  1  0
  3  4  1  0
  5  6  1  0
  7  8  1  0
 15 30  1  0
 16 17  1  0
 18 19  1  0
 20 32  1  0
 21 22  1  0
 23 33  1  0
M  END
>  <rmsd>  (262) 
0.246802628

$$$$
Molport-052-054-864 MCULE-6130002316
     RDKit          3D

 29 32  0  0  0  0  0  0  0  0999 V2000
   13.8798   44.3227    4.6871 C   0  0  0  0  0  0  0  0  0  0  0  0
   14.1876   42.7146    6.6350 C   0  0  0  0  0  0  0  0  0  0  0  0
   13.6236   41.6942    7.4000 C   0  0  0  0  0  0  0  0  0  0  0  0
   14.3679   41.1555    8.4494 C   0  0  0  0  0  0  0  0  0  0  0  0
   13.7838   40.0604    9.2787 C   0  0  2  0  0  0  0  0  0  0  0  0
   13.6717   40.4907   10.7430 C   0  0  0  0  0  0  0  0  0  0  0  0
   13.0697   39.3664   11.5835 C   0  0  0  0  0  0  0  0  0  0  0  0
   13.9262   38.1095   11.4634 C   0  0  0  0  0  0  0  0  0  0  0  0
   14.6217   38.7880    9.1553 C   0  0  0  0  0  0  0  0  0  0  0  0
   13.7094   36.4759    9.5577 C   0  0  0  0  0  0  0  0  0  0  0  0
   12.8353   34.3103    9.9529 C   0  0  0  0  0  0  0  0  0  0  0  0
   12.9734   33.9948    8.6027 C   0  0  0  0  0  0  0  0  0  0  0  0
   13.4927   34.9644    7.7468 C   0  0  0  0  0  0  0  0  0  0  0  0
   13.6502   34.6788    6.3491 C   0  0  0  0  0  0  0  0  0  0  0  0
   16.1537   42.6237    7.9509 C   0  0  0  0  0  0  0  0  0  0  0  0
   17.5202   43.1266    8.2468 C   0  0  0  0  0  0  0  0  0  0  0  0
   14.1485   46.0392    2.9772 C   0  0  0  0  0  0  0  0  0  0  0  0
   15.2403   45.8808    3.8257 C   0  0  0  0  0  0  0  0  0  0  0  0
   16.4897   46.6842    3.7204 C   0  0  0  0  0  0  0  0  0  0  0  0
   14.0360   47.0064    1.8506 C   0  0  0  0  0  0  0  0  0  0  0  0
   13.4337   43.2759    5.5552 N   0  0  0  0  0  0  0  0  0  0  0  0
   14.0904   37.7667   10.0534 N   0  0  0  0  0  0  0  0  0  0  0  0
   13.2031   35.5374   10.4049 N   0  0  0  0  0  0  0  0  0  0  0  0
   13.8495   36.1804    8.2356 N   0  0  0  0  0  0  0  0  0  0  0  0
   13.7775   34.4490    5.2220 N   0  0  0  0  0  0  0  0  0  0  0  0
   15.6180   41.6291    8.7050 N   0  0  0  0  0  0  0  0  0  0  0  0
   15.4408   43.1588    6.9256 N   0  0  0  0  0  0  0  0  0  0  0  0
   15.0880   44.9233    4.7780 N   0  0  0  0  0  0  0  0  0  0  0  0
   12.9528   44.9474    3.4309 S   0  0  0  0  0  0  0  0  0  0  0  0
  1 21  1  0
  1 29  1  0
  2 27  2  0
  3  4  2  0
  5  4  1  6
  5  6  1  0
  6  7  1  0
  7  8  1  0
  8 22  1  0
  9 22  1  0
  9  5  1  0
 10 24  2  0
 11 23  2  0
 12 13  2  0
 13 14  1  0
 15 26  2  0
 16 15  1  0
 17 29  1  0
 18 28  1  0
 19 18  1  0
 20 17  1  0
 21  2  1  0
 22 10  1  0
  1 28  2  0
  2  3  1  0
  4 26  1  0
 10 23  1  0
 11 12  1  0
 13 24  1  0
 15 27  1  0
 17 18  2  0
 14 25  3  0
M  END
>  <rmsd>  (263) 
0.246786535

$$$$
Molport-053-290-294 PubChem-165990344
     RDKit          3D

 31 35  0  0  0  0  0  0  0  0999 V2000
   13.6505   39.5702   11.6203 C   0  0  0  0  0  0  0  0  0  0  0  0
   12.2589   38.9658   11.3734 C   0  0  0  0  0  0  0  0  0  0  0  0
   11.9412   38.6737    9.9022 C   0  0  1  0  0  0  0  0  0  0  0  0
   12.3955   39.8139    8.9875 C   0  0  0  0  0  0  0  0  0  0  0  0
   14.5165   39.6085   10.3648 C   0  0  0  0  0  0  0  0  0  0  0  0
   14.3915   41.2384    8.4470 C   0  0  0  0  0  0  0  0  0  0  0  0
   14.2512   42.7551    6.6253 C   0  0  0  0  0  0  0  0  0  0  0  0
   16.2636   42.6274    7.8623 C   0  0  0  0  0  0  0  0  0  0  0  0
   15.7078   41.6515    8.6860 C   0  0  0  0  0  0  0  0  0  0  0  0
   13.9145   44.3303    4.6505 C   0  0  0  0  0  0  0  0  0  0  0  0
   13.4802   45.6122    2.5811 C   0  0  0  0  0  0  0  0  0  0  0  0
   13.9563   44.8620    1.3316 C   0  0  0  0  0  0  0  0  0  0  0  0
   15.1517   43.9928    1.6179 C   0  0  0  0  0  0  0  0  0  0  0  0
   16.4255   44.3961    2.0225 C   0  0  0  0  0  0  0  0  0  0  0  0
   17.4050   43.4102    2.2275 C   0  0  0  0  0  0  0  0  0  0  0  0
   17.1051   42.0498    2.0193 C   0  0  0  0  0  0  0  0  0  0  0  0
   15.8240   41.6592    1.5985 C   0  0  0  0  0  0  0  0  0  0  0  0
   14.8689   42.6557    1.4043 C   0  0  0  0  0  0  0  0  0  0  0  0
   13.5005   42.5472    0.9555 C   0  0  0  0  0  0  0  0  0  0  0  0
   12.7666   41.4167    0.6003 C   0  0  0  0  0  0  0  0  0  0  0  0
   11.4407   41.6002    0.1769 C   0  0  0  0  0  0  0  0  0  0  0  0
   10.8830   42.8922    0.1138 C   0  0  0  0  0  0  0  0  0  0  0  0
   11.6440   44.0163    0.4754 C   0  0  0  0  0  0  0  0  0  0  0  0
   12.9592   43.8191    0.8996 C   0  0  0  0  0  0  0  0  0  0  0  0
   13.7732   40.2341    9.2700 N   0  0  0  0  0  0  0  0  0  0  0  0
   13.6966   41.8025    7.4201 N   0  0  0  0  0  0  0  0  0  0  0  0
   15.5307   43.1594    6.8511 N   0  0  0  0  0  0  0  0  0  0  0  0
   13.4785   43.3097    5.5547 N   0  0  0  0  0  0  0  0  0  0  0  0
   15.0410   44.8798    4.7929 O   0  0  0  0  0  0  0  0  0  0  0  0
   13.0685   44.7156    3.6099 O   0  0  0  0  0  0  0  0  0  0  0  0
   12.5456   37.4778    9.5110 O   0  0  0  0  0  0  0  0  0  0  0  0
  1  2  1  0
  2  3  1  0
  3  4  1  0
  3 31  1  6
  4 25  1  0
  5 25  1  0
  5  1  1  0
  7 26  2  0
  7 28  1  0
  8 27  2  0
  9  6  2  0
 10 30  1  0
 11 30  1  0
 11 12  1  0
 12 13  1  0
 12 24  1  0
 14 15  2  0
 16 17  2  0
 18 19  1  0
 18 13  2  0
 20 21  2  0
 22 23  2  0
 24 19  2  0
 25  6  1  0
 28 10  1  0
  6 26  1  0
  7 27  1  0
  8  9  1  0
 10 29  2  0
 13 14  1  0
 15 16  1  0
 17 18  1  0
 19 20  1  0
 21 22  1  0
 23 24  1  0
M  END
>  <rmsd>  (264) 
0.246786132

$$$$
MolPort-007-967-225 ChemDiv-L497-0048 MCULE-3085249082 PubChem-46385449 ZINC000033129559 ZINC33129559
     RDKit          3D

 25 27  0  0  0  0  0  0  0  0999 V2000
   16.5316   42.5039    5.4271 C   0  0  0  0  0  0  0  0  0  0  0  0
   15.6671   42.5190    6.6394 C   0  0  0  0  0  0  0  0  0  0  0  0
   14.3105   42.8503    6.7056 C   0  0  0  0  0  0  0  0  0  0  0  0
   13.9721   44.2017    4.5724 C   0  0  0  0  0  0  0  0  0  0  0  0
   13.1774   44.3629    3.3424 C   0  0  0  0  0  0  0  0  0  0  0  0
   11.9982   43.6261    3.1591 C   0  0  0  0  0  0  0  0  0  0  0  0
   11.2447   43.7768    1.9912 C   0  0  0  0  0  0  0  0  0  0  0  0
   11.6652   44.6653    0.9976 C   0  0  0  0  0  0  0  0  0  0  0  0
   12.8393   45.4029    1.1720 C   0  0  0  0  0  0  0  0  0  0  0  0
   13.5929   45.2522    2.3399 C   0  0  0  0  0  0  0  0  0  0  0  0
   10.8916   44.8196   -0.2017 C   0  0  0  0  0  0  0  0  0  0  0  0
   13.7321   42.6096    7.9581 C   0  0  0  0  0  0  0  0  0  0  0  0
   14.6529   42.1215    8.8748 C   0  0  0  0  0  0  0  0  0  0  0  0
   14.1038   39.6417   12.1106 C   0  0  0  0  0  0  0  0  0  0  0  0
   13.1496   38.4740   12.0902 C   0  0  0  0  0  0  0  0  0  0  0  0
   12.4462   38.6057   10.7709 C   0  0  0  0  0  0  0  0  0  0  0  0
   13.4364   39.3270    9.8827 C   0  0  0  0  0  0  0  0  0  0  0  0
   13.5222   43.3116    5.6017 N   0  0  0  0  0  0  0  0  0  0  0  0
   10.2680   44.9443   -1.1686 N   0  0  0  0  0  0  0  0  0  0  0  0
   14.4432   39.9645   10.7290 N   0  0  0  0  0  0  0  0  0  0  0  0
   15.0211   44.8823    4.7368 O   0  0  0  0  0  0  0  0  0  0  0  0
   12.9018   42.1271   10.8801 O   0  0  0  0  0  0  0  0  0  0  0  0
   15.2702   42.3835   11.4416 O   0  0  0  0  0  0  0  0  0  0  0  0
   16.1544   41.9473    8.1416 S   0  0  0  0  0  0  0  0  0  0  0  0
   14.2974   41.6834   10.5344 S   0  0  0  0  0  0  0  0  0  0  0  0
  1  2  1  0
  2 24  1  0
  3 18  1  0
  3 12  1  0
  4  5  1  0
  6  7  2  0
  8  9  2  0
  8 11  1  0
 10  5  2  0
 13 24  1  0
 14 20  1  0
 14 15  1  0
 15 16  1  0
 16 17  1  0
 17 20  1  0
 18  4  1  0
 25 13  1  0
 25 20  1  0
  2  3  2  0
  4 21  2  0
  5  6  1  0
  7  8  1  0
  9 10  1  0
 12 13  2  0
 25 22  2  0
 25 23  2  0
 11 19  3  0
M  END
>  <rmsd>  (265) 
0.246761203

$$$$
MolPort-019-824-987 67983260 CSSS00159572308 MCULE-6825799324 PubChem-56723134 ZINC000067983260 ZINC67983260
     RDKit          3D

 25 27  0  0  0  0  0  0  0  0999 V2000
   10.7922   44.2715    4.1672 C   0  0  0  0  0  0  0  0  0  0  0  0
   11.8289   45.3199    3.8106 C   0  0  0  0  0  0  0  0  0  0  0  0
   13.1391   44.6604    3.4098 C   0  0  0  0  0  0  0  0  0  0  0  0
   13.9526   44.2990    4.6076 C   0  0  0  0  0  0  0  0  0  0  0  0
   14.2433   42.7031    6.5711 C   0  0  0  0  0  0  0  0  0  0  0  0
   15.5696   42.2673    6.3660 C   0  0  0  0  0  0  0  0  0  0  0  0
   17.4957   41.9794    4.8340 C   0  0  0  0  0  0  0  0  0  0  0  0
   16.2666   41.6673    7.4277 C   0  0  0  0  0  0  0  0  0  0  0  0
   15.6556   41.4652    8.6725 C   0  0  0  0  0  0  0  0  0  0  0  0
   14.3300   41.8806    8.8522 C   0  0  0  0  0  0  0  0  0  0  0  0
   13.6293   42.4843    7.8076 C   0  0  0  0  0  0  0  0  0  0  0  0
   17.7292   40.9964    9.9277 C   0  0  0  0  0  0  0  0  0  0  0  0
   18.0577   40.4053   11.1334 C   0  0  0  0  0  0  0  0  0  0  0  0
   15.9504   40.2086   10.8420 C   0  0  0  0  0  0  0  0  0  0  0  0
   14.5607   39.7768   11.0735 C   0  0  0  0  0  0  0  0  0  0  0  0
   12.7216   39.3740   12.0808 C   0  0  0  0  0  0  0  0  0  0  0  0
   12.6431   38.8371   10.8069 C   0  0  0  0  0  0  0  0  0  0  0  0
   14.1886   38.6077    8.8766 C   0  0  0  0  0  0  0  0  0  0  0  0
   15.0481   44.8875    4.8078 O   0  0  0  0  0  0  0  0  0  0  0  0
   16.1674   42.4041    5.1078 O   0  0  0  0  0  0  0  0  0  0  0  0
   13.4709   43.3152    5.5306 N   0  0  0  0  0  0  0  0  0  0  0  0
   16.3999   40.8732    9.7532 N   0  0  0  0  0  0  0  0  0  0  0  0
   16.9391   39.9171   11.7071 N   0  0  0  0  0  0  0  0  0  0  0  0
   13.9310   39.9518   12.2496 N   0  0  0  0  0  0  0  0  0  0  0  0
   13.8051   39.0991   10.1898 N   0  0  0  0  0  0  0  0  0  0  0  0
  1  2  1  0
  2  3  1  0
  3  4  1  0
  4 21  1  0
  6 20  1  0
  6  8  2  0
  7 20  1  0
  9 10  2  0
  9 22  1  0
 11  5  2  0
 13 23  1  0
 14 15  1  0
 14 22  1  0
 16 24  1  0
 17 25  1  0
 18 25  1  0
 21  5  1  0
 22 12  1  0
 25 15  1  0
  4 19  2  0
  5  6  1  0
  8  9  1  0
 10 11  1  0
 12 13  2  0
 14 23  2  0
 15 24  2  0
 16 17  2  0
M  END
>  <rmsd>  (266) 
0.246714339

$$$$
MolPort-006-503-785 ChemDiv-V002-9449 MCULE-3434241118 PubChem-8090333 ZINC000006833694 ZINC06833694
     RDKit          3D

 27 29  0  0  0  0  0  0  0  0999 V2000
   19.8061   39.7403   12.6547 C   0  0  0  0  0  0  0  0  0  0  0  0
   18.1038   40.6077   11.1128 C   0  0  0  0  0  0  0  0  0  0  0  0
   16.0622   40.2088   10.8430 C   0  0  0  0  0  0  0  0  0  0  0  0
   14.7073   39.6653   11.0475 C   0  0  0  0  0  0  0  0  0  0  0  0
   14.4985   38.2816   11.1159 C   0  0  0  0  0  0  0  0  0  0  0  0
   13.2096   37.7746   11.3124 C   0  0  0  0  0  0  0  0  0  0  0  0
   12.1280   38.6450   11.4641 C   0  0  0  0  0  0  0  0  0  0  0  0
   12.3350   40.0255   11.4247 C   0  0  0  0  0  0  0  0  0  0  0  0
   13.6209   40.5339   11.2213 C   0  0  0  0  0  0  0  0  0  0  0  0
   15.6554   41.6991    8.8380 C   0  0  0  0  0  0  0  0  0  0  0  0
   16.1082   42.8677    8.2058 C   0  0  0  0  0  0  0  0  0  0  0  0
   15.4086   43.4042    7.1240 C   0  0  0  0  0  0  0  0  0  0  0  0
   14.2468   42.7768    6.6485 C   0  0  0  0  0  0  0  0  0  0  0  0
   13.8795   44.3989    4.7062 C   0  0  0  0  0  0  0  0  0  0  0  0
   12.8989   44.9629    3.7331 C   0  0  0  0  0  0  0  0  0  0  0  0
   12.0532   46.0403    4.3920 C   0  0  0  0  0  0  0  0  0  0  0  0
   11.4740   46.9454    3.3235 C   0  0  0  0  0  0  0  0  0  0  0  0
   10.9166   45.4121    5.1740 C   0  0  0  0  0  0  0  0  0  0  0  0
   13.7963   41.6077    7.2707 C   0  0  0  0  0  0  0  0  0  0  0  0
   14.4994   41.0681    8.3502 C   0  0  0  0  0  0  0  0  0  0  0  0
   19.4128   40.5941   11.5922 O   0  0  0  0  0  0  0  0  0  0  0  0
   15.0398   44.8870    4.7664 O   0  0  0  0  0  0  0  0  0  0  0  0
   17.7098   41.3819   10.0873 N   0  0  0  0  0  0  0  0  0  0  0  0
   16.4233   41.1304    9.9162 N   0  0  0  0  0  0  0  0  0  0  0  0
   17.1066   39.8504   11.6173 N   0  0  0  0  0  0  0  0  0  0  0  0
   13.4863   43.3169    5.5597 N   0  0  0  0  0  0  0  0  0  0  0  0
   15.5345   37.4188   10.9701 F   0  0  0  0  0  0  0  0  0  0  0  0
  1 21  1  0
  2 21  1  0
  2 25  1  0
  3  4  1  0
  5 27  1  0
  5  6  2  0
  7  8  2  0
  9  4  2  0
 11 12  2  0
 13 26  1  0
 13 19  2  0
 15 14  1  0
 15 16  1  0
 16 17  1  0
 16 18  1  0
 20 10  2  0
 24 23  1  0
 24  3  1  0
 24 10  1  0
 26 14  1  0
  2 23  2  0
  3 25  2  0
  4  5  1  0
  6  7  1  0
  8  9  1  0
 10 11  1  0
 12 13  1  0
 14 22  2  0
 19 20  1  0
M  END
>  <rmsd>  (267) 
0.246635541

$$$$
MolPort-020-298-668 MCULE-1816645541 PubChem-110269813
     RDKit          3D

 22 24  0  0  0  0  0  0  0  0999 V2000
   14.0354   46.9598    1.8904 C   0  0  0  0  0  0  0  0  0  0  0  0
   14.1262   45.9907    3.0133 C   0  0  0  0  0  0  0  0  0  0  0  0
   13.8698   44.3152    4.6989 C   0  0  0  0  0  0  0  0  0  0  0  0
   14.2219   42.7153    6.6679 C   0  0  0  0  0  0  0  0  0  0  0  0
   15.5156   43.1660    6.9646 C   0  0  0  0  0  0  0  0  0  0  0  0
   16.2189   42.5936    8.0245 C   0  0  0  0  0  0  0  0  0  0  0  0
   15.6308   41.5793    8.7793 C   0  0  0  0  0  0  0  0  0  0  0  0
   14.3362   41.1488    8.4595 C   0  0  0  0  0  0  0  0  0  0  0  0
   13.6700   40.0631    9.2423 C   0  0  2  0  0  0  0  0  0  0  0  0
   13.4559   40.4878   10.6986 C   0  0  0  0  0  0  0  0  0  0  0  0
   12.9922   39.3081   11.5550 C   0  0  0  0  0  0  0  0  0  0  0  0
   13.7930   38.0254   11.2790 C   0  0  0  0  0  0  0  0  0  0  0  0
   14.4383   38.7365    9.1139 C   0  0  0  0  0  0  0  0  0  0  0  0
   15.5899   36.9968   10.1883 C   0  0  0  0  0  0  0  0  0  0  0  0
   17.0820   37.1990   10.0051 C   0  0  0  0  0  0  0  0  0  0  0  0
   15.2128   45.8666    3.8060 N   0  0  0  0  0  0  0  0  0  0  0  0
   15.0713   44.9328    4.7451 N   0  0  0  0  0  0  0  0  0  0  0  0
   13.4581   43.2716    5.5896 N   0  0  0  0  0  0  0  0  0  0  0  0
   13.6714   41.7238    7.4205 N   0  0  0  0  0  0  0  0  0  0  0  0
   14.9423   38.2782   10.4100 N   0  0  0  0  0  0  0  0  0  0  0  0
   12.9074   44.9163    3.4563 S   0  0  0  0  0  0  0  0  0  0  0  0
   17.6944   35.9657    9.7898 O   0  0  0  0  0  0  0  0  0  0  0  0
  1  2  1  0
  2 21  1  0
  3 21  1  0
  3 18  1  0
  4 19  2  0
  5  6  2  0
  7  8  2  0
  9  8  1  6
  9 10  1  0
 10 11  1  0
 11 12  1  0
 12 20  1  0
 13 20  1  0
 13  9  1  0
 14 20  1  0
 14 15  1  0
 15 22  1  0
 16 17  1  0
 18  4  1  0
  2 16  2  0
  3 17  2  0
  4  5  1  0
  6  7  1  0
  8 19  1  0
M  END
>  <rmsd>  (268) 
0.24662073

$$$$
MolPort-019-771-773 CSSS20538596534 PubChem-56694138 ZINC000005708151 ZINC05708151
     RDKit          3D

 26 27  0  0  0  0  0  0  0  0999 V2000
   12.6520   38.7943   11.3944 C   0  0  0  0  0  0  0  0  0  0  0  0
   13.9451   39.5856   11.4190 C   0  0  0  0  0  0  0  0  0  0  0  0
   14.6846   39.4223   10.1040 C   0  0  0  0  0  0  0  0  0  0  0  0
   14.5469   41.1281    8.3148 C   0  0  0  0  0  0  0  0  0  0  0  0
   15.8530   41.5733    8.5516 C   0  0  0  0  0  0  0  0  0  0  0  0
   16.3581   42.6114    7.7718 C   0  0  0  0  0  0  0  0  0  0  0  0
   18.2275   44.1211    7.2331 C   0  0  0  0  0  0  0  0  0  0  0  0
   19.6494   44.3836    7.6923 C   0  0  0  0  0  0  0  0  0  0  0  0
   20.5497   43.2313    7.2914 C   0  0  0  0  0  0  0  0  0  0  0  0
   14.3112   42.7275    6.5820 C   0  0  0  0  0  0  0  0  0  0  0  0
   13.8795   44.3839    4.6886 C   0  0  0  0  0  0  0  0  0  0  0  0
   12.9266   44.8869    3.6834 C   0  0  0  0  0  0  0  0  0  0  0  0
   13.2891   45.9317    2.8216 C   0  0  0  0  0  0  0  0  0  0  0  0
   12.3849   46.4081    1.8685 C   0  0  0  0  0  0  0  0  0  0  0  0
   11.1039   45.8464    1.7631 C   0  0  0  0  0  0  0  0  0  0  0  0
   10.7419   44.8021    2.6247 C   0  0  0  0  0  0  0  0  0  0  0  0
   11.6465   44.3260    3.5777 C   0  0  0  0  0  0  0  0  0  0  0  0
   13.9822   40.0915    9.0633 O   0  0  0  0  0  0  0  0  0  0  0  0
   17.6578   43.0659    7.9955 O   0  0  0  0  0  0  0  0  0  0  0  0
   15.0287   44.8969    4.7739 O   0  0  0  0  0  0  0  0  0  0  0  0
    8.9173   45.7771    0.6881 O   0  0  0  0  0  0  0  0  0  0  0  0
   10.4887   47.2623    0.0160 O   0  0  0  0  0  0  0  0  0  0  0  0
   15.5793   43.1674    6.8043 N   0  0  0  0  0  0  0  0  0  0  0  0
   13.4933   43.3140    5.5632 N   0  0  0  0  0  0  0  0  0  0  0  0
   10.1726   46.3321    0.7868 N   0  0  0  0  0  0  0  0  0  0  0  0
   13.8084   41.7155    7.3369 N   0  0  0  0  0  0  0  0  0  0  0  0
  1  2  1  0
  2  3  1  0
  3 18  1  0
  4 18  1  0
  4 26  2  0
  5  6  2  0
  6 19  1  0
  7 19  1  0
  7  8  1  0
  8  9  1  0
 10 23  2  0
 10 24  1  0
 11 12  1  0
 13 14  2  0
 15 16  2  0
 15 25  1  0
 17 12  2  0
 24 11  1  0
 25 21  1  0
  4  5  1  0
  6 23  1  0
 10 26  1  0
 11 20  2  0
 12 13  1  0
 14 15  1  0
 16 17  1  0
 25 22  2  0
M  CHG  2  21  -1  25   1
M  END
>  <rmsd>  (269) 
0.246614918

$$$$
MolPort-009-685-328 6790940 CSSS03437122812 LN01384662 MCULE-7478355009 PubChem-4126701 ZINC000006790940
     RDKit          3D

 23 25  0  0  0  0  0  0  0  0999 V2000
   14.3651   42.7638    6.6523 C   0  0  0  0  0  0  0  0  0  0  0  0
   13.8813   44.3329    4.6915 C   0  0  0  0  0  0  0  0  0  0  0  0
   12.9005   44.7416    3.6465 C   0  0  0  0  0  0  0  0  0  0  0  0
   13.6010   43.3649    1.6991 C   0  0  0  0  0  0  0  0  0  0  0  0
   14.7618   44.1256    1.4808 C   0  0  0  0  0  0  0  0  0  0  0  0
   15.6456   43.7837    0.4532 C   0  0  0  0  0  0  0  0  0  0  0  0
   15.3751   42.6819   -0.3629 C   0  0  0  0  0  0  0  0  0  0  0  0
   14.2208   41.9227   -0.1516 C   0  0  0  0  0  0  0  0  0  0  0  0
   13.3368   42.2645    0.8765 C   0  0  0  0  0  0  0  0  0  0  0  0
   16.0981   42.1303    8.2382 C   0  0  0  0  0  0  0  0  0  0  0  0
   14.8997   41.4456    8.3775 C   0  0  0  0  0  0  0  0  0  0  0  0
   14.7508   40.4738    9.3719 C   0  0  0  0  0  0  0  0  0  0  0  0
   15.8488   40.2137   10.2191 C   0  0  0  0  0  0  0  0  0  0  0  0
   17.0582   40.9172   10.0650 C   0  0  0  0  0  0  0  0  0  0  0  0
   17.1925   41.8902    9.0635 C   0  0  0  0  0  0  0  0  0  0  0  0
   13.2937   38.8205   10.5167 C   0  0  0  0  0  0  0  0  0  0  0  0
   12.9954   39.5105   11.8346 C   0  0  0  0  0  0  0  0  0  0  0  0
   13.5291   43.3011    5.6202 N   0  0  0  0  0  0  0  0  0  0  0  0
   13.9296   41.7956    7.4936 N   0  0  0  0  0  0  0  0  0  0  0  0
   12.6954   43.6811    2.7180 O   0  0  0  0  0  0  0  0  0  0  0  0
   15.0058   44.8971    4.7353 O   0  0  0  0  0  0  0  0  0  0  0  0
   13.5373   39.7872    9.5010 O   0  0  0  0  0  0  0  0  0  0  0  0
   15.9695   43.2205    6.9704 S   0  0  0  0  0  0  0  0  0  0  0  0
  1 18  1  0
  1 23  1  0
  3  2  1  0
  3 20  1  0
  4 20  1  0
  5  6  2  0
  7  8  2  0
  9  4  2  0
 10 23  1  0
 11 12  2  0
 11 19  1  0
 12 22  1  0
 13 14  2  0
 15 10  2  0
 16 22  1  0
 16 17  1  0
 18  2  1  0
  1 19  2  0
  2 21  2  0
  4  5  1  0
  6  7  1  0
  8  9  1  0
 10 11  1  0
 12 13  1  0
 14 15  1  0
M  END
>  <rmsd>  (270) 
0.246604621

$$$$
MolPort-016-718-555 MCULE-1416712221 PubChem-46975451
     RDKit          3D

 27 30  0  0  0  0  0  0  0  0999 V2000
   13.0289   39.4936   11.8288 C   0  0  0  0  0  0  0  0  0  0  0  0
   13.2870   38.8059   10.5007 C   0  0  0  0  0  0  0  0  0  0  0  0
   14.7407   40.4831    9.3813 C   0  0  0  0  0  0  0  0  0  0  0  0
   14.8885   41.4606    8.3923 C   0  0  0  0  0  0  0  0  0  0  0  0
   16.0749   42.1701    8.2775 C   0  0  0  0  0  0  0  0  0  0  0  0
   17.1585   41.9496    9.1224 C   0  0  0  0  0  0  0  0  0  0  0  0
   17.0256   40.9708   10.1182 C   0  0  0  0  0  0  0  0  0  0  0  0
   15.8280   40.2423   10.2477 C   0  0  0  0  0  0  0  0  0  0  0  0
   14.3592   42.7732    6.6611 C   0  0  0  0  0  0  0  0  0  0  0  0
   13.8812   44.3346    4.6922 C   0  0  0  0  0  0  0  0  0  0  0  0
   12.8834   44.7760    3.6821 C   0  0  0  0  0  0  0  0  0  0  0  0
   11.9880   45.8465    4.2789 C   0  0  0  0  0  0  0  0  0  0  0  0
   10.9379   46.2819    3.2668 C   0  0  2  0  0  0  0  0  0  0  0  0
   10.2403   47.5071    3.7497 C   0  0  0  0  0  0  0  0  0  0  0  0
   10.7768   48.7794    3.9559 C   0  0  0  0  0  0  0  0  0  0  0  0
    9.9210   49.7979    4.4054 C   0  0  0  0  0  0  0  0  0  0  0  0
    8.5570   49.5338    4.6344 C   0  0  0  0  0  0  0  0  0  0  0  0
    8.0348   48.2492    4.4142 C   0  0  0  0  0  0  0  0  0  0  0  0
    8.9024   47.2530    3.9691 C   0  0  0  0  0  0  0  0  0  0  0  0
    9.7744   45.3285    3.2630 C   0  0  0  0  0  0  0  0  0  0  0  0
   13.5392   39.7710    9.4849 O   0  0  0  0  0  0  0  0  0  0  0  0
   15.0079   44.8954    4.7333 O   0  0  0  0  0  0  0  0  0  0  0  0
    9.8575   44.1255    2.9012 O   0  0  0  0  0  0  0  0  0  0  0  0
   15.9473   43.2622    7.0112 S   0  0  0  0  0  0  0  0  0  0  0  0
   13.9279   41.7940    7.4919 N   0  0  0  0  0  0  0  0  0  0  0  0
   13.5290   43.3019    5.6199 N   0  0  0  0  0  0  0  0  0  0  0  0
    8.5434   45.9121    3.6874 N   0  0  0  0  0  0  0  0  0  0  0  0
  1  2  1  0
  2 21  1  0
  3 21  1  0
  4  5  2  0
  4 25  1  0
  5 24  1  0
  6  7  2  0
  8  3  2  0
  9 24  1  0
  9 26  1  0
 11 10  1  0
 11 12  1  0
 13 12  1  1
 13 14  1  0
 13 20  1  0
 15 16  2  0
 17 18  2  0
 19 27  1  0
 19 14  2  0
 26 10  1  0
 27 20  1  0
  3  4  1  0
  5  6  1  0
  7  8  1  0
  9 25  2  0
 10 22  2  0
 14 15  1  0
 16 17  1  0
 18 19  1  0
 20 23  2  0
M  END
>  <rmsd>  (271) 
0.24659203

$$$$
Molport-047-072-371 PubChem-132765989
     RDKit          3D

 28 31  0  0  0  0  0  0  0  0999 V2000
   17.5965   43.1540    8.1843 C   0  0  0  0  0  0  0  0  0  0  0  0
   16.2266   42.6425    7.9204 C   0  0  0  0  0  0  0  0  0  0  0  0
   14.2314   42.7175    6.6484 C   0  0  0  0  0  0  0  0  0  0  0  0
   13.8724   44.3167    4.7027 C   0  0  0  0  0  0  0  0  0  0  0  0
   14.1449   46.0242    3.0163 C   0  0  0  0  0  0  0  0  0  0  0  0
   13.6900   41.6972    7.4297 C   0  0  0  0  0  0  0  0  0  0  0  0
   14.4605   41.1664    8.4640 C   0  0  0  0  0  0  0  0  0  0  0  0
   13.9007   40.0732    9.3120 C   0  0  2  0  0  0  0  0  0  0  0  0
   13.8028   40.5146   10.7750 C   0  0  0  0  0  0  0  0  0  0  0  0
   13.3014   39.4013   11.7091 C   0  0  0  0  0  0  0  0  0  0  0  0
   13.1811   38.0421   11.0179 C   0  0  0  0  0  0  0  0  0  0  0  0
   14.7476   38.8038    9.1876 C   0  0  0  0  0  0  0  0  0  0  0  0
   15.1032   36.5679   10.2601 C   0  0  0  0  0  0  0  0  0  0  0  0
   15.1003   35.6934   11.4482 C   0  0  0  0  0  0  0  0  0  0  0  0
   14.5754   36.0342   12.6197 C   0  0  0  0  0  0  0  0  0  0  0  0
   14.6047   35.1182   13.7607 C   0  0  0  0  0  0  0  0  0  0  0  0
   14.0818   35.3992   15.0025 C   0  0  0  0  0  0  0  0  0  0  0  0
   14.3317   34.2639   15.7541 C   0  0  0  0  0  0  0  0  0  0  0  0
   14.9872   33.3727   14.9212 C   0  0  0  0  0  0  0  0  0  0  0  0
   15.4883   43.1697    6.9093 N   0  0  0  0  0  0  0  0  0  0  0  0
   13.4506   43.2707    5.5836 N   0  0  0  0  0  0  0  0  0  0  0  0
   15.0733   44.9274    4.7576 N   0  0  0  0  0  0  0  0  0  0  0  0
   15.2200   45.8686    3.8259 N   0  0  0  0  0  0  0  0  0  0  0  0
   15.7132   41.6481    8.6902 N   0  0  0  0  0  0  0  0  0  0  0  0
   14.3563   37.7977   10.1808 N   0  0  0  0  0  0  0  0  0  0  0  0
   12.9308   44.9412    3.4649 S   0  0  0  0  0  0  0  0  0  0  0  0
   15.8078   36.2107    9.2785 O   0  0  0  0  0  0  0  0  0  0  0  0
   15.1316   33.9200   13.7387 O   0  0  0  0  0  0  0  0  0  0  0  0
  1  2  1  0
  2 24  2  0
  3 20  2  0
  3 21  1  0
  4 26  1  0
  5 26  1  0
  6  7  2  0
  8  7  1  6
  8  9  1  0
  9 10  1  0
 10 11  1  0
 11 25  1  0
 12 25  1  0
 12  8  1  0
 13 14  1  0
 15 16  1  0
 16 28  1  0
 17 18  1  0
 19 28  1  0
 21  4  1  0
 22 23  1  0
 25 13  1  0
  2 20  1  0
  3  6  1  0
  4 22  2  0
  5 23  2  0
  7 24  1  0
 13 27  2  0
 14 15  2  0
 16 17  2  0
 18 19  2  0
M  END
>  <rmsd>  (272) 
0.246579915

$$$$
MolPort-003-020-518 6456015 CSSS03437095292 LN01391661 MCULE-1548270284 PubChem-5176146 ZINC000006456015
     RDKit          3D

 27 30  0  0  0  0  0  0  0  0999 V2000
   14.2548   42.7293    6.6129 C   0  0  0  0  0  0  0  0  0  0  0  0
   13.8539   44.4681    4.8012 C   0  0  0  0  0  0  0  0  0  0  0  0
   12.8436   45.1775    3.9531 C   0  0  0  0  0  0  0  0  0  0  0  0
   11.7172   45.8044    4.7831 C   0  0  0  0  0  0  0  0  0  0  0  0
   10.7109   44.7566    5.2580 C   0  0  0  0  0  0  0  0  0  0  0  0
   10.1519   43.9841    4.0687 C   0  0  0  0  0  0  0  0  0  0  0  0
   11.2826   43.2785    3.3289 C   0  0  0  0  0  0  0  0  0  0  0  0
   12.3015   44.2981    2.8199 C   0  0  0  0  0  0  0  0  0  0  0  0
   15.2589   41.1961    8.3048 C   0  0  0  0  0  0  0  0  0  0  0  0
   15.5410   42.5380    8.5504 C   0  0  0  0  0  0  0  0  0  0  0  0
   16.3343   43.0026    9.7278 C   0  0  0  0  0  0  0  0  0  0  0  0
   14.9715   43.4068    7.6027 C   0  0  0  0  0  0  0  0  0  0  0  0
   15.0265   44.8429    7.7237 C   0  0  0  0  0  0  0  0  0  0  0  0
   15.6510   40.0398    9.1661 C   0  0  0  0  0  0  0  0  0  0  0  0
   14.5805   39.7412   10.1601 C   0  0  0  0  0  0  0  0  0  0  0  0
   13.5471   38.8350    9.8302 C   0  0  0  0  0  0  0  0  0  0  0  0
   12.5172   38.5606   10.7482 C   0  0  0  0  0  0  0  0  0  0  0  0
   12.5602   39.2159   11.9762 C   0  0  0  0  0  0  0  0  0  0  0  0
   13.5495   40.0898   12.2934 C   0  0  0  0  0  0  0  0  0  0  0  0
   12.1382   39.9850   14.0789 C   0  0  0  0  0  0  0  0  0  0  0  0
   14.5851   40.3869   11.4116 C   0  0  0  0  0  0  0  0  0  0  0  0
   13.4831   43.3077    5.5543 N   0  0  0  0  0  0  0  0  0  0  0  0
   15.0702   45.9951    7.8230 N   0  0  0  0  0  0  0  0  0  0  0  0
   15.0449   44.8778    4.8032 O   0  0  0  0  0  0  0  0  0  0  0  0
   13.3356   40.5848   13.5642 O   0  0  0  0  0  0  0  0  0  0  0  0
   11.6769   39.1186   13.0326 O   0  0  0  0  0  0  0  0  0  0  0  0
   14.2842   41.0817    6.9387 S   0  0  0  0  0  0  0  0  0  0  0  0
  1 22  1  0
  1 27  1  0
  3  2  1  0
  3  4  1  0
  4  5  1  0
  5  6  1  0
  6  7  1  0
  7  8  1  0
  8  3  1  0
  9 27  1  0
 10 12  1  0
 11 10  1  0
 12 13  1  0
 14  9  1  0
 14 15  1  0
 16 17  2  0
 18 19  2  0
 18 26  1  0
 19 25  1  0
 20 25  1  0
 20 26  1  0
 21 15  2  0
 22  2  1  0
  2 24  2  0
  9 10  2  0
 12  1  2  0
 15 16  1  0
 17 18  1  0
 19 21  1  0
 13 23  3  0
M  END
>  <rmsd>  (273) 
0.246561706

$$$$
Molport-047-071-720 PubChem-132766982
     RDKit          3D

 31 34  0  0  0  0  0  0  0  0999 V2000
   16.4416   46.6918    3.6653 C   0  0  0  0  0  0  0  0  0  0  0  0
   15.2000   45.8810    3.8014 C   0  0  0  0  0  0  0  0  0  0  0  0
   13.8689   44.3178    4.6988 C   0  0  0  0  0  0  0  0  0  0  0  0
   14.2301   42.7194    6.6456 C   0  0  0  0  0  0  0  0  0  0  0  0
   13.6896   41.6990    7.4274 C   0  0  0  0  0  0  0  0  0  0  0  0
   14.4605   41.1691    8.4618 C   0  0  0  0  0  0  0  0  0  0  0  0
   16.2256   42.6460    7.9175 C   0  0  0  0  0  0  0  0  0  0  0  0
   17.5951   43.1584    8.1809 C   0  0  0  0  0  0  0  0  0  0  0  0
   13.9014   40.0758    9.3102 C   0  0  2  0  0  0  0  0  0  0  0  0
   13.8009   40.5192   10.7732 C   0  0  0  0  0  0  0  0  0  0  0  0
   13.3406   39.3984   11.7201 C   0  0  0  0  0  0  0  0  0  0  0  0
   13.1788   38.0469   11.0230 C   0  0  0  0  0  0  0  0  0  0  0  0
   14.7469   38.8063    9.1848 C   0  0  0  0  0  0  0  0  0  0  0  0
   15.0806   36.5722   10.2797 C   0  0  0  0  0  0  0  0  0  0  0  0
   14.6916   35.5524   11.2675 C   0  0  0  0  0  0  0  0  0  0  0  0
   15.3648   34.4146   11.4097 C   0  0  0  0  0  0  0  0  0  0  0  0
   14.9720   33.4037   12.3957 C   0  0  0  0  0  0  0  0  0  0  0  0
   15.6151   32.1991   12.6066 C   0  0  0  0  0  0  0  0  0  0  0  0
   13.0155   31.9441   15.0249 C   0  0  0  0  0  0  0  0  0  0  0  0
   13.9112   33.4611   13.2794 C   0  0  0  0  0  0  0  0  0  0  0  0
   14.0886   46.0292    2.9768 C   0  0  0  0  0  0  0  0  0  0  0  0
   13.9450   46.9911    1.8493 C   0  0  0  0  0  0  0  0  0  0  0  0
   15.0750   44.9263    4.7605 N   0  0  0  0  0  0  0  0  0  0  0  0
   13.4489   43.2717    5.5807 N   0  0  0  0  0  0  0  0  0  0  0  0
   15.7129   41.6516    8.6877 N   0  0  0  0  0  0  0  0  0  0  0  0
   15.4868   43.1724    6.9063 N   0  0  0  0  0  0  0  0  0  0  0  0
   14.3291   37.7900   10.1556 N   0  0  0  0  0  0  0  0  0  0  0  0
   14.9574   31.5532   13.5893 N   0  0  0  0  0  0  0  0  0  0  0  0
   13.9489   32.3150   13.9782 N   0  0  0  0  0  0  0  0  0  0  0  0
   16.0815   36.3734    9.5369 O   0  0  0  0  0  0  0  0  0  0  0  0
   12.9102   44.9317    3.4612 S   0  0  0  0  0  0  0  0  0  0  0  0
  1  2  1  0
  2 23  1  0
  3 24  1  0
  3 31  1  0
  4 26  2  0
  5  6  2  0
  7 25  2  0
  8  7  1  0
  9  6  1  6
  9 10  1  0
 10 11  1  0
 11 12  1  0
 12 27  1  0
 13 27  1  0
 13  9  1  0
 14 15  1  0
 16 17  1  0
 17 18  1  0
 19 29  1  0
 21 31  1  0
 22 21  1  0
 24  4  1  0
 27 14  1  0
 29 28  1  0
 29 20  1  0
  3 23  2  0
  4  5  1  0
  6 25  1  0
  7 26  1  0
 14 30  2  0
 15 16  2  0
 18 28  2  0
 20 17  2  0
 21  2  2  0
M  END
>  <rmsd>  (274) 
0.24654828

$$$$
MolPort-019-899-714 67934156 CSSS00160035898 MCULE-6205844426 PubChem-56757329 ZINC000067934156
     RDKit          3D

 25 27  0  0  0  0  0  0  0  0999 V2000
   15.4328   38.1152   11.6271 F   0  0  0  0  0  0  0  0  0  0  0  0
   14.8540   39.3670   11.7278 C   0  0  0  0  0  0  0  0  0  0  0  0
   13.3520   39.2327   11.9144 C   0  0  0  0  0  0  0  0  0  0  0  0
   12.6982   38.6592   10.6653 C   0  0  0  0  0  0  0  0  0  0  0  0
   11.4700   40.3233    9.5568 C   0  0  0  0  0  0  0  0  0  0  0  0
   11.5301   41.4909    8.5706 C   0  0  0  0  0  0  0  0  0  0  0  0
   12.4276   41.2007    7.3576 C   0  0  0  0  0  0  0  0  0  0  0  0
   12.6115   39.7020    7.0777 C   0  0  0  0  0  0  0  0  0  0  0  0
   12.8839   38.8594    8.3383 C   0  0  0  0  0  0  0  0  0  0  0  0
   15.6598   42.4563    8.2300 C   0  0  0  0  0  0  0  0  0  0  0  0
   15.4375   43.2369    7.1008 C   0  0  0  0  0  0  0  0  0  0  0  0
   14.1897   42.8272    6.6696 C   0  0  0  0  0  0  0  0  0  0  0  0
   13.9355   44.3342    4.6236 C   0  0  0  0  0  0  0  0  0  0  0  0
   13.0722   44.7385    3.4848 C   0  0  0  0  0  0  0  0  0  0  0  0
   13.4318   45.7307    2.5349 C   0  0  0  0  0  0  0  0  0  0  0  0
   12.5526   46.0472    1.4933 C   0  0  0  0  0  0  0  0  0  0  0  0
   11.3237   45.3981    1.3759 C   0  0  0  0  0  0  0  0  0  0  0  0
   10.9618   44.4229    2.3032 C   0  0  0  0  0  0  0  0  0  0  0  0
   11.8296   44.0981    3.3468 C   0  0  0  0  0  0  0  0  0  0  0  0
   12.7505   39.6249    9.5796 N   0  0  0  0  0  0  0  0  0  0  0  0
   13.7160   41.8762    7.4860 N   0  0  0  0  0  0  0  0  0  0  0  0
   14.6019   41.6441    8.4380 N   0  0  0  0  0  0  0  0  0  0  0  0
   13.4748   43.3202    5.5287 N   0  0  0  0  0  0  0  0  0  0  0  0
   15.0623   44.8683    4.8023 O   0  0  0  0  0  0  0  0  0  0  0  0
   14.9508   46.6166    2.5780 Cl  0  0  0  0  0  0  0  0  0  0  0  0
  2  1  1  0
  2  3  1  0
  3  4  1  0
  4 20  1  0
  5 20  1  0
  5  6  1  0
  6  7  1  0
  7  8  1  0
  7 21  1  0
  8  9  1  0
  9 20  1  0
 10 11  1  0
 12 23  1  0
 12 21  1  0
 13 14  1  0
 15 25  1  0
 15 16  2  0
 17 18  2  0
 19 14  2  0
 21 22  1  0
 23 13  1  0
 10 22  2  0
 11 12  2  0
 13 24  2  0
 14 15  1  0
 16 17  1  0
 18 19  1  0
M  END
>  <rmsd>  (275) 
0.246525005

$$$$
Molport-020-278-675 MCULE-1527816601 MCULE-2505562369 PubChem-110255547
     RDKit          3D

 26 29  0  0  0  0  0  0  0  0999 V2000
   17.5557   43.0988    8.3895 C   0  0  0  0  0  0  0  0  0  0  0  0
   16.1927   42.6233    8.0372 C   0  0  0  0  0  0  0  0  0  0  0  0
   15.5069   43.2013    6.9712 C   0  0  0  0  0  0  0  0  0  0  0  0
   14.2256   42.7323    6.6617 C   0  0  0  0  0  0  0  0  0  0  0  0
   14.3684   41.1761    8.4442 C   0  0  0  0  0  0  0  0  0  0  0  0
   13.7391   40.0757    9.2318 C   0  0  2  0  0  0  0  0  0  0  0  0
   13.5796   40.4807   10.6903 C   0  0  0  0  0  0  0  0  0  0  0  0
   12.9512   39.3344   11.4657 C   0  0  0  0  0  0  0  0  0  0  0  0
   13.8096   38.0741   11.3162 C   0  0  0  0  0  0  0  0  0  0  0  0
   14.5749   38.7940    9.1292 C   0  0  0  0  0  0  0  0  0  0  0  0
   12.7326   37.2598    9.3325 C   0  0  0  0  0  0  0  0  0  0  0  0
   12.9464   36.1151    8.4012 C   0  0  0  0  0  0  0  0  0  0  0  0
   13.6037   34.9741    6.7339 C   0  0  0  0  0  0  0  0  0  0  0  0
   12.8247   34.1742    7.5469 C   0  0  0  0  0  0  0  0  0  0  0  0
   13.8481   44.3212    4.6748 C   0  0  0  0  0  0  0  0  0  0  0  0
   15.4328   45.9051    3.8949 C   0  0  0  0  0  0  0  0  0  0  0  0
   14.5390   46.3130    2.9041 C   0  0  0  0  0  0  0  0  0  0  0  0
   12.9564   44.7319    3.6815 C   0  0  0  0  0  0  0  0  0  0  0  0
   13.6877   41.7306    7.4066 N   0  0  0  0  0  0  0  0  0  0  0  0
   15.6156   41.6245    8.7532 N   0  0  0  0  0  0  0  0  0  0  0  0
   14.0045   37.6865    9.9115 N   0  0  0  0  0  0  0  0  0  0  0  0
   13.6779   36.2034    7.2759 N   0  0  0  0  0  0  0  0  0  0  0  0
   12.4087   34.8996    8.6012 N   0  0  0  0  0  0  0  0  0  0  0  0
   13.4586   43.2793    5.5797 N   0  0  0  0  0  0  0  0  0  0  0  0
   15.0685   44.9196    4.7571 N   0  0  0  0  0  0  0  0  0  0  0  0
   13.3201   45.7175    2.8190 N   0  0  0  0  0  0  0  0  0  0  0  0
  1  2  1  0
  2 20  2  0
  3  4  2  0
  4 24  1  0
  5 19  2  0
  6  5  1  6
  6  7  1  0
  7  8  1  0
  8  9  1  0
  9 21  1  0
 10 21  1  0
 10  6  1  0
 11 21  1  0
 11 12  1  0
 13 22  1  0
 14 23  1  0
 16 25  2  0
 17 26  2  0
 18 15  2  0
 23 12  1  0
 24 15  1  0
  2  3  1  0
  4 19  1  0
  5 20  1  0
 12 22  2  0
 13 14  2  0
 15 25  1  0
 16 17  1  0
 18 26  1  0
M  END
>  <rmsd>  (276) 
0.246477559

$$$$
MolPort-002-787-490 9778215 CSC020585253 CSSS00020585253 LN01186547 MCULE-3160514531 PubChem-17095082 ZINC000009778215 ZINC09778215
     RDKit          3D

 19 19  0  0  0  0  0  0  0  0999 V2000
   11.2344   39.5239   10.7936 C   0  0  0  0  0  0  0  0  0  0  0  0
   12.3421   38.8345   11.5673 C   0  0  0  0  0  0  0  0  0  0  0  0
   13.6016   39.6859   11.5712 C   0  0  0  0  0  0  0  0  0  0  0  0
   14.4059   39.4847   10.2963 C   0  0  0  0  0  0  0  0  0  0  0  0
   14.3756   41.1452    8.4613 C   0  0  0  0  0  0  0  0  0  0  0  0
   15.6728   41.5941    8.7557 C   0  0  0  0  0  0  0  0  0  0  0  0
   16.2537   42.6120    7.9961 C   0  0  0  0  0  0  0  0  0  0  0  0
   15.5428   43.1864    6.9397 C   0  0  0  0  0  0  0  0  0  0  0  0
   14.2457   42.7469    6.6353 C   0  0  0  0  0  0  0  0  0  0  0  0
   13.8981   44.3567    4.6694 C   0  0  0  0  0  0  0  0  0  0  0  0
   13.2909   45.8095    2.7179 C   0  0  0  0  0  0  0  0  0  0  0  0
   14.4888   45.4374    1.8613 C   0  0  0  0  0  0  0  0  0  0  0  0
   12.0879   45.9722    1.8132 C   0  0  0  0  0  0  0  0  0  0  0  0
   13.5488   47.1334    3.4164 C   0  0  0  0  0  0  0  0  0  0  0  0
   13.6716   41.7266    7.4016 C   0  0  0  0  0  0  0  0  0  0  0  0
   13.7654   40.1296    9.2022 O   0  0  0  0  0  0  0  0  0  0  0  0
   15.0377   44.8860    4.7808 O   0  0  0  0  0  0  0  0  0  0  0  0
   13.0109   44.7807    3.6706 O   0  0  0  0  0  0  0  0  0  0  0  0
   13.4846   43.3119    5.5589 N   0  0  0  0  0  0  0  0  0  0  0  0
  1  2  1  0
  2  3  1  0
  3  4  1  0
  4 16  1  0
  5 16  1  0
  6  7  2  0
  8  9  2  0
  9 19  1  0
 10 18  1  0
 11 18  1  0
 11 12  1  0
 11 13  1  0
 11 14  1  0
 15  5  2  0
 19 10  1  0
  5  6  1  0
  7  8  1  0
  9 15  1  0
 10 17  2  0
M  END
>  <rmsd>  (277) 
0.246475995

$$$$
MolPort-047-015-618 MCULE-3909583374 PubChem-155985359
     RDKit          3D

 23 25  0  0  0  0  0  0  0  0999 V2000
   14.1914   42.7159    6.6415 C   0  0  0  0  0  0  0  0  0  0  0  0
   13.6237   41.7034    7.4144 C   0  0  0  0  0  0  0  0  0  0  0  0
   14.3686   41.1657    8.4640 C   0  0  0  0  0  0  0  0  0  0  0  0
   13.7820   40.0795    9.3027 C   0  0  2  0  0  0  0  0  0  0  0  0
   13.6268   40.5396   10.7536 C   0  0  0  0  0  0  0  0  0  0  0  0
   13.1609   39.3893   11.6503 C   0  0  0  0  0  0  0  0  0  0  0  0
   13.8335   38.0559   11.2949 C   0  0  0  0  0  0  0  0  0  0  0  0
   15.6182   36.9603   10.2350 C   0  0  0  0  0  0  0  0  0  0  0  0
   16.7357   36.6939   11.2295 C   0  0  0  0  0  0  0  0  0  0  0  0
   18.7619   37.2092   11.9363 C   0  0  0  0  0  0  0  0  0  0  0  0
   14.6110   38.7883    9.1756 C   0  0  0  0  0  0  0  0  0  0  0  0
   16.1621   42.6189    7.9498 C   0  0  0  0  0  0  0  0  0  0  0  0
   17.5309   43.1189    8.2415 C   0  0  0  0  0  0  0  0  0  0  0  0
   13.8853   44.3169    4.6874 C   0  0  0  0  0  0  0  0  0  0  0  0
   14.1618   46.0274    2.9406 C   0  0  0  0  0  0  0  0  0  0  0  0
   15.2428   45.8720    3.8106 C   0  0  0  0  0  0  0  0  0  0  0  0
   15.0292   38.2672   10.4789 N   0  0  0  0  0  0  0  0  0  0  0  0
   15.6223   41.6338    8.7138 N   0  0  0  0  0  0  0  0  0  0  0  0
   15.4491   43.1520    6.9233 N   0  0  0  0  0  0  0  0  0  0  0  0
   13.4375   43.2754    5.5608 N   0  0  0  0  0  0  0  0  0  0  0  0
   15.0861   44.9238    4.7744 N   0  0  0  0  0  0  0  0  0  0  0  0
   17.7999   37.5642   10.9908 O   0  0  0  0  0  0  0  0  0  0  0  0
   12.9794   44.9250    3.4192 S   0  0  0  0  0  0  0  0  0  0  0  0
  1 20  1  0
  1 19  2  0
  2  3  2  0
  4  3  1  6
  4  5  1  0
  5  6  1  0
  6  7  1  0
  7 17  1  0
  8 17  1  0
  8  9  1  0
  9 22  1  0
 10 22  1  0
 11 17  1  0
 11  4  1  0
 12 18  2  0
 13 12  1  0
 14 23  1  0
 15 23  1  0
 16 21  1  0
 20 14  1  0
  1  2  1  0
  3 18  1  0
 12 19  1  0
 14 21  2  0
 15 16  2  0
M  END
>  <rmsd>  (278) 
0.246474966

$$$$
MolPort-006-579-772 ChemDiv-V028-5033 MCULE-9196107021 PubChem-46040736 ZINC000037543437 ZINC37543437
     RDKit          3D

 28 30  0  0  0  0  0  0  0  0999 V2000
   11.0213   45.7279    3.1066 C   0  0  0  0  0  0  0  0  0  0  0  0
   12.9610   44.8053    3.6105 C   0  0  0  0  0  0  0  0  0  0  0  0
   13.8969   44.3532    4.6752 C   0  0  0  0  0  0  0  0  0  0  0  0
   14.2667   42.7542    6.6449 C   0  0  0  0  0  0  0  0  0  0  0  0
   13.6996   41.7455    7.4300 C   0  0  0  0  0  0  0  0  0  0  0  0
   14.4137   41.1605    8.4892 C   0  0  0  0  0  0  0  0  0  0  0  0
   15.7133   41.6205    8.7587 C   0  0  0  0  0  0  0  0  0  0  0  0
   16.2887   42.6273    7.9806 C   0  0  0  0  0  0  0  0  0  0  0  0
   15.5681   43.1912    6.9262 C   0  0  0  0  0  0  0  0  0  0  0  0
   14.3775   39.8675   10.6372 C   0  0  0  0  0  0  0  0  0  0  0  0
   13.2554   39.5950   11.6252 C   0  0  0  0  0  0  0  0  0  0  0  0
   12.4811   38.3496   11.2028 C   0  0  0  0  0  0  0  0  0  0  0  0
   11.1091   37.4208    9.3339 C   0  0  0  0  0  0  0  0  0  0  0  0
   11.7416   36.3130    8.5587 C   0  0  0  0  0  0  0  0  0  0  0  0
   12.4954   35.3343    9.2173 C   0  0  0  0  0  0  0  0  0  0  0  0
   13.0973   34.3050    8.4872 C   0  0  0  0  0  0  0  0  0  0  0  0
   12.9476   34.2531    7.0979 C   0  0  0  0  0  0  0  0  0  0  0  0
   12.1955   35.2304    6.4387 C   0  0  0  0  0  0  0  0  0  0  0  0
   11.5937   36.2601    7.1685 C   0  0  0  0  0  0  0  0  0  0  0  0
   12.7429   39.2842    8.8593 C   0  0  0  0  0  0  0  0  0  0  0  0
   11.8060   45.3325    4.1890 O   0  0  0  0  0  0  0  0  0  0  0  0
   15.0319   44.8912    4.7654 O   0  0  0  0  0  0  0  0  0  0  0  0
   12.3578   39.3206    7.6585 O   0  0  0  0  0  0  0  0  0  0  0  0
   13.4933   43.3107    5.5731 N   0  0  0  0  0  0  0  0  0  0  0  0
   13.8194   40.1322    9.3119 N   0  0  0  0  0  0  0  0  0  0  0  0
   12.1160   38.3749    9.7849 N   0  0  0  0  0  0  0  0  0  0  0  0
   13.8280   33.3600    9.1258 F   0  0  0  0  0  0  0  0  0  0  0  0
   12.0508   35.1803    5.0929 F   0  0  0  0  0  0  0  0  0  0  0  0
  1 21  1  0
  2 21  1  0
  2  3  1  0
  3 24  1  0
  5  6  2  0
  6 25  1  0
  7  8  2  0
  9  4  2  0
 10 25  1  0
 10 11  1  0
 11 12  1  0
 12 26  1  0
 13 26  1  0
 13 14  1  0
 15 16  2  0
 16 27  1  0
 17 18  2  0
 18 28  1  0
 19 14  2  0
 20 25  1  0
 24  4  1  0
 26 20  1  0
  3 22  2  0
  4  5  1  0
  6  7  1  0
  8  9  1  0
 14 15  1  0
 16 17  1  0
 18 19  1  0
 20 23  2  0
M  END
>  <rmsd>  (279) 
0.246457443

$$$$
MolPort-028-888-287 ChemDiv-V030-0800 MCULE-8573276261 PubChem-71955375 ZINC000096280451 ZINC96280451
     RDKit          3D

 27 29  0  0  0  0  0  0  0  0999 V2000
   13.4253   46.0099    2.8385 C   0  0  0  0  0  0  0  0  0  0  0  0
   12.9356   44.7880    3.5991 C   0  0  0  0  0  0  0  0  0  0  0  0
   12.6875   43.6550    2.6224 C   0  0  0  0  0  0  0  0  0  0  0  0
   13.8959   44.3492    4.6659 C   0  0  0  0  0  0  0  0  0  0  0  0
   14.2665   42.7576    6.6442 C   0  0  0  0  0  0  0  0  0  0  0  0
   13.7008   41.7471    7.4281 C   0  0  0  0  0  0  0  0  0  0  0  0
   14.4147   41.1630    8.4878 C   0  0  0  0  0  0  0  0  0  0  0  0
   15.7131   41.6260    8.7592 C   0  0  0  0  0  0  0  0  0  0  0  0
   16.2868   42.6349    7.9827 C   0  0  0  0  0  0  0  0  0  0  0  0
   15.5666   43.1980    6.9279 C   0  0  0  0  0  0  0  0  0  0  0  0
   14.3873   39.8585   10.6295 C   0  0  0  0  0  0  0  0  0  0  0  0
   13.2704   39.5992   11.6268 C   0  0  0  0  0  0  0  0  0  0  0  0
   12.4760   38.3651   11.2092 C   0  0  0  0  0  0  0  0  0  0  0  0
   11.0677   37.4658    9.3532 C   0  0  0  0  0  0  0  0  0  0  0  0
   11.6693   36.3433    8.5744 C   0  0  0  0  0  0  0  0  0  0  0  0
   11.5002   36.2861    7.1867 C   0  0  0  0  0  0  0  0  0  0  0  0
   12.0715   35.2416    6.4537 C   0  0  0  0  0  0  0  0  0  0  0  0
   12.8135   34.2530    7.1073 C   0  0  0  0  0  0  0  0  0  0  0  0
   12.9839   34.3089    8.4940 C   0  0  0  0  0  0  0  0  0  0  0  0
   12.4128   35.3531    9.2272 C   0  0  0  0  0  0  0  0  0  0  0  0
   12.7324   39.2973    8.8642 C   0  0  0  0  0  0  0  0  0  0  0  0
   15.0322   44.8885    4.7680 O   0  0  0  0  0  0  0  0  0  0  0  0
   12.3416   39.3363    7.6654 O   0  0  0  0  0  0  0  0  0  0  0  0
   13.4929   43.3121    5.5714 N   0  0  0  0  0  0  0  0  0  0  0  0
   13.8212   40.1332    9.3098 N   0  0  0  0  0  0  0  0  0  0  0  0
   12.0987   38.3981    9.7948 N   0  0  0  0  0  0  0  0  0  0  0  0
   13.9139   33.0728    9.3121 Cl  0  0  0  0  0  0  0  0  0  0  0  0
  1  2  1  0
  2  3  1  0
  2  4  1  0
  4 24  1  0
  6  7  2  0
  7 25  1  0
  8  9  2  0
 10  5  2  0
 11 25  1  0
 11 12  1  0
 12 13  1  0
 13 26  1  0
 14 26  1  0
 14 15  1  0
 16 17  2  0
 18 19  2  0
 19 27  1  0
 20 15  2  0
 21 25  1  0
 24  5  1  0
 26 21  1  0
  4 22  2  0
  5  6  1  0
  7  8  1  0
  9 10  1  0
 15 16  1  0
 17 18  1  0
 19 20  1  0
 21 23  2  0
M  END
>  <rmsd>  (280) 
0.246393546

$$$$
Molport-053-262-039
     RDKit          3D

 29 32  0  0  0  0  0  0  0  0999 V2000
    9.7413   45.6520    2.1704 C   0  0  0  0  0  0  0  0  0  0  0  0
   11.5681   44.8331    3.6592 C   0  0  0  0  0  0  0  0  0  0  0  0
   12.9156   45.0928    3.8149 C   0  0  0  0  0  0  0  0  0  0  0  0
   13.2001   46.0887    2.8967 C   0  0  0  0  0  0  0  0  0  0  0  0
   13.8650   44.4500    4.7406 C   0  0  0  0  0  0  0  0  0  0  0  0
   14.2643   42.7729    6.5983 C   0  0  0  0  0  0  0  0  0  0  0  0
   15.0093   43.6038    7.4527 C   0  0  0  0  0  0  0  0  0  0  0  0
   15.7753   43.0505    8.4811 C   0  0  0  0  0  0  0  0  0  0  0  0
   15.7913   41.6680    8.6791 C   0  0  0  0  0  0  0  0  0  0  0  0
   15.0197   40.8258    7.8623 C   0  0  0  0  0  0  0  0  0  0  0  0
   14.2622   41.3872    6.8207 C   0  0  0  0  0  0  0  0  0  0  0  0
   15.0211   39.3612    8.0726 C   0  0  0  0  0  0  0  0  0  0  0  0
   15.9144   37.5487    9.5774 C   0  0  0  0  0  0  0  0  0  0  0  0
   16.3180   37.3389   11.0735 C   0  0  0  0  0  0  0  0  0  0  0  0
   14.1699   38.2110   11.5166 C   0  0  1  0  0  0  0  0  0  0  0  0
   13.2243   38.8298   12.5287 C   0  0  0  0  0  0  0  0  0  0  0  0
   12.3997   39.8494   11.7081 C   0  0  2  0  0  0  0  0  0  0  0  0
   10.9279   39.4329   11.5505 C   0  0  0  0  0  0  0  0  0  0  0  0
   13.1025   39.9688   10.3373 C   0  0  0  0  0  0  0  0  0  0  0  0
   14.4738   39.3478   10.5667 C   0  0  2  0  0  0  0  0  0  0  0  0
   11.1000   45.6491    2.6965 N   0  0  0  0  0  0  0  0  0  0  0  0
   12.0781   46.4021    2.2187 N   0  0  0  0  0  0  0  0  0  0  0  0
   13.4666   43.3185    5.5338 N   0  0  0  0  0  0  0  0  0  0  0  0
   15.1412   38.7860    9.3881 N   0  0  0  0  0  0  0  0  0  0  0  0
   15.0490   44.8796    4.7981 O   0  0  0  0  0  0  0  0  0  0  0  0
   14.9138   38.5973    7.0741 O   0  0  0  0  0  0  0  0  0  0  0  0
   15.3578   37.6969   12.0762 O   0  0  0  0  0  0  0  0  0  0  0  0
   10.2588   39.5243   12.7813 O   0  0  0  0  0  0  0  0  0  0  0  0
   16.5058   43.8576    9.2899 F   0  0  0  0  0  0  0  0  0  0  0  0
  1 21  1  0
  3  4  1  0
  3  5  1  0
  5 23  1  0
  7  8  2  0
  8 29  1  0
  9 10  2  0
 10 12  1  0
 11  6  2  0
 12 24  1  0
 13 24  1  0
 13 14  1  0
 14 27  1  0
 15 27  1  0
 15 16  1  1
 16 17  1  0
 17 18  1  6
 17 19  1  0
 18 28  1  0
 20 19  1  6
 20 24  1  0
 20 15  1  0
 21  2  1  0
 21 22  1  0
 23  6  1  0
  2  3  2  0
  4 22  2  0
  5 25  2  0
  6  7  1  0
  8  9  1  0
 10 11  1  0
 12 26  2  0
M  END
>  <rmsd>  (281) 
0.246383205

$$$$
Molport-047-861-766 PubChem-165910249
     RDKit          3D

 19 19  0  0  0  0  0  0  0  0999 V2000
   15.0744   44.7802    1.5701 C   0  0  0  0  0  0  0  0  0  0  0  0
   13.8621   45.3281    1.5818 C   0  0  0  0  0  0  0  0  0  0  0  0
   13.2896   45.9067    2.8361 C   0  0  0  0  0  0  0  0  0  0  0  0
   13.8817   44.3904    4.6965 C   0  0  0  0  0  0  0  0  0  0  0  0
   14.2894   42.6798    6.5628 C   0  0  0  0  0  0  0  0  0  0  0  0
   15.6131   43.0719    6.8159 C   0  0  0  0  0  0  0  0  0  0  0  0
   16.3627   42.4322    7.8069 C   0  0  0  0  0  0  0  0  0  0  0  0
   15.7947   41.3958    8.5519 C   0  0  0  0  0  0  0  0  0  0  0  0
   14.4766   40.9972    8.3052 C   0  0  0  0  0  0  0  0  0  0  0  0
   13.7288   41.6405    7.3129 C   0  0  0  0  0  0  0  0  0  0  0  0
   13.8646   39.8970    9.1064 C   0  0  0  0  0  0  0  0  0  0  0  0
   13.4215   40.3997   10.4776 C   0  0  1  0  0  0  0  0  0  0  0  0
   12.0944   41.0993   10.4512 C   0  0  0  0  0  0  0  0  0  0  0  0
   12.9647   44.8756    3.7617 O   0  0  0  0  0  0  0  0  0  0  0  0
   15.0313   44.9023    4.7852 O   0  0  0  0  0  0  0  0  0  0  0  0
   11.3823   41.1155    9.4116 O   0  0  0  0  0  0  0  0  0  0  0  0
   11.6378   41.7313   11.6000 O   0  0  0  0  0  0  0  0  0  0  0  0
   13.4888   43.3119    5.5546 N   0  0  0  0  0  0  0  0  0  0  0  0
   13.3589   39.3352   11.3565 F   0  0  0  0  0  0  0  0  0  0  0  0
  3  2  1  0
  3 14  1  0
  4 14  1  0
  4 18  1  0
  6  7  2  0
  8  9  2  0
 10  5  2  0
 11  9  1  0
 11 12  1  0
 12 13  1  0
 12 19  1  1
 13 17  1  0
 18  5  1  0
  1  2  2  0
  4 15  2  0
  5  6  1  0
  7  8  1  0
  9 10  1  0
 13 16  2  0
M  END
>  <rmsd>  (282) 
0.246359602

$$$$
MolPort-039-222-430 299785593 CSSS00160175489 MCULE-2234487371 PubChem-118781283 ZINC000299785593
     RDKit          3D

 27 29  0  0  0  0  0  0  0  0999 V2000
   11.2348   39.5378   10.8025 C   0  0  0  0  0  0  0  0  0  0  0  0
   12.3418   38.8440   11.5732 C   0  0  0  0  0  0  0  0  0  0  0  0
   13.6049   39.6899   11.5730 C   0  0  0  0  0  0  0  0  0  0  0  0
   14.4046   39.4845   10.2959 C   0  0  0  0  0  0  0  0  0  0  0  0
   14.3757   41.1439    8.4598 C   0  0  0  0  0  0  0  0  0  0  0  0
   15.6756   41.5875    8.7500 C   0  0  0  0  0  0  0  0  0  0  0  0
   16.2585   42.6026    7.9879 C   0  0  0  0  0  0  0  0  0  0  0  0
   15.5465   43.1793    6.9333 C   0  0  0  0  0  0  0  0  0  0  0  0
   14.2467   42.7450    6.6334 C   0  0  0  0  0  0  0  0  0  0  0  0
   13.8984   44.3582    4.6662 C   0  0  0  0  0  0  0  0  0  0  0  0
   13.4437   45.8042    2.6623 C   0  0  0  0  0  0  0  0  0  0  0  0
   12.3466   46.8462    2.4550 C   0  0  0  0  0  0  0  0  0  0  0  0
   11.0082   46.1767    2.1214 C   0  0  0  0  0  0  0  0  0  0  0  0
   10.6250   45.1820    3.2182 C   0  0  0  0  0  0  0  0  0  0  0  0
   11.7253   44.1427    3.4257 C   0  0  0  0  0  0  0  0  0  0  0  0
   11.1092   46.1917   -0.3653 C   0  0  0  0  0  0  0  0  0  0  0  0
   11.0192   47.5893   -0.4396 C   0  0  0  0  0  0  0  0  0  0  0  0
   11.0622   48.2150   -1.6872 C   0  0  0  0  0  0  0  0  0  0  0  0
   11.2758   46.1146   -2.7719 C   0  0  0  0  0  0  0  0  0  0  0  0
   11.2366   45.4517   -1.5431 C   0  0  0  0  0  0  0  0  0  0  0  0
   13.6708   41.7275    7.4019 C   0  0  0  0  0  0  0  0  0  0  0  0
   13.7636   40.1313    9.2033 O   0  0  0  0  0  0  0  0  0  0  0  0
   15.0381   44.8856    4.7820 O   0  0  0  0  0  0  0  0  0  0  0  0
   11.0678   45.5151    0.8589 O   0  0  0  0  0  0  0  0  0  0  0  0
   13.4848   43.3122    5.5590 N   0  0  0  0  0  0  0  0  0  0  0  0
   13.0057   44.8116    3.6403 N   0  0  0  0  0  0  0  0  0  0  0  0
   11.1888   47.4712   -2.8187 N   0  0  0  0  0  0  0  0  0  0  0  0
  1  2  1  0
  2  3  1  0
  3  4  1  0
  4 22  1  0
  5 22  1  0
  6  7  2  0
  8  9  2  0
  9 25  1  0
 10 26  1  0
 11 26  1  0
 11 12  1  0
 12 13  1  0
 13 14  1  0
 13 24  1  0
 14 15  1  0
 15 26  1  0
 16 24  1  0
 17 18  2  0
 19 27  2  0
 20 16  2  0
 21  5  2  0
 25 10  1  0
  5  6  1  0
  7  8  1  0
  9 21  1  0
 10 23  2  0
 16 17  1  0
 18 27  1  0
 19 20  1  0
M  END
>  <rmsd>  (283) 
0.246350124

$$$$
MolPort-006-579-777 ChemDiv-V020-2125 MCULE-4092669362 PubChem-46040741 ZINC000037543905 ZINC37543905
     RDKit          3D

 33 36  0  0  0  0  0  0  0  0999 V2000
   12.8199   33.3362   11.1539 F   0  0  0  0  0  0  0  0  0  0  0  0
   13.5729   34.4769    6.5861 F   0  0  0  0  0  0  0  0  0  0  0  0
   12.6563   34.1908   10.1159 C   0  0  0  0  0  0  0  0  0  0  0  0
   11.9400   35.3782   10.2945 C   0  0  0  0  0  0  0  0  0  0  0  0
   11.7672   36.2601    9.2219 C   0  0  0  0  0  0  0  0  0  0  0  0
   11.0285   37.5409    9.4193 C   0  0  0  0  0  0  0  0  0  0  0  0
   12.2235   38.7300   11.2815 C   0  0  0  0  0  0  0  0  0  0  0  0
   13.7235   38.8477   11.4795 C   0  0  0  0  0  0  0  0  0  0  0  0
   14.2373   40.1004   10.7698 C   0  0  0  0  0  0  0  0  0  0  0  0
   12.6741   39.3829    8.9176 C   0  0  0  0  0  0  0  0  0  0  0  0
   14.3734   41.2174    8.5370 C   0  0  0  0  0  0  0  0  0  0  0  0
   15.6792   41.6642    8.7995 C   0  0  0  0  0  0  0  0  0  0  0  0
   16.2701   42.6461    8.0013 C   0  0  0  0  0  0  0  0  0  0  0  0
   15.5600   43.1970    6.9333 C   0  0  0  0  0  0  0  0  0  0  0  0
   14.2531   42.7717    6.6576 C   0  0  0  0  0  0  0  0  0  0  0  0
   13.9094   44.3352    4.6561 C   0  0  0  0  0  0  0  0  0  0  0  0
   12.9981   44.7440    3.5503 C   0  0  0  0  0  0  0  0  0  0  0  0
   13.8388   43.3962    1.6387 C   0  0  0  0  0  0  0  0  0  0  0  0
   15.0003   44.1746    1.5014 C   0  0  0  0  0  0  0  0  0  0  0  0
   15.9513   43.8559    0.5277 C   0  0  0  0  0  0  0  0  0  0  0  0
   15.7476   42.7595   -0.3148 C   0  0  0  0  0  0  0  0  0  0  0  0
   14.5930   41.9829   -0.1841 C   0  0  0  0  0  0  0  0  0  0  0  0
   13.6418   42.3016    0.7899 C   0  0  0  0  0  0  0  0  0  0  0  0
   13.6703   41.7878    7.4624 C   0  0  0  0  0  0  0  0  0  0  0  0
   12.3226   35.9574    7.9739 C   0  0  0  0  0  0  0  0  0  0  0  0
   13.0386   34.7699    7.7956 C   0  0  0  0  0  0  0  0  0  0  0  0
   13.2055   33.8866    8.8665 C   0  0  0  0  0  0  0  0  0  0  0  0
   11.9400   38.5889    9.8611 N   0  0  0  0  0  0  0  0  0  0  0  0
   13.7641   40.2146    9.3799 N   0  0  0  0  0  0  0  0  0  0  0  0
   13.4918   43.3124    5.5694 N   0  0  0  0  0  0  0  0  0  0  0  0
   12.3923   39.3150    7.6897 O   0  0  0  0  0  0  0  0  0  0  0  0
   15.0353   44.8887    4.7640 O   0  0  0  0  0  0  0  0  0  0  0  0
   12.8668   43.6895    2.6018 O   0  0  0  0  0  0  0  0  0  0  0  0
  3  1  1  0
  4  5  2  0
  6  5  1  0
  6 28  1  0
  7 28  1  0
  7  8  1  0
  8  9  1  0
  9 29  1  0
 10 28  1  0
 12 13  2  0
 14 15  2  0
 15 30  1  0
 17 16  1  0
 17 33  1  0
 18 33  1  0
 19 20  2  0
 21 22  2  0
 23 18  2  0
 24 11  2  0
 25 26  2  0
 26  2  1  0
 27  3  2  0
 29 10  1  0
 29 11  1  0
 30 16  1  0
  3  4  1  0
  5 25  1  0
 10 31  2  0
 11 12  1  0
 13 14  1  0
 15 24  1  0
 16 32  2  0
 18 19  1  0
 20 21  1  0
 22 23  1  0
 26 27  1  0
M  END
>  <rmsd>  (284) 
0.246317893

$$$$
MolPort-002-787-474 9777769 CSC020585273 CSSS00020585273 LN01105203 MCULE-8780350523 PubChem-17094991 ZINC000009777769
     RDKit          3D

 19 19  0  0  0  0  0  0  0  0999 V2000
   11.2285   39.5255   10.7933 C   0  0  0  0  0  0  0  0  0  0  0  0
   12.3346   38.8339   11.5674 C   0  0  0  0  0  0  0  0  0  0  0  0
   13.5954   39.6834   11.5724 C   0  0  0  0  0  0  0  0  0  0  0  0
   14.4004   39.4812   10.2982 C   0  0  0  0  0  0  0  0  0  0  0  0
   14.3727   41.1414    8.4629 C   0  0  0  0  0  0  0  0  0  0  0  0
   15.6701   41.5893    8.7581 C   0  0  0  0  0  0  0  0  0  0  0  0
   16.2521   42.6070    7.9990 C   0  0  0  0  0  0  0  0  0  0  0  0
   15.5421   43.1821    6.9422 C   0  0  0  0  0  0  0  0  0  0  0  0
   14.2451   42.7433    6.6372 C   0  0  0  0  0  0  0  0  0  0  0  0
   13.9013   44.3568    4.6751 C   0  0  0  0  0  0  0  0  0  0  0  0
   12.9570   44.8466    3.6306 C   0  0  0  0  0  0  0  0  0  0  0  0
   12.1532   46.0346    4.1402 C   0  0  0  0  0  0  0  0  0  0  0  0
   11.0874   45.5956    5.0870 C   0  0  0  0  0  0  0  0  0  0  0  0
   13.6696   41.7235    7.4029 C   0  0  0  0  0  0  0  0  0  0  0  0
   13.7613   40.1264    9.2034 O   0  0  0  0  0  0  0  0  0  0  0  0
   15.0385   44.8883    4.7788 O   0  0  0  0  0  0  0  0  0  0  0  0
   10.0682   44.7577    4.6529 O   0  0  0  0  0  0  0  0  0  0  0  0
   11.1072   45.9926    6.2805 O   0  0  0  0  0  0  0  0  0  0  0  0
   13.4848   43.3103    5.5618 N   0  0  0  0  0  0  0  0  0  0  0  0
  1  2  1  0
  2  3  1  0
  3  4  1  0
  4 15  1  0
  5 15  1  0
  6  7  2  0
  8  9  2  0
  9 19  1  0
 11 10  1  0
 11 12  1  0
 12 13  1  0
 13 17  1  0
 14  5  2  0
 19 10  1  0
  5  6  1  0
  7  8  1  0
  9 14  1  0
 10 16  2  0
 13 18  2  0
M  END
>  <rmsd>  (285) 
0.246316254

$$$$
Molport-052-053-752 MCULE-2490986970
     RDKit          3D

 32 35  0  0  0  0  0  0  0  0999 V2000
   13.8693   44.3169    4.6976 C   0  0  0  0  0  0  0  0  0  0  0  0
   14.0978   46.0219    2.9854 C   0  0  0  0  0  0  0  0  0  0  0  0
   15.2106   45.8830    3.8039 C   0  0  0  0  0  0  0  0  0  0  0  0
   13.9722   46.9877    1.8629 C   0  0  0  0  0  0  0  0  0  0  0  0
   14.2276   42.7204    6.6470 C   0  0  0  0  0  0  0  0  0  0  0  0
   13.6861   41.6998    7.4278 C   0  0  0  0  0  0  0  0  0  0  0  0
   14.4545   41.1719    8.4651 C   0  0  0  0  0  0  0  0  0  0  0  0
   13.8946   40.0782    9.3119 C   0  0  2  0  0  0  0  0  0  0  0  0
   13.7917   40.5191   10.7758 C   0  0  0  0  0  0  0  0  0  0  0  0
   13.3757   39.3860   11.7278 C   0  0  0  0  0  0  0  0  0  0  0  0
   13.1661   38.0519   11.0133 C   0  0  0  0  0  0  0  0  0  0  0  0
   15.0375   36.5390   10.2066 C   0  0  0  0  0  0  0  0  0  0  0  0
   14.5464   35.3323   10.9617 C   0  0  2  0  0  0  0  0  0  0  0  0
   13.5287   34.4926   10.1829 C   0  0  0  0  0  0  0  0  0  0  0  0
   12.2197   35.1793    9.9581 C   0  0  0  0  0  0  0  0  0  0  0  0
   11.2893   35.2975   10.9985 C   0  0  0  0  0  0  0  0  0  0  0  0
   10.0631   35.9299   10.7733 C   0  0  0  0  0  0  0  0  0  0  0  0
    9.7617   36.4394    9.5067 C   0  0  0  0  0  0  0  0  0  0  0  0
   10.6828   36.3093    8.4630 C   0  0  0  0  0  0  0  0  0  0  0  0
   11.9088   35.6760    8.6875 C   0  0  0  0  0  0  0  0  0  0  0  0
   14.7351   38.8058    9.1815 C   0  0  0  0  0  0  0  0  0  0  0  0
   16.2196   42.6500    7.9245 C   0  0  0  0  0  0  0  0  0  0  0  0
   17.5889   43.1624    8.1899 C   0  0  0  0  0  0  0  0  0  0  0  0
   12.9122   44.9285    3.4598 S   0  0  0  0  0  0  0  0  0  0  0  0
   15.0748   44.9261    4.7605 N   0  0  0  0  0  0  0  0  0  0  0  0
   13.4484   43.2714    5.5798 N   0  0  0  0  0  0  0  0  0  0  0  0
   14.2990   37.7745   10.1296 N   0  0  0  0  0  0  0  0  0  0  0  0
   14.0958   35.6501   12.3078 N   0  0  0  0  0  0  0  0  0  0  0  0
   15.7061   41.6554    8.6937 N   0  0  0  0  0  0  0  0  0  0  0  0
   15.4830   43.1750    6.9109 N   0  0  0  0  0  0  0  0  0  0  0  0
   16.1247   36.4277    9.5790 O   0  0  0  0  0  0  0  0  0  0  0  0
    8.5745   37.0542    9.2892 F   0  0  0  0  0  0  0  0  0  0  0  0
  1 24  1  0
  1 26  1  0
  2 24  1  0
  3 25  1  0
  4  2  1  0
  5 30  2  0
  6  7  2  0
  8  7  1  6
  8  9  1  0
  9 10  1  0
 10 11  1  0
 11 27  1  0
 13 12  1  0
 13 28  1  1
 13 14  1  0
 14 15  1  0
 16 17  2  0
 18 19  2  0
 18 32  1  0
 20 15  2  0
 21 27  1  0
 21  8  1  0
 22 29  2  0
 23 22  1  0
 26  5  1  0
 27 12  1  0
  1 25  2  0
  2  3  2  0
  5  6  1  0
  7 29  1  0
 12 31  2  0
 15 16  1  0
 17 18  1  0
 19 20  1  0
 22 30  1  0
M  END
>  <rmsd>  (286) 
0.246316001

$$$$
MolPort-046-958-378 MCULE-1290761083 PubChem-110093598
     RDKit          3D

 32 36  0  0  0  0  0  0  0  0999 V2000
   17.6446   42.9025    8.2360 C   0  0  0  0  0  0  0  0  0  0  0  0
   16.2438   42.4946    7.9557 C   0  0  0  0  0  0  0  0  0  0  0  0
   15.5406   43.0908    6.9078 C   0  0  0  0  0  0  0  0  0  0  0  0
   14.2206   42.6998    6.6498 C   0  0  0  0  0  0  0  0  0  0  0  0
   13.6335   41.7152    7.4482 C   0  0  0  0  0  0  0  0  0  0  0  0
   14.3660   41.1412    8.4904 C   0  0  0  0  0  0  0  0  0  0  0  0
   13.7368   40.0862    9.3370 C   0  0  2  0  0  0  0  0  0  0  0  0
   13.7104   40.5110   10.8089 C   0  0  0  0  0  0  0  0  0  0  0  0
   13.5869   39.3207   11.7637 C   0  0  0  0  0  0  0  0  0  0  0  0
   12.9959   38.1082   11.0489 C   0  0  0  0  0  0  0  0  0  0  0  0
   14.4569   38.7443    9.1610 C   0  0  0  0  0  0  0  0  0  0  0  0
   13.0450   36.8543    9.0656 C   0  0  0  0  0  0  0  0  0  0  0  0
   13.7160   35.5587    8.7559 C   0  0  0  0  0  0  0  0  0  0  0  0
   13.1264   34.3556    9.1882 C   0  0  0  0  0  0  0  0  0  0  0  0
   13.7824   33.1686    8.8676 C   0  0  0  0  0  0  0  0  0  0  0  0
   14.9543   33.1541    8.1562 C   0  0  0  0  0  0  0  0  0  0  0  0
   15.5625   34.3254    7.7092 C   0  0  0  0  0  0  0  0  0  0  0  0
   14.9245   35.5408    8.0179 C   0  0  0  0  0  0  0  0  0  0  0  0
   14.4077   31.1437    8.6187 C   0  0  0  0  0  0  0  0  0  0  0  0
   12.2601   31.4543    9.9040 C   0  0  0  0  0  0  0  0  0  0  0  0
   16.5442   31.4015    7.3033 C   0  0  0  0  0  0  0  0  0  0  0  0
   13.8793   44.3086    4.6895 C   0  0  0  0  0  0  0  0  0  0  0  0
   15.2000   45.8793    3.7839 C   0  0  0  0  0  0  0  0  0  0  0  0
   14.1012   46.0194    2.9347 C   0  0  0  0  0  0  0  0  0  0  0  0
   15.6487   41.5397    8.7185 N   0  0  0  0  0  0  0  0  0  0  0  0
   13.8713   37.6499    9.9605 N   0  0  0  0  0  0  0  0  0  0  0  0
   15.3572   31.8804    7.9937 N   0  0  0  0  0  0  0  0  0  0  0  0
   13.4290   31.9043    9.1645 N   0  0  0  0  0  0  0  0  0  0  0  0
   13.4538   43.2726    5.5829 N   0  0  0  0  0  0  0  0  0  0  0  0
   15.0724   44.9330    4.7533 N   0  0  0  0  0  0  0  0  0  0  0  0
   14.4321   29.8849    8.6849 O   0  0  0  0  0  0  0  0  0  0  0  0
   12.9420   44.9049    3.4402 S   0  0  0  0  0  0  0  0  0  0  0  0
  1  2  1  0
  2 25  2  0
  3  4  2  0
  4 29  1  0
  5  6  2  0
  7  6  1  6
  7  8  1  0
  8  9  1  0
  9 10  1  0
 10 26  1  0
 11 26  1  0
 11  7  1  0
 12 26  1  0
 12 13  1  0
 14 15  2  0
 16 17  2  0
 16 27  1  0
 18 13  2  0
 19 28  1  0
 20 28  1  0
 21 27  1  0
 22 32  1  0
 23 30  1  0
 24 32  1  0
 27 19  1  0
 28 15  1  0
 29 22  1  0
  2  3  1  0
  4  5  1  0
  6 25  1  0
 13 14  1  0
 15 16  1  0
 17 18  1  0
 19 31  2  0
 22 30  2  0
 23 24  2  0
M  END
>  <rmsd>  (287) 
0.246312007

$$$$
MolPort-007-897-027 32646904 ChemDiv-J016-0497 MCULE-8714937757 PubChem-39890410 ZINC000032646904 ZINC32646904
     RDKit          3D

 27 29  0  0  0  0  0  0  0  0999 V2000
    7.1883   48.6235    1.4172 C   0  0  0  0  0  0  0  0  0  0  0  0
    8.5578   49.2751    1.3562 C   0  0  0  0  0  0  0  0  0  0  0  0
    9.5610   48.4581    2.0980 C   0  0  0  0  0  0  0  0  0  0  0  0
   10.1426   48.9687    3.2600 C   0  0  0  0  0  0  0  0  0  0  0  0
   11.1009   48.2317    3.9765 C   0  0  0  0  0  0  0  0  0  0  0  0
   12.6161   48.2853    5.9813 C   0  0  0  0  0  0  0  0  0  0  0  0
   11.3884   50.0081    5.7040 C   0  0  0  0  0  0  0  0  0  0  0  0
   11.4784   46.9525    3.4989 C   0  0  0  0  0  0  0  0  0  0  0  0
   12.8870   44.9257    3.7414 C   0  0  0  0  0  0  0  0  0  0  0  0
   13.8776   44.3862    4.7103 C   0  0  0  0  0  0  0  0  0  0  0  0
   14.2811   42.7344    6.6271 C   0  0  0  0  0  0  0  0  0  0  0  0
   13.7617   41.6471    7.3401 C   0  0  0  0  0  0  0  0  0  0  0  0
   14.5009   41.0584    8.3714 C   0  0  0  0  0  0  0  0  0  0  0  0
   13.9296   39.9186    9.1389 C   0  0  0  0  0  0  0  0  0  0  0  0
   13.3439   39.2980   11.1722 C   0  0  0  0  0  0  0  0  0  0  0  0
   15.7610   41.5673    8.7054 C   0  0  0  0  0  0  0  0  0  0  0  0
   16.2862   42.6539    8.0004 C   0  0  0  0  0  0  0  0  0  0  0  0
   15.5497   43.2345    6.9643 C   0  0  0  0  0  0  0  0  0  0  0  0
   10.8897   46.4517    2.3251 C   0  0  0  0  0  0  0  0  0  0  0  0
    9.9391   47.1984    1.6291 C   0  0  0  0  0  0  0  0  0  0  0  0
   11.6747   48.8042    5.1705 N   0  0  0  0  0  0  0  0  0  0  0  0
   12.8934   49.1453    6.9786 N   0  0  0  0  0  0  0  0  0  0  0  0
   12.1315   50.2145    6.8066 N   0  0  0  0  0  0  0  0  0  0  0  0
   13.4950   43.3082    5.5751 N   0  0  0  0  0  0  0  0  0  0  0  0
   12.4302   46.1945    4.1901 O   0  0  0  0  0  0  0  0  0  0  0  0
   15.0292   44.8941    4.7661 O   0  0  0  0  0  0  0  0  0  0  0  0
   13.3241   40.3893   10.3045 O   0  0  0  0  0  0  0  0  0  0  0  0
  1  2  1  0
  2  3  1  0
  4  5  2  0
  5 21  1  0
  7 21  1  0
  8 25  1  0
  8 19  2  0
  9 25  1  0
  9 10  1  0
 10 24  1  0
 12 13  2  0
 14 13  1  0
 14 27  1  0
 15 27  1  0
 16 17  2  0
 18 11  2  0
 20  3  2  0
 21  6  1  0
 22 23  1  0
 24 11  1  0
  3  4  1  0
  5  8  1  0
  6 22  2  0
  7 23  2  0
 10 26  2  0
 11 12  1  0
 13 16  1  0
 17 18  1  0
 19 20  1  0
M  END
>  <rmsd>  (288) 
0.246252552

$$$$
Molport-046-951-091 MCULE-8395810544 MCULE-9977033632 PubChem-110089563
     RDKit          3D

 20 22  0  0  0  0  0  0  0  0999 V2000
   16.7792   46.5348    4.0271 C   0  0  0  0  0  0  0  0  0  0  0  0
   15.4374   45.9094    3.8996 C   0  0  0  0  0  0  0  0  0  0  0  0
   13.8438   44.3205    4.6742 C   0  0  0  0  0  0  0  0  0  0  0  0
   12.9414   44.7244    3.6864 C   0  0  0  0  0  0  0  0  0  0  0  0
   13.3042   45.7374    2.7972 C   0  0  0  0  0  0  0  0  0  0  0  0
   14.5601   46.3368    2.9011 C   0  0  0  0  0  0  0  0  0  0  0  0
   14.2356   42.7267    6.6553 C   0  0  0  0  0  0  0  0  0  0  0  0
   15.5303   43.1800    6.9426 C   0  0  0  0  0  0  0  0  0  0  0  0
   16.2428   42.6101    7.9974 C   0  0  0  0  0  0  0  0  0  0  0  0
   15.6630   41.5951    8.7574 C   0  0  0  0  0  0  0  0  0  0  0  0
   14.3668   41.1612    8.4477 C   0  0  0  0  0  0  0  0  0  0  0  0
   13.7057   40.0756    9.2362 C   0  0  2  0  0  0  0  0  0  0  0  0
   13.5398   40.4834   10.7002 C   0  0  0  0  0  0  0  0  0  0  0  0
   12.9431   39.3328   11.5041 C   0  0  0  0  0  0  0  0  0  0  0  0
   13.7847   38.0754   11.2992 C   0  0  0  0  0  0  0  0  0  0  0  0
   14.4924   38.7664    9.1395 C   0  0  0  0  0  0  0  0  0  0  0  0
   15.0647   44.9206    4.7561 N   0  0  0  0  0  0  0  0  0  0  0  0
   13.4600   43.2788    5.5820 N   0  0  0  0  0  0  0  0  0  0  0  0
   13.6936   41.7344    7.4133 N   0  0  0  0  0  0  0  0  0  0  0  0
   13.8052   37.7121    9.8832 N   0  0  0  0  0  0  0  0  0  0  0  0
  1  2  1  0
  3 17  2  0
  3 18  1  0
  4  5  2  0
  6  2  2  0
  7 19  2  0
  8  9  2  0
 10 11  2  0
 12 11  1  6
 12 13  1  0
 13 14  1  0
 14 15  1  0
 15 20  1  0
 16 20  1  0
 16 12  1  0
 18  7  1  0
  2 17  1  0
  3  4  1  0
  5  6  1  0
  7  8  1  0
  9 10  1  0
 11 19  1  0
M  END
>  <rmsd>  (289) 
0.246228248

$$$$
MolPort-047-790-232 1875248683 CSSS03496531032 GIQNNAXNAMEZCU-UHFFFAOYSA-N MCULE-4207706156 PubChem-155910437
     RDKit          3D

 25 27  0  0  0  0  0  0  0  0999 V2000
   13.9270   44.3079    4.6426 C   0  0  0  0  0  0  0  0  0  0  0  0
   14.2344   42.8646    6.7054 C   0  0  0  0  0  0  0  0  0  0  0  0
   13.8193   41.9283    7.6150 C   0  0  0  0  0  0  0  0  0  0  0  0
   14.8461   41.8420    8.5094 C   0  0  0  0  0  0  0  0  0  0  0  0
   14.7944   40.9847    9.6044 C   0  0  0  0  0  0  0  0  0  0  0  0
   13.6402   40.1848    9.7588 C   0  0  0  0  0  0  0  0  0  0  0  0
   13.5076   39.2799   10.9489 C   0  0  0  0  0  0  0  0  0  0  0  0
   12.5727   40.2988    8.8314 C   0  0  0  0  0  0  0  0  0  0  0  0
   12.6550   41.1775    7.7353 C   0  0  0  0  0  0  0  0  0  0  0  0
   13.0316   44.7135    3.5225 C   0  0  0  0  0  0  0  0  0  0  0  0
   12.2268   45.9517    3.9058 C   0  0  0  0  0  0  0  0  0  0  0  0
   10.2512   46.5285    5.3319 C   0  0  0  0  0  0  0  0  0  0  0  0
   10.4100   48.0091    5.2326 C   0  0  0  0  0  0  0  0  0  0  0  0
    9.6286   48.5326    4.0441 C   0  0  0  0  0  0  0  0  0  0  0  0
    9.4321   44.6187    5.8145 C   0  0  0  0  0  0  0  0  0  0  0  0
   10.5547   44.4245    5.0287 C   0  0  0  0  0  0  0  0  0  0  0  0
   13.4873   43.3108    5.5696 N   0  0  0  0  0  0  0  0  0  0  0  0
   15.8398   42.6829    8.1673 N   0  0  0  0  0  0  0  0  0  0  0  0
   15.4627   43.3122    7.0564 N   0  0  0  0  0  0  0  0  0  0  0  0
   11.0609   45.6371    4.7343 N   0  0  0  0  0  0  0  0  0  0  0  0
    9.2410   45.9425    5.9995 N   0  0  0  0  0  0  0  0  0  0  0  0
   12.9371   39.9814   11.9945 F   0  0  0  0  0  0  0  0  0  0  0  0
   12.7064   38.1936   10.6427 F   0  0  0  0  0  0  0  0  0  0  0  0
   14.7505   38.8139   11.3418 F   0  0  0  0  0  0  0  0  0  0  0  0
   15.0485   44.8667    4.7743 O   0  0  0  0  0  0  0  0  0  0  0  0
  1 17  1  0
  2  3  1  0
  3  4  2  0
  4 18  1  0
  5  6  2  0
  7  6  1  0
  7 22  1  0
  7 23  1  0
  7 24  1  0
  8  9  2  0
 10  1  1  0
 10 11  1  0
 11 20  1  0
 13 12  1  0
 13 14  1  0
 15 21  1  0
 16 20  1  0
 17  2  1  0
 18 19  1  0
 20 12  1  0
  1 25  2  0
  2 19  2  0
  4  5  1  0
  6  8  1  0
  9  3  1  0
 12 21  2  0
 15 16  2  0
M  END
>  <rmsd>  (290) 
0.24622719

$$$$
Molport-020-282-180 MCULE-3806633297 PubChem-110257665
     RDKit          3D

 24 26  0  0  0  0  0  0  0  0999 V2000
   16.8225   46.5158    4.0991 C   0  0  0  0  0  0  0  0  0  0  0  0
   15.4772   45.9053    3.9391 C   0  0  0  0  0  0  0  0  0  0  0  0
   13.8521   44.3268    4.6669 C   0  0  0  0  0  0  0  0  0  0  0  0
   12.9739   44.7481    3.6648 C   0  0  0  0  0  0  0  0  0  0  0  0
   13.3650   45.7650    2.7921 C   0  0  0  0  0  0  0  0  0  0  0  0
   14.6248   46.3503    2.9269 C   0  0  0  0  0  0  0  0  0  0  0  0
   14.2144   42.7347    6.6334 C   0  0  0  0  0  0  0  0  0  0  0  0
   16.2112   42.6775    7.9256 C   0  0  0  0  0  0  0  0  0  0  0  0
   15.6927   41.6566    8.7236 C   0  0  0  0  0  0  0  0  0  0  0  0
   14.4048   41.1701    8.4637 C   0  0  0  0  0  0  0  0  0  0  0  0
   13.6638   41.7135    7.4119 C   0  0  0  0  0  0  0  0  0  0  0  0
   13.8053   40.0760    9.2881 C   0  0  2  0  0  0  0  0  0  0  0  0
   13.6703   40.4947   10.7449 C   0  0  0  0  0  0  0  0  0  0  0  0
   13.0219   39.3664   11.5269 C   0  0  0  0  0  0  0  0  0  0  0  0
   13.8627   38.0954   11.4010 C   0  0  0  0  0  0  0  0  0  0  0  0
   14.6275   38.7883    9.1757 C   0  0  0  0  0  0  0  0  0  0  0  0
   11.3249   38.1433    9.1597 C   0  0  0  0  0  0  0  0  0  0  0  0
   15.0773   44.9131    4.7792 N   0  0  0  0  0  0  0  0  0  0  0  0
   13.4425   43.2826    5.5581 N   0  0  0  0  0  0  0  0  0  0  0  0
   15.4690   43.1900    6.9079 N   0  0  0  0  0  0  0  0  0  0  0  0
   14.0942   37.6965   10.0040 N   0  0  0  0  0  0  0  0  0  0  0  0
   12.6713   36.9850    9.2904 S   0  0  0  0  0  0  0  0  0  0  0  0
   12.2255   35.8230   10.1326 O   0  0  0  0  0  0  0  0  0  0  0  0
   13.0087   36.4845    7.9143 O   0  0  0  0  0  0  0  0  0  0  0  0
  1  2  1  0
  3 18  2  0
  3 19  1  0
  4  5  2  0
  6  2  2  0
  8 20  2  0
  9 10  2  0
 11  7  2  0
 12 10  1  6
 12 13  1  0
 13 14  1  0
 14 15  1  0
 15 21  1  0
 16 21  1  0
 16 12  1  0
 19  7  1  0
 22 21  1  0
 22 17  1  0
  2 18  1  0
  3  4  1  0
  5  6  1  0
  7 20  1  0
  8  9  1  0
 10 11  1  0
 22 23  2  0
 22 24  2  0
M  END
>  <rmsd>  (291) 
0.246134788

$$$$
MolPort-020-293-032 MCULE-5785464282 PubChem-110265499
     RDKit          3D

 27 29  0  0  0  0  0  0  0  0999 V2000
   12.3169   46.1091    1.7852 C   0  0  0  0  0  0  0  0  0  0  0  0
   13.2921   45.6975    2.8282 C   0  0  0  0  0  0  0  0  0  0  0  0
   14.5371   46.3193    2.9022 C   0  0  0  0  0  0  0  0  0  0  0  0
   15.4238   45.9053    3.8941 C   0  0  0  0  0  0  0  0  0  0  0  0
   13.8450   44.3212    4.6726 C   0  0  0  0  0  0  0  0  0  0  0  0
   14.2355   42.7286    6.6556 C   0  0  0  0  0  0  0  0  0  0  0  0
   15.5296   43.1827    6.9447 C   0  0  0  0  0  0  0  0  0  0  0  0
   16.2409   42.6133    8.0008 C   0  0  0  0  0  0  0  0  0  0  0  0
   15.6604   41.5981    8.7600 C   0  0  0  0  0  0  0  0  0  0  0  0
   14.3648   41.1638    8.4486 C   0  0  0  0  0  0  0  0  0  0  0  0
   13.7039   40.0771    9.2353 C   0  0  2  0  0  0  0  0  0  0  0  0
   13.5375   40.4829   10.6999 C   0  0  0  0  0  0  0  0  0  0  0  0
   12.9458   39.3298   11.5039 C   0  0  0  0  0  0  0  0  0  0  0  0
   13.7911   38.0760   11.2957 C   0  0  0  0  0  0  0  0  0  0  0  0
   14.4931   38.7703    9.1376 C   0  0  0  0  0  0  0  0  0  0  0  0
   13.8622   34.9856   11.7858 C   0  0  0  0  0  0  0  0  0  0  0  0
   14.5694   33.6925    9.9849 C   0  0  0  0  0  0  0  0  0  0  0  0
   16.7616   46.5418    4.0083 C   0  0  0  0  0  0  0  0  0  0  0  0
   15.0649   44.9195    4.7569 N   0  0  0  0  0  0  0  0  0  0  0  0
   12.9699   44.7150    3.7096 N   0  0  0  0  0  0  0  0  0  0  0  0
   13.4612   43.2799    5.5808 N   0  0  0  0  0  0  0  0  0  0  0  0
   13.6930   41.7363    7.4130 N   0  0  0  0  0  0  0  0  0  0  0  0
   13.8045   37.7120    9.8780 N   0  0  0  0  0  0  0  0  0  0  0  0
   13.8452   34.9024   10.3353 N   0  0  0  0  0  0  0  0  0  0  0  0
   14.7344   36.2543    9.6978 S   0  0  0  0  0  0  0  0  0  0  0  0
   16.0549   36.3910   10.4086 O   0  0  0  0  0  0  0  0  0  0  0  0
   14.9925   36.0201    8.2339 O   0  0  0  0  0  0  0  0  0  0  0  0
  1  2  1  0
  2 20  2  0
  3  4  2  0
  5 19  2  0
  5 21  1  0
  6 22  2  0
  7  8  2  0
  9 10  2  0
 11 10  1  6
 11 12  1  0
 12 13  1  0
 13 14  1  0
 14 23  1  0
 15 23  1  0
 15 11  1  0
 16 24  1  0
 17 24  1  0
 18  4  1  0
 21  6  1  0
 25 23  1  0
 25 24  1  0
  2  3  1  0
  4 19  1  0
  5 20  1  0
  6  7  1  0
  8  9  1  0
 10 22  1  0
 25 26  2  0
 25 27  2  0
M  END
>  <rmsd>  (292) 
0.246126086

$$$$
MolPort-002-774-483 36613625 CSSS00133001883 MCULE-7966135832 PubChem-44821680 ZINC000036613625 ZINC36613625
     RDKit          3D

 31 34  0  0  0  0  0  0  0  0999 V2000
   13.0822   39.5648   12.0568 C   0  0  0  0  0  0  0  0  0  0  0  0
   14.0282   39.3666   10.8911 C   0  0  0  0  0  0  0  0  0  0  0  0
   14.9174   40.2144    9.0587 C   0  0  0  0  0  0  0  0  0  0  0  0
   13.8456   41.6042    7.2981 C   0  0  0  0  0  0  0  0  0  0  0  0
   14.2723   42.6459    6.5065 C   0  0  0  0  0  0  0  0  0  0  0  0
   13.8998   44.3937    4.6933 C   0  0  0  0  0  0  0  0  0  0  0  0
   12.9710   44.9981    3.7220 C   0  0  0  0  0  0  0  0  0  0  0  0
   12.0137   44.2777    2.9881 C   0  0  0  0  0  0  0  0  0  0  0  0
   11.7094   42.9309    2.8037 C   0  0  0  0  0  0  0  0  0  0  0  0
   12.4208   41.7500    3.3628 C   0  0  0  0  0  0  0  0  0  0  0  0
    9.3351   44.3355    0.5362 C   0  0  0  0  0  0  0  0  0  0  0  0
   11.1469   44.9253    2.1516 C   0  0  0  0  0  0  0  0  0  0  0  0
   12.0919   47.0222    2.6365 C   0  0  0  0  0  0  0  0  0  0  0  0
   13.0008   46.3927    3.5228 C   0  0  0  0  0  0  0  0  0  0  0  0
   12.1306   48.4866    2.4356 C   0  0  0  0  0  0  0  0  0  0  0  0
   11.2254   49.1009    1.5575 C   0  0  0  0  0  0  0  0  0  0  0  0
   11.2542   50.4844    1.3608 C   0  0  0  0  0  0  0  0  0  0  0  0
   12.1873   51.2748    2.0381 C   0  0  0  0  0  0  0  0  0  0  0  0
   13.1047   53.5321    2.4635 C   0  0  0  0  0  0  0  0  0  0  0  0
   13.0957   50.6659    2.9178 C   0  0  0  0  0  0  0  0  0  0  0  0
   13.0666   49.2829    3.1142 C   0  0  0  0  0  0  0  0  0  0  0  0
   15.5905   42.9113    6.8301 C   0  0  0  0  0  0  0  0  0  0  0  0
   14.0046   40.4968   10.0756 O   0  0  0  0  0  0  0  0  0  0  0  0
   15.0507   44.8888    4.8373 O   0  0  0  0  0  0  0  0  0  0  0  0
   12.1900   52.6552    1.8201 O   0  0  0  0  0  0  0  0  0  0  0  0
   14.8979   41.2781    8.0695 N   0  0  0  0  0  0  0  0  0  0  0  0
   13.4703   43.3083    5.5233 N   0  0  0  0  0  0  0  0  0  0  0  0
   10.7002   42.8194    1.9052 N   0  0  0  0  0  0  0  0  0  0  0  0
   10.3605   44.0422    1.5218 N   0  0  0  0  0  0  0  0  0  0  0  0
   11.1723   46.2670    1.9611 N   0  0  0  0  0  0  0  0  0  0  0  0
   15.9425   42.0446    7.7997 N   0  0  0  0  0  0  0  0  0  0  0  0
  1  2  1  0
  2 23  1  0
  3 23  1  0
  3 26  1  0
  5 27  1  0
  5 22  1  0
  6  7  1  0
  8  9  1  0
 10  9  1  0
 11 29  1  0
 12  8  2  0
 13 30  2  0
 13 15  1  0
 14  7  2  0
 16 17  2  0
 18 25  1  0
 18 20  2  0
 19 25  1  0
 21 15  2  0
 26  4  1  0
 26 31  1  0
 27  6  1  0
 29 28  1  0
 29 12  1  0
  4  5  2  0
  6 24  2  0
  7  8  1  0
  9 28  2  0
 12 30  1  0
 13 14  1  0
 15 16  1  0
 17 18  1  0
 20 21  1  0
 22 31  2  0
M  END
>  <rmsd>  (293) 
0.246111661

$$$$
MolPort-045-963-317 952873328 CSSS00159698825 MCULE-7326464191 PubChem-131938632 ZINC000952873328
     RDKit          3D

 28 30  0  0  0  0  0  0  0  0999 V2000
   12.0559   45.9950    2.1478 C   0  0  0  0  0  0  0  0  0  0  0  0
   13.1883   44.5311    3.3478 C   0  0  0  0  0  0  0  0  0  0  0  0
   13.9742   44.2575    4.5815 C   0  0  0  0  0  0  0  0  0  0  0  0
   14.2172   42.7762    6.6373 C   0  0  0  0  0  0  0  0  0  0  0  0
   13.5613   42.6106    7.8612 C   0  0  0  0  0  0  0  0  0  0  0  0
   14.2335   42.0751    8.9606 C   0  0  0  0  0  0  0  0  0  0  0  0
   15.5710   41.6770    8.8446 C   0  0  0  0  0  0  0  0  0  0  0  0
   15.7190   40.6770   11.1857 C   0  0  0  0  0  0  0  0  0  0  0  0
   14.4752   39.8863   11.2082 C   0  0  0  0  0  0  0  0  0  0  0  0
   13.9641   39.1094   10.1781 C   0  0  0  0  0  0  0  0  0  0  0  0
   12.0024   37.6633   10.0136 C   0  0  0  0  0  0  0  0  0  0  0  0
   10.9063   37.1879   10.7474 C   0  0  0  0  0  0  0  0  0  0  0  0
    9.9391   36.2488   10.1227 C   0  0  0  0  0  0  0  0  0  0  0  0
   10.7291   37.6050   12.0810 C   0  0  0  0  0  0  0  0  0  0  0  0
   11.6406   38.4905   12.6796 C   0  0  0  0  0  0  0  0  0  0  0  0
   12.7085   38.9320   11.9019 C   0  0  0  0  0  0  0  0  0  0  0  0
   16.2258   41.8241    7.6200 C   0  0  0  0  0  0  0  0  0  0  0  0
   15.5582   42.3553    6.5035 C   0  0  0  0  0  0  0  0  0  0  0  0
   17.5442   42.0246    5.0588 C   0  0  0  0  0  0  0  0  0  0  0  0
   12.7778   45.8642    3.3331 O   0  0  0  0  0  0  0  0  0  0  0  0
   15.0499   44.8806    4.7887 O   0  0  0  0  0  0  0  0  0  0  0  0
   16.3137   40.9087   12.2706 O   0  0  0  0  0  0  0  0  0  0  0  0
   16.1997   42.4381    5.2623 O   0  0  0  0  0  0  0  0  0  0  0  0
   13.4735   43.3191    5.5387 N   0  0  0  0  0  0  0  0  0  0  0  0
   16.2970   41.1565    9.9646 N   0  0  0  0  0  0  0  0  0  0  0  0
   12.8522   38.5205   10.6308 N   0  0  0  0  0  0  0  0  0  0  0  0
   13.6879   39.7678   12.3071 N   0  0  0  0  0  0  0  0  0  0  0  0
   14.5077   38.9003    8.9528 F   0  0  0  0  0  0  0  0  0  0  0  0
  1 20  1  0
  2 20  1  0
  2  3  1  0
  3 24  1  0
  5  6  2  0
  7 25  1  0
  7 17  2  0
  8  9  1  0
  9 27  1  0
 10 28  1  0
 10 26  1  0
 12 14  1  0
 13 12  1  0
 15 16  1  0
 16 26  1  0
 18 23  1  0
 18  4  2  0
 19 23  1  0
 24  4  1  0
 25  8  1  0
 26 11  1  0
  3 21  2  0
  4  5  1  0
  6  7  1  0
  8 22  2  0
  9 10  2  0
 11 12  2  0
 14 15  2  0
 16 27  2  0
 17 18  1  0
M  END
>  <rmsd>  (294) 
0.246096298

$$$$
MolPort-005-073-458 12835630 CSSS00159491738 MCULE-1852119178 PubChem-25544661 ZINC000012835630
     RDKit          3D

 32 35  0  0  0  0  0  0  0  0999 V2000
   10.4082   45.2049    0.3335 C   0  0  0  0  0  0  0  0  0  0  0  0
   12.5185   45.8708    1.4463 C   0  0  0  0  0  0  0  0  0  0  0  0
   13.4179   45.6832    2.5101 C   0  0  0  0  0  0  0  0  0  0  0  0
   13.9484   44.3189    4.6201 C   0  0  0  0  0  0  0  0  0  0  0  0
   14.1753   42.8197    6.6689 C   0  0  0  0  0  0  0  0  0  0  0  0
   15.4481   43.1780    7.0723 C   0  0  0  0  0  0  0  0  0  0  0  0
   15.6509   42.4131    8.2157 C   0  0  0  0  0  0  0  0  0  0  0  0
   12.3464   41.2996    7.4240 C   0  0  0  0  0  0  0  0  0  0  0  0
   12.4472   39.7715    7.2946 C   0  0  0  0  0  0  0  0  0  0  0  0
   12.1603   39.0442    8.6095 C   0  0  0  0  0  0  0  0  0  0  0  0
   12.4927   39.0347   10.9277 C   0  0  0  0  0  0  0  0  0  0  0  0
   13.5883   39.3979   11.9160 C   0  0  0  0  0  0  0  0  0  0  0  0
   14.9488   38.9777   11.3715 C   0  0  0  0  0  0  0  0  0  0  0  0
   16.0996   39.3562   12.2576 C   0  0  0  0  0  0  0  0  0  0  0  0
   17.3936   39.0293   11.8381 C   0  0  0  0  0  0  0  0  0  0  0  0
   18.4990   39.3616   12.6276 C   0  0  0  0  0  0  0  0  0  0  0  0
   18.3155   40.0241   13.8445 C   0  0  0  0  0  0  0  0  0  0  0  0
   17.0270   40.3558   14.2714 C   0  0  0  0  0  0  0  0  0  0  0  0
   15.9221   40.0243   13.4812 C   0  0  0  0  0  0  0  0  0  0  0  0
   11.6639   40.9753    9.8891 C   0  0  0  0  0  0  0  0  0  0  0  0
   11.4467   41.7589    8.5809 C   0  0  0  0  0  0  0  0  0  0  0  0
   14.5677   46.4849    2.5901 C   0  0  0  0  0  0  0  0  0  0  0  0
   14.8245   47.4594    1.6233 C   0  0  0  0  0  0  0  0  0  0  0  0
   13.9327   47.6429    0.5657 C   0  0  0  0  0  0  0  0  0  0  0  0
   12.7848   46.8528    0.4770 C   0  0  0  0  0  0  0  0  0  0  0  0
   11.3716   45.0722    1.3696 O   0  0  0  0  0  0  0  0  0  0  0  0
   15.0673   44.8691    4.8080 O   0  0  0  0  0  0  0  0  0  0  0  0
   13.1331   44.6804    3.4980 N   0  0  0  0  0  0  0  0  0  0  0  0
   13.4691   43.3182    5.5249 N   0  0  0  0  0  0  0  0  0  0  0  0
   14.5591   41.6577    8.4573 N   0  0  0  0  0  0  0  0  0  0  0  0
   13.6708   41.9094    7.5123 N   0  0  0  0  0  0  0  0  0  0  0  0
   12.5998   39.8590    9.7348 N   0  0  0  0  0  0  0  0  0  0  0  0
  1 26  1  0
  2 26  1  0
  3 28  1  0
  3 22  2  0
  4 29  1  0
  6  7  1  0
  8 31  1  0
  8  9  1  0
  9 10  1  0
 10 32  1  0
 11 32  1  0
 11 12  1  0
 12 13  1  0
 13 14  1  0
 15 16  2  0
 17 18  2  0
 19 14  2  0
 20 32  1  0
 20 21  1  0
 21  8  1  0
 23 24  2  0
 25  2  2  0
 28  4  1  0
 29  5  1  0
 31 30  1  0
 31  5  1  0
  2  3  1  0
  4 27  2  0
  5  6  2  0
  7 30  2  0
 14 15  1  0
 16 17  1  0
 18 19  1  0
 22 23  1  0
 24 25  1  0
M  END
>  <rmsd>  (295) 
0.246072471

$$$$
MolPort-007-723-467 6818306 ChemDiv-E157-5727 MCULE-9072842945 PubChem-22518023 ZINC000006818306 ZINC06818306
     RDKit          3D

 24 25  0  0  0  0  0  0  0  0999 V2000
   13.9896   43.4401    1.6753 C   0  0  0  0  0  0  0  0  0  0  0  0
   12.7721   43.6855    2.5470 C   0  0  0  0  0  0  0  0  0  0  0  0
   13.0424   44.8087    3.5358 C   0  0  0  0  0  0  0  0  0  0  0  0
   13.9256   44.3471    4.6458 C   0  0  0  0  0  0  0  0  0  0  0  0
   14.2257   42.7872    6.6258 C   0  0  0  0  0  0  0  0  0  0  0  0
   15.1059   41.6310    8.5197 C   0  0  0  0  0  0  0  0  0  0  0  0
   13.8360   39.6232   11.9163 C   0  0  0  0  0  0  0  0  0  0  0  0
   13.1898   38.5033   11.1207 C   0  0  0  0  0  0  0  0  0  0  0  0
   13.5358   42.0414   11.3314 C   0  0  0  0  0  0  0  0  0  0  0  0
   12.1368   42.1989   11.4620 C   0  0  0  0  0  0  0  0  0  0  0  0
   11.1921   41.0628   11.2713 C   0  0  0  0  0  0  0  0  0  0  0  0
   11.5990   43.4623   11.7280 C   0  0  0  0  0  0  0  0  0  0  0  0
   12.4340   44.5726   11.8657 C   0  0  0  0  0  0  0  0  0  0  0  0
   13.8149   44.4269   11.7307 C   0  0  0  0  0  0  0  0  0  0  0  0
   14.3605   43.1700   11.4633 C   0  0  0  0  0  0  0  0  0  0  0  0
   15.0571   44.8799    4.7956 O   0  0  0  0  0  0  0  0  0  0  0  0
   16.7122   41.1323   10.5882 O   0  0  0  0  0  0  0  0  0  0  0  0
   15.6435   39.2241    9.4834 O   0  0  0  0  0  0  0  0  0  0  0  0
   13.4715   43.3181    5.5322 N   0  0  0  0  0  0  0  0  0  0  0  0
   15.4718   43.1913    6.9587 N   0  0  0  0  0  0  0  0  0  0  0  0
   15.9612   42.5471    8.0162 N   0  0  0  0  0  0  0  0  0  0  0  0
   14.1314   40.7613   11.0529 N   0  0  0  0  0  0  0  0  0  0  0  0
   13.6614   41.5816    7.6546 S   0  0  0  0  0  0  0  0  0  0  0  0
   15.4527   40.6472    9.9271 S   0  0  0  0  0  0  0  0  0  0  0  0
  1  2  1  0
  2  3  1  0
  3  4  1  0
  4 19  1  0
  5 23  1  0
  6 23  1  0
  7 22  1  0
  7  8  1  0
 10 12  2  0
 11 10  1  0
 13 14  2  0
 15  9  2  0
 19  5  1  0
 20 21  1  0
 22  9  1  0
 24  6  1  0
 24 22  1  0
  4 16  2  0
  5 20  2  0
  6 21  2  0
  9 10  1  0
 12 13  1  0
 14 15  1  0
 24 17  2  0
 24 18  2  0
M  END
>  <rmsd>  (296) 
0.246058837

$$$$
MolPort-002-536-916 1950594 CSSS00160676641 LN00398489 PubChem-1674666 ZINC000001950594
     RDKit          3D

 19 19  0  0  0  0  0  0  0  0999 V2000
   11.2301   39.5241   10.7930 C   0  0  0  0  0  0  0  0  0  0  0  0
   12.3370   38.8336   11.5668 C   0  0  0  0  0  0  0  0  0  0  0  0
   13.5971   39.6840   11.5713 C   0  0  0  0  0  0  0  0  0  0  0  0
   14.4017   39.4825   10.2967 C   0  0  0  0  0  0  0  0  0  0  0  0
   14.3731   41.1434    8.4619 C   0  0  0  0  0  0  0  0  0  0  0  0
   15.6705   41.5912    8.7568 C   0  0  0  0  0  0  0  0  0  0  0  0
   16.2523   42.6090    7.9975 C   0  0  0  0  0  0  0  0  0  0  0  0
   15.5419   43.1842    6.9411 C   0  0  0  0  0  0  0  0  0  0  0  0
   14.2447   42.7456    6.6365 C   0  0  0  0  0  0  0  0  0  0  0  0
   13.9010   44.3584    4.6698 C   0  0  0  0  0  0  0  0  0  0  0  0
   13.0024   44.8304    3.6128 C   0  0  0  0  0  0  0  0  0  0  0  0
   11.7884   44.3156    3.4422 C   0  0  0  0  0  0  0  0  0  0  0  0
   10.8887   44.7871    2.3853 C   0  0  0  0  0  0  0  0  0  0  0  0
   13.6696   41.7256    7.4022 C   0  0  0  0  0  0  0  0  0  0  0  0
   13.7620   40.1282    9.2025 O   0  0  0  0  0  0  0  0  0  0  0  0
   15.0385   44.8874    4.7790 O   0  0  0  0  0  0  0  0  0  0  0  0
    9.6319   44.2132    2.2532 O   0  0  0  0  0  0  0  0  0  0  0  0
   11.2405   45.7048    1.5964 O   0  0  0  0  0  0  0  0  0  0  0  0
   13.4845   43.3116    5.5603 N   0  0  0  0  0  0  0  0  0  0  0  0
  1  2  1  0
  2  3  1  0
  3  4  1  0
  4 15  1  0
  5 15  1  0
  6  7  2  0
  8  9  2  0
  9 19  1  0
 10 11  1  0
 12 13  1  0
 13 17  1  0
 14  5  2  0
 19 10  1  0
  5  6  1  0
  7  8  1  0
  9 14  1  0
 10 16  2  0
 11 12  2  0
 13 18  2  0
M  END
>  <rmsd>  (297) 
0.246040672

$$$$
Molport-046-951-093 MCULE-4515069063 MCULE-8858451238 PubChem-110089564
     RDKit          3D

 20 22  0  0  0  0  0  0  0  0999 V2000
   11.5946   44.1219    3.5329 C   0  0  0  0  0  0  0  0  0  0  0  0
   12.9435   44.7400    3.6720 C   0  0  0  0  0  0  0  0  0  0  0  0
   13.8412   44.3240    4.6696 C   0  0  0  0  0  0  0  0  0  0  0  0
   15.4479   45.9088    3.9067 C   0  0  0  0  0  0  0  0  0  0  0  0
   14.5806   46.3452    2.9050 C   0  0  0  0  0  0  0  0  0  0  0  0
   13.3224   45.7545    2.7908 C   0  0  0  0  0  0  0  0  0  0  0  0
   14.2362   42.7285    6.6543 C   0  0  0  0  0  0  0  0  0  0  0  0
   15.5310   43.1814    6.9413 C   0  0  0  0  0  0  0  0  0  0  0  0
   16.2435   42.6112    7.9961 C   0  0  0  0  0  0  0  0  0  0  0  0
   15.6635   41.5962    8.7561 C   0  0  0  0  0  0  0  0  0  0  0  0
   14.3672   41.1628    8.4465 C   0  0  0  0  0  0  0  0  0  0  0  0
   13.7057   40.0774    9.2349 C   0  0  2  0  0  0  0  0  0  0  0  0
   13.5400   40.4849   10.6988 C   0  0  0  0  0  0  0  0  0  0  0  0
   12.9431   39.3345   11.5026 C   0  0  0  0  0  0  0  0  0  0  0  0
   13.7843   38.0768   11.2976 C   0  0  0  0  0  0  0  0  0  0  0  0
   14.4920   38.7679    9.1379 C   0  0  0  0  0  0  0  0  0  0  0  0
   15.0642   44.9196    4.7572 N   0  0  0  0  0  0  0  0  0  0  0  0
   13.4603   43.2806    5.5811 N   0  0  0  0  0  0  0  0  0  0  0  0
   13.6940   41.7363    7.4121 N   0  0  0  0  0  0  0  0  0  0  0  0
   13.8044   37.7137    9.8816 N   0  0  0  0  0  0  0  0  0  0  0  0
  1  2  1  0
  3 17  2  0
  3 18  1  0
  4  5  2  0
  6  2  2  0
  7 19  2  0
  8  9  2  0
 10 11  2  0
 12 11  1  6
 12 13  1  0
 13 14  1  0
 14 15  1  0
 15 20  1  0
 16 20  1  0
 16 12  1  0
 18  7  1  0
  2  3  1  0
  4 17  1  0
  5  6  1  0
  7  8  1  0
  9 10  1  0
 11 19  1  0
M  END
>  <rmsd>  (298) 
0.246039927

$$$$
Molport-046-951-095 MCULE-1290107612 MCULE-6166266746 PubChem-110089565
     RDKit          3D

 21 23  0  0  0  0  0  0  0  0999 V2000
   16.7600   46.5436    4.0074 C   0  0  0  0  0  0  0  0  0  0  0  0
   15.4220   45.9072    3.8940 C   0  0  0  0  0  0  0  0  0  0  0  0
   14.5342   46.3220    2.9034 C   0  0  0  0  0  0  0  0  0  0  0  0
   13.2892   45.7004    2.8302 C   0  0  0  0  0  0  0  0  0  0  0  0
   13.8440   44.3225    4.6729 C   0  0  0  0  0  0  0  0  0  0  0  0
   14.2366   42.7283    6.6541 C   0  0  0  0  0  0  0  0  0  0  0  0
   15.5313   43.1815    6.9416 C   0  0  0  0  0  0  0  0  0  0  0  0
   16.2436   42.6111    7.9965 C   0  0  0  0  0  0  0  0  0  0  0  0
   15.6636   41.5959    8.7561 C   0  0  0  0  0  0  0  0  0  0  0  0
   14.3675   41.1624    8.4461 C   0  0  0  0  0  0  0  0  0  0  0  0
   13.7061   40.0765    9.2342 C   0  0  2  0  0  0  0  0  0  0  0  0
   13.5400   40.4839   10.6983 C   0  0  0  0  0  0  0  0  0  0  0  0
   12.9432   39.3332   11.5017 C   0  0  0  0  0  0  0  0  0  0  0  0
   13.7848   38.0758   11.2967 C   0  0  0  0  0  0  0  0  0  0  0  0
   14.4928   38.7673    9.1372 C   0  0  0  0  0  0  0  0  0  0  0  0
   12.3130   46.1128    1.7885 C   0  0  0  0  0  0  0  0  0  0  0  0
   12.9679   44.7173    3.7111 N   0  0  0  0  0  0  0  0  0  0  0  0
   15.0640   44.9209    4.7565 N   0  0  0  0  0  0  0  0  0  0  0  0
   13.4611   43.2807    5.5808 N   0  0  0  0  0  0  0  0  0  0  0  0
   13.6944   41.7359    7.4117 N   0  0  0  0  0  0  0  0  0  0  0  0
   13.8053   37.7129    9.8806 N   0  0  0  0  0  0  0  0  0  0  0  0
  1  2  1  0
  2 18  2  0
  3  4  2  0
  5 17  2  0
  5 19  1  0
  6 20  2  0
  7  8  2  0
  9 10  2  0
 11 10  1  6
 11 12  1  0
 12 13  1  0
 13 14  1  0
 14 21  1  0
 15 21  1  0
 15 11  1  0
 16  4  1  0
 19  6  1  0
  2  3  1  0
  4 17  1  0
  5 18  1  0
  6  7  1  0
  8  9  1  0
 10 20  1  0
M  END
>  <rmsd>  (299) 
0.246018767

$$$$
MolPort-047-072-334 PubChem-132766320
     RDKit          3D

 29 32  0  0  0  0  0  0  0  0999 V2000
   14.0643   46.9892    1.9209 C   0  0  0  0  0  0  0  0  0  0  0  0
   14.1447   46.0069    3.0330 C   0  0  0  0  0  0  0  0  0  0  0  0
   13.8701   44.3168    4.6999 C   0  0  0  0  0  0  0  0  0  0  0  0
   14.2294   42.7179    6.6465 C   0  0  0  0  0  0  0  0  0  0  0  0
   13.6876   41.6978    7.4279 C   0  0  0  0  0  0  0  0  0  0  0  0
   14.4576   41.1670    8.4626 C   0  0  0  0  0  0  0  0  0  0  0  0
   16.2242   42.6426    7.9192 C   0  0  0  0  0  0  0  0  0  0  0  0
   17.5941   43.1537    8.1834 C   0  0  0  0  0  0  0  0  0  0  0  0
   13.8973   40.0742    9.3106 C   0  0  2  0  0  0  0  0  0  0  0  0
   13.7964   40.5174   10.7735 C   0  0  0  0  0  0  0  0  0  0  0  0
   13.3349   39.3969   11.7201 C   0  0  0  0  0  0  0  0  0  0  0  0
   13.1722   38.0457   11.0229 C   0  0  0  0  0  0  0  0  0  0  0  0
   14.7418   38.8040    9.1853 C   0  0  0  0  0  0  0  0  0  0  0  0
   15.0729   36.5693   10.2799 C   0  0  0  0  0  0  0  0  0  0  0  0
   14.6823   35.5493   11.2669 C   0  0  0  0  0  0  0  0  0  0  0  0
   15.3540   34.4117   11.4089 C   0  0  0  0  0  0  0  0  0  0  0  0
   14.9487   33.4107   12.3971 C   0  0  0  0  0  0  0  0  0  0  0  0
   15.5910   32.2110   12.6039 C   0  0  0  0  0  0  0  0  0  0  0  0
   14.8729   31.5978   13.6163 C   0  0  0  0  0  0  0  0  0  0  0  0
   13.8463   32.4633   13.9551 C   0  0  0  0  0  0  0  0  0  0  0  0
   15.2268   45.8681    3.8294 N   0  0  0  0  0  0  0  0  0  0  0  0
   15.0749   44.9265    4.7588 N   0  0  0  0  0  0  0  0  0  0  0  0
   13.4490   43.2710    5.5814 N   0  0  0  0  0  0  0  0  0  0  0  0
   15.7103   41.6485    8.6890 N   0  0  0  0  0  0  0  0  0  0  0  0
   15.4863   43.1697    6.9077 N   0  0  0  0  0  0  0  0  0  0  0  0
   14.3226   37.7877   10.1558 N   0  0  0  0  0  0  0  0  0  0  0  0
   16.0742   36.3700    9.5375 O   0  0  0  0  0  0  0  0  0  0  0  0
   13.9256   33.5351   13.2044 O   0  0  0  0  0  0  0  0  0  0  0  0
   12.9167   44.9362    3.4597 S   0  0  0  0  0  0  0  0  0  0  0  0
  1  2  1  0
  2 29  1  0
  3 23  1  0
  3 29  1  0
  4 25  2  0
  5  6  2  0
  7 24  2  0
  8  7  1  0
  9  6  1  6
  9 10  1  0
 10 11  1  0
 11 12  1  0
 12 26  1  0
 13 26  1  0
 13  9  1  0
 14 15  1  0
 16 17  1  0
 17 28  1  0
 18 19  1  0
 20 28  1  0
 21 22  1  0
 23  4  1  0
 26 14  1  0
  2 21  2  0
  3 22  2  0
  4  5  1  0
  6 24  1  0
  7 25  1  0
 14 27  2  0
 15 16  2  0
 17 18  2  0
 19 20  2  0
M  END
>  <rmsd>  (300) 
0.245959803

$$$$
MolPort-004-997-950 CSSS00159751999 MCULE-3010046500 PubChem-45168360
     RDKit          3D

 31 34  0  0  0  0  0  0  0  0999 V2000
    8.7289   37.0651   10.7194 O   0  0  0  0  0  0  0  0  0  0  0  0
   10.5405   36.7292    8.7226 O   0  0  0  0  0  0  0  0  0  0  0  0
   15.0447   44.8983    4.7961 O   0  0  0  0  0  0  0  0  0  0  0  0
   13.8808   46.1663    1.8950 O   0  0  0  0  0  0  0  0  0  0  0  0
    9.5698   37.9712   10.4771 C   0  0  0  0  0  0  0  0  0  0  0  0
    9.7027   39.1029   11.4460 C   0  0  0  0  0  0  0  0  0  0  0  0
   10.6986   38.7567   12.5465 C   0  0  0  0  0  0  0  0  0  0  0  0
   12.1055   38.9519   12.0858 C   0  0  0  0  0  0  0  0  0  0  0  0
   12.6016   40.2402   11.8485 C   0  0  0  0  0  0  0  0  0  0  0  0
   13.9187   40.4148   11.4134 C   0  0  0  0  0  0  0  0  0  0  0  0
   14.7435   39.3029   11.2184 C   0  0  0  0  0  0  0  0  0  0  0  0
   14.2526   38.0165   11.4626 C   0  0  0  0  0  0  0  0  0  0  0  0
   12.9356   37.8414   11.8987 C   0  0  0  0  0  0  0  0  0  0  0  0
   10.4526   37.8480    9.2981 C   0  0  0  0  0  0  0  0  0  0  0  0
   12.5049   38.6856    8.1454 C   0  0  0  0  0  0  0  0  0  0  0  0
   12.6713   39.6033    6.9387 C   0  0  0  0  0  0  0  0  0  0  0  0
   12.5501   41.0882    7.3159 C   0  0  0  0  0  0  0  0  0  0  0  0
   11.8168   41.3446    8.6393 C   0  0  0  0  0  0  0  0  0  0  0  0
   10.7089   40.3237    8.8860 C   0  0  0  0  0  0  0  0  0  0  0  0
   15.9000   42.1605    7.9255 C   0  0  0  0  0  0  0  0  0  0  0  0
   15.5963   43.0366    6.8885 C   0  0  0  0  0  0  0  0  0  0  0  0
   14.2941   42.7065    6.5620 C   0  0  0  0  0  0  0  0  0  0  0  0
   13.8969   44.3852    4.6877 C   0  0  0  0  0  0  0  0  0  0  0  0
   12.9355   44.8974    3.6633 C   0  0  1  0  0  0  0  0  0  0  0  0
   12.6420   46.3503    3.8953 C   0  0  0  0  0  0  0  0  0  0  0  0
   12.9725   46.9938    2.5708 C   0  0  0  0  0  0  0  0  0  0  0  0
   13.5471   44.8576    2.2781 C   0  0  0  0  0  0  0  0  0  0  0  0
   11.2270   38.9538    8.8067 N   0  0  0  0  0  0  0  0  0  0  0  0
   13.8677   41.7103    7.3498 N   0  0  0  0  0  0  0  0  0  0  0  0
   14.8354   41.3712    8.1824 N   0  0  0  0  0  0  0  0  0  0  0  0
   13.4885   43.3117    5.5422 N   0  0  0  0  0  0  0  0  0  0  0  0
  5 14  1  0
  6  5  1  0
  6  7  1  0
  7  8  1  0
  9 10  2  0
 11 12  2  0
 13  8  2  0
 14 28  1  0
 15 28  1  0
 15 16  1  0
 16 17  1  0
 17 18  1  0
 17 29  1  0
 18 19  1  0
 19 28  1  0
 20 21  1  0
 22 31  1  0
 22 29  1  0
 24 23  1  1
 24 25  1  0
 25 26  1  0
 26  4  1  0
 27  4  1  0
 27 24  1  0
 29 30  1  0
 31 23  1  0
  5  1  2  0
  8  9  1  0
 10 11  1  0
 12 13  1  0
 14  2  2  0
 20 30  2  0
 21 22  2  0
 23  3  2  0
M  END
>  <rmsd>  (301) 
0.24594757

$$$$
MolPort-039-123-951 MolPort-047-505-371 CSSS00160134884 MCULE-3548329714 MCULE-5752747003 PubChem-118794773 PubChem-154903008
     RDKit          3D

 28 30  0  0  0  0  0  0  0  0999 V2000
   17.3405   37.7831    9.1527 C   0  0  0  0  0  0  0  0  0  0  0  0
   16.9723   38.4295   10.4810 C   0  0  0  0  0  0  0  0  0  0  0  0
   16.4918   40.7323    9.6666 C   0  0  0  0  0  0  0  0  0  0  0  0
   15.7376   41.3902    8.5793 C   0  0  0  0  0  0  0  0  0  0  0  0
   14.6971   40.7179    7.9209 C   0  0  0  0  0  0  0  0  0  0  0  0
   13.9721   41.3531    6.9100 C   0  0  0  0  0  0  0  0  0  0  0  0
   14.2787   42.6685    6.5414 C   0  0  0  0  0  0  0  0  0  0  0  0
   13.8285   44.5341    4.8671 C   0  0  0  0  0  0  0  0  0  0  0  0
   11.4237   44.8349    4.2692 C   0  0  0  0  0  0  0  0  0  0  0  0
   10.9018   44.8718    2.8463 C   0  0  0  0  0  0  0  0  0  0  0  0
   10.7694   46.3242    2.3932 C   0  0  0  0  0  0  0  0  0  0  0  0
   11.8696   47.2672    2.9337 C   0  0  0  0  0  0  0  0  0  0  0  0
   13.1126   46.5804    3.5381 C   0  0  1  0  0  0  0  0  0  0  0  0
   13.8649   47.5706    4.4370 C   0  0  0  0  0  0  0  0  0  0  0  0
   15.3358   43.3323    7.1770 C   0  0  0  0  0  0  0  0  0  0  0  0
   16.0643   42.6943    8.1850 C   0  0  0  0  0  0  0  0  0  0  0  0
   14.6939   39.4220   10.8321 C   0  0  0  0  0  0  0  0  0  0  0  0
   13.9639   40.5820   11.1444 C   0  0  0  0  0  0  0  0  0  0  0  0
   12.6942   40.4902   11.7181 C   0  0  0  0  0  0  0  0  0  0  0  0
   12.1398   39.2383   11.9909 C   0  0  0  0  0  0  0  0  0  0  0  0
   12.8554   38.0776   11.6879 C   0  0  0  0  0  0  0  0  0  0  0  0
   14.1273   38.1690   11.1167 C   0  0  0  0  0  0  0  0  0  0  0  0
   16.0202   39.5161   10.2693 N   0  0  0  0  0  0  0  0  0  0  0  0
   13.4837   43.3147    5.5412 N   0  0  0  0  0  0  0  0  0  0  0  0
   12.7979   45.3264    4.2542 N   0  0  0  0  0  0  0  0  0  0  0  0
   13.0488   47.9412    5.5868 N   0  0  0  0  0  0  0  0  0  0  0  0
   17.5533   41.2629   10.0989 O   0  0  0  0  0  0  0  0  0  0  0  0
   15.0365   44.8995    4.7943 O   0  0  0  0  0  0  0  0  0  0  0  0
  1  2  1  0
  2 23  1  0
  3  4  1  0
  5  6  2  0
  7 24  1  0
  7 15  2  0
  8 25  1  0
  9 25  1  0
  9 10  1  0
 10 11  1  0
 11 12  1  0
 12 13  1  0
 13 14  1  1
 13 25  1  0
 14 26  1  0
 16  4  2  0
 18 19  2  0
 20 21  2  0
 22 17  2  0
 23  3  1  0
 23 17  1  0
 24  8  1  0
  3 27  2  0
  4  5  1  0
  6  7  1  0
  8 28  2  0
 15 16  1  0
 17 18  1  0
 19 20  1  0
 21 22  1  0
M  END
>  <rmsd>  (302) 
0.245940268

$$$$
MolPort-020-292-455 MCULE-2646133063 PubChem-110264923
     RDKit          3D

 31 34  0  0  0  0  0  0  0  0999 V2000
   17.5676   43.0466    8.3541 C   0  0  0  0  0  0  0  0  0  0  0  0
   16.1963   42.5829    8.0191 C   0  0  0  0  0  0  0  0  0  0  0  0
   15.5037   43.1650    6.9562 C   0  0  0  0  0  0  0  0  0  0  0  0
   14.2113   42.7224    6.6464 C   0  0  0  0  0  0  0  0  0  0  0  0
   13.6402   41.7027    7.4116 C   0  0  0  0  0  0  0  0  0  0  0  0
   14.3615   41.1422    8.4689 C   0  0  0  0  0  0  0  0  0  0  0  0
   13.7453   40.0522    9.2815 C   0  0  2  0  0  0  0  0  0  0  0  0
   13.6123   40.4769   10.7374 C   0  0  0  0  0  0  0  0  0  0  0  0
   12.9990   39.3415   11.5400 C   0  0  0  0  0  0  0  0  0  0  0  0
   13.8573   38.0815   11.3935 C   0  0  0  0  0  0  0  0  0  0  0  0
   14.5770   38.7671    9.1792 C   0  0  0  0  0  0  0  0  0  0  0  0
   12.7473   37.2376    9.4303 C   0  0  0  0  0  0  0  0  0  0  0  0
   12.5705   35.7718    9.6303 C   0  0  0  0  0  0  0  0  0  0  0  0
   13.4745   33.4293    9.1128 C   0  0  0  0  0  0  0  0  0  0  0  0
   12.5101   32.7464    9.8704 C   0  0  0  0  0  0  0  0  0  0  0  0
   12.5274   31.3506    9.9440 C   0  0  0  0  0  0  0  0  0  0  0  0
   13.5092   30.6279    9.2613 C   0  0  0  0  0  0  0  0  0  0  0  0
   14.4730   31.3011    8.5056 C   0  0  0  0  0  0  0  0  0  0  0  0
   14.4545   32.6973    8.4328 C   0  0  0  0  0  0  0  0  0  0  0  0
   13.8528   44.3260    4.6693 C   0  0  0  0  0  0  0  0  0  0  0  0
   15.4491   45.9099    3.9140 C   0  0  0  0  0  0  0  0  0  0  0  0
   14.5659   46.3258    2.9168 C   0  0  0  0  0  0  0  0  0  0  0  0
   12.9716   44.7449    3.6700 C   0  0  0  0  0  0  0  0  0  0  0  0
   15.6171   41.5920    8.7478 N   0  0  0  0  0  0  0  0  0  0  0  0
   14.0250   37.6728    9.9898 N   0  0  0  0  0  0  0  0  0  0  0  0
   13.4899   34.8598    9.0147 N   0  0  0  0  0  0  0  0  0  0  0  0
   13.4510   43.2819    5.5662 N   0  0  0  0  0  0  0  0  0  0  0  0
   15.0738   44.9207    4.7669 N   0  0  0  0  0  0  0  0  0  0  0  0
   13.3464   45.7343    2.8166 N   0  0  0  0  0  0  0  0  0  0  0  0
   11.6096   35.3582   10.3310 O   0  0  0  0  0  0  0  0  0  0  0  0
   13.5270   29.2754    9.3318 F   0  0  0  0  0  0  0  0  0  0  0  0
  1  2  1  0
  2 24  2  0
  3  4  2  0
  4 27  1  0
  5  6  2  0
  7  6  1  6
  7  8  1  0
  8  9  1  0
  9 10  1  0
 10 25  1  0
 11 25  1  0
 11  7  1  0
 12 25  1  0
 12 13  1  0
 13 26  1  0
 15 16  2  0
 17 18  2  0
 17 31  1  0
 19 14  2  0
 21 28  2  0
 22 29  2  0
 23 20  2  0
 26 14  1  0
 27 20  1  0
  2  3  1  0
  4  5  1  0
  6 24  1  0
 13 30  2  0
 14 15  1  0
 16 17  1  0
 18 19  1  0
 20 28  1  0
 21 22  1  0
 23 29  1  0
M  END
>  <rmsd>  (303) 
0.245932475

$$$$
Molport-053-137-419 MCULE-8111636392 PubChem-110093729
     RDKit          3D

 32 35  0  0  0  0  0  0  0  0999 V2000
   15.6719   30.9036   10.7025 C   0  0  0  0  0  0  0  0  0  0  0  0
   15.8606   32.4048   10.7522 C   0  0  0  0  0  0  0  0  0  0  0  0
   14.5207   33.0526   10.4036 C   0  0  0  0  0  0  0  0  0  0  0  0
   14.4069   34.4768   10.8628 C   0  0  0  0  0  0  0  0  0  0  0  0
   15.2374   34.9859   11.7806 C   0  0  0  0  0  0  0  0  0  0  0  0
   16.3945   34.2194   12.3595 C   0  0  0  0  0  0  0  0  0  0  0  0
   17.6985   34.7747   11.8132 C   0  0  0  0  0  0  0  0  0  0  0  0
   16.3951   34.4433   13.8570 C   0  0  0  0  0  0  0  0  0  0  0  0
   13.2603   35.2978   10.3661 C   0  0  0  0  0  0  0  0  0  0  0  0
   13.7394   36.3927    9.4647 C   0  0  0  0  0  0  0  0  0  0  0  0
   13.6819   38.0521   11.3619 C   0  0  0  0  0  0  0  0  0  0  0  0
   12.8851   39.3484   11.4689 C   0  0  0  0  0  0  0  0  0  0  0  0
   13.5855   40.4595   10.6928 C   0  0  0  0  0  0  0  0  0  0  0  0
   13.7414   40.0590    9.2252 C   0  0  2  0  0  0  0  0  0  0  0  0
   14.5227   38.7504    9.1028 C   0  0  0  0  0  0  0  0  0  0  0  0
   14.3952   41.1485    8.4366 C   0  0  0  0  0  0  0  0  0  0  0  0
   14.2492   42.7214    6.6520 C   0  0  0  0  0  0  0  0  0  0  0  0
   15.5463   43.1735    6.9302 C   0  0  0  0  0  0  0  0  0  0  0  0
   16.2676   42.5989    7.9768 C   0  0  0  0  0  0  0  0  0  0  0  0
   15.6940   41.5807    8.7372 C   0  0  0  0  0  0  0  0  0  0  0  0
   13.8420   44.3229    4.6807 C   0  0  0  0  0  0  0  0  0  0  0  0
   15.4136   45.9134    3.8881 C   0  0  0  0  0  0  0  0  0  0  0  0
   14.5067   46.3235    2.9099 C   0  0  0  0  0  0  0  0  0  0  0  0
   12.9372   44.7361    3.7004 C   0  0  0  0  0  0  0  0  0  0  0  0
   16.9059   32.7691    9.7083 C   0  0  0  0  0  0  0  0  0  0  0  0
   16.3023   32.7694   12.1090 N   0  0  0  0  0  0  0  0  0  0  0  0
   13.9185   37.7296    9.9558 N   0  0  0  0  0  0  0  0  0  0  0  0
   13.7135   41.7260    7.4102 N   0  0  0  0  0  0  0  0  0  0  0  0
   13.4648   43.2781    5.5874 N   0  0  0  0  0  0  0  0  0  0  0  0
   15.0620   44.9237    4.7506 N   0  0  0  0  0  0  0  0  0  0  0  0
   13.2884   45.7259    2.8374 N   0  0  0  0  0  0  0  0  0  0  0  0
   14.0011   36.1199    8.2621 O   0  0  0  0  0  0  0  0  0  0  0  0
  1  2  1  0
  2  3  1  0
  2 25  1  0
  2 26  1  0
  3  4  1  0
  6  5  1  0
  6 26  1  0
  6  7  1  0
  6  8  1  0
  9  4  1  0
  9 10  1  0
 10 27  1  0
 11 27  1  0
 11 12  1  0
 12 13  1  0
 13 14  1  0
 14 15  1  0
 14 16  1  6
 15 27  1  0
 17 28  2  0
 17 29  1  0
 18 19  2  0
 20 16  2  0
 22 30  2  0
 23 31  2  0
 24 21  2  0
 29 21  1  0
  4  5  2  0
 10 32  2  0
 16 28  1  0
 17 18  1  0
 19 20  1  0
 21 30  1  0
 22 23  1  0
 24 31  1  0
M  END
>  <rmsd>  (304) 
0.245734811

$$$$
MolPort-020-293-027 CHEMBL3449890 MCULE-2698566815 PubChem-110265494
     RDKit          3D

 25 28  0  0  0  0  0  0  0  0999 V2000
   13.8436   44.3225    4.6740 C   0  0  0  0  0  0  0  0  0  0  0  0
   14.2382   42.7274    6.6541 C   0  0  0  0  0  0  0  0  0  0  0  0
   14.3711   41.1603    8.4449 C   0  0  0  0  0  0  0  0  0  0  0  0
   13.7114   40.0732    9.2322 C   0  0  1  0  0  0  0  0  0  0  0  0
   14.5002   38.7665    9.1315 C   0  0  0  0  0  0  0  0  0  0  0  0
   14.5511   36.4468    9.7312 C   0  0  0  0  0  0  0  0  0  0  0  0
   15.9971   36.5105   10.2258 C   0  0  0  0  0  0  0  0  0  0  0  0
   16.6896   35.2058    9.8910 C   0  0  0  0  0  0  0  0  0  0  0  0
   16.1994   35.4603   11.2990 C   0  0  0  0  0  0  0  0  0  0  0  0
   13.7697   38.0729   11.3101 C   0  0  0  0  0  0  0  0  0  0  0  0
   12.9313   39.3348   11.4951 C   0  0  0  0  0  0  0  0  0  0  0  0
   13.5457   40.4793   10.6965 C   0  0  0  0  0  0  0  0  0  0  0  0
   15.6674   41.5941    8.7540 C   0  0  0  0  0  0  0  0  0  0  0  0
   16.2465   42.6100    7.9947 C   0  0  0  0  0  0  0  0  0  0  0  0
   15.5329   43.1809    6.9409 C   0  0  0  0  0  0  0  0  0  0  0  0
   13.2870   45.7014    2.8325 C   0  0  0  0  0  0  0  0  0  0  0  0
   14.5321   46.3230    2.9048 C   0  0  0  0  0  0  0  0  0  0  0  0
   15.4208   45.9077    3.8943 C   0  0  0  0  0  0  0  0  0  0  0  0
   16.7589   46.5440    4.0067 C   0  0  0  0  0  0  0  0  0  0  0  0
   12.3097   46.1142    1.7920 C   0  0  0  0  0  0  0  0  0  0  0  0
   13.4616   43.2801    5.5818 N   0  0  0  0  0  0  0  0  0  0  0  0
   13.6970   41.7343    7.4115 N   0  0  0  0  0  0  0  0  0  0  0  0
   13.8240   37.7104    9.8906 N   0  0  0  0  0  0  0  0  0  0  0  0
   12.9665   44.7177    3.7133 N   0  0  0  0  0  0  0  0  0  0  0  0
   15.0636   44.9208    4.7567 N   0  0  0  0  0  0  0  0  0  0  0  0
  1 21  1  0
  1 25  2  0
  3 22  2  0
  4  3  1  6
  4  5  1  0
  5 23  1  0
  6 23  1  0
  6  7  1  0
  7  8  1  0
  8  9  1  0
  9  7  1  0
 10 23  1  0
 10 11  1  0
 11 12  1  0
 12  4  1  0
 13 14  2  0
 15  2  2  0
 16 24  2  0
 17 18  2  0
 19 18  1  0
 20 16  1  0
 21  2  1  0
  1 24  1  0
  2 22  1  0
  3 13  1  0
 14 15  1  0
 16 17  1  0
 18 25  1  0
M  END
>  <rmsd>  (305) 
0.245712608

$$$$
Molport-020-292-445 MCULE-7249541953 PubChem-110264913
     RDKit          3D

 30 33  0  0  0  0  0  0  0  0999 V2000
   11.6167   44.1430    3.4958 C   0  0  0  0  0  0  0  0  0  0  0  0
   12.9665   44.7541    3.6555 C   0  0  0  0  0  0  0  0  0  0  0  0
   13.8489   44.3294    4.6629 C   0  0  0  0  0  0  0  0  0  0  0  0
   15.4730   45.9100    3.9290 C   0  0  0  0  0  0  0  0  0  0  0  0
   14.6211   46.3551    2.9179 C   0  0  0  0  0  0  0  0  0  0  0  0
   13.3617   45.7709    2.7842 C   0  0  0  0  0  0  0  0  0  0  0  0
   14.2128   42.7249    6.6443 C   0  0  0  0  0  0  0  0  0  0  0  0
   13.6421   41.7055    7.4102 C   0  0  0  0  0  0  0  0  0  0  0  0
   14.3640   41.1454    8.4674 C   0  0  0  0  0  0  0  0  0  0  0  0
   16.1985   42.5860    8.0161 C   0  0  0  0  0  0  0  0  0  0  0  0
   15.5053   43.1677    6.9532 C   0  0  0  0  0  0  0  0  0  0  0  0
   17.5699   43.0498    8.3502 C   0  0  0  0  0  0  0  0  0  0  0  0
   13.7481   40.0558    9.2807 C   0  0  2  0  0  0  0  0  0  0  0  0
   13.6156   40.4813   10.7365 C   0  0  0  0  0  0  0  0  0  0  0  0
   13.0040   39.3460   11.5406 C   0  0  0  0  0  0  0  0  0  0  0  0
   13.8631   38.0868   11.3930 C   0  0  0  0  0  0  0  0  0  0  0  0
   14.5793   38.7703    9.1782 C   0  0  0  0  0  0  0  0  0  0  0  0
   12.7465   37.2459    9.4305 C   0  0  0  0  0  0  0  0  0  0  0  0
   12.5160   35.7949    9.7148 C   0  0  0  0  0  0  0  0  0  0  0  0
   11.2296   33.9438   10.8161 C   0  0  0  0  0  0  0  0  0  0  0  0
   10.0226   33.7088   11.7216 C   0  0  0  0  0  0  0  0  0  0  0  0
    8.8115   34.4584   11.1720 C   0  0  0  0  0  0  0  0  0  0  0  0
    9.0688   35.9622   10.9873 C   0  0  0  0  0  0  0  0  0  0  0  0
   10.5371   36.3614   11.1592 C   0  0  0  0  0  0  0  0  0  0  0  0
   15.0734   44.9187    4.7696 N   0  0  0  0  0  0  0  0  0  0  0  0
   13.4514   43.2836    5.5644 N   0  0  0  0  0  0  0  0  0  0  0  0
   15.6197   41.5954    8.7455 N   0  0  0  0  0  0  0  0  0  0  0  0
   14.0267   37.6763    9.9891 N   0  0  0  0  0  0  0  0  0  0  0  0
   11.4176   35.3712   10.5365 N   0  0  0  0  0  0  0  0  0  0  0  0
   13.2974   34.9428    9.2121 O   0  0  0  0  0  0  0  0  0  0  0  0
  1  2  1  0
  3 25  2  0
  3 26  1  0
  4  5  2  0
  6  2  2  0
  8  9  2  0
 10 27  2  0
 11  7  2  0
 12 10  1  0
 13  9  1  6
 13 14  1  0
 14 15  1  0
 15 16  1  0
 16 28  1  0
 17 28  1  0
 17 13  1  0
 18 28  1  0
 18 19  1  0
 19 29  1  0
 20 29  1  0
 20 21  1  0
 21 22  1  0
 22 23  1  0
 23 24  1  0
 24 29  1  0
 26  7  1  0
  2  3  1  0
  4 25  1  0
  5  6  1  0
  7  8  1  0
  9 27  1  0
 10 11  1  0
 19 30  2  0
M  END
>  <rmsd>  (306) 
0.245702997

$$$$
MolPort-047-017-569 Molport-047-017-570 257224536 MCULE-3685565728 MCULE-4369250661 PubChem-110111171 ZINC000257224536
     RDKit          3D

 22 24  0  0  0  0  0  0  0  0999 V2000
   13.0668   37.3347   14.4197 C   0  0  0  0  0  0  0  0  0  0  0  0
   13.7576   38.0681   12.3066 C   0  0  1  0  0  0  0  0  0  0  0  0
   12.5526   38.1214   11.3628 C   0  0  0  0  0  0  0  0  0  0  0  0
   12.1157   39.5638   11.0930 C   0  0  0  0  0  0  0  0  0  0  0  0
   13.2675   40.4100   10.5471 C   0  0  2  0  0  0  0  0  0  0  0  0
   13.6276   39.9881    9.1236 C   0  0  0  0  0  0  0  0  0  0  0  0
   14.2949   41.0943    8.3748 C   0  0  0  0  0  0  0  0  0  0  0  0
   15.5963   41.4908    8.6983 C   0  0  0  0  0  0  0  0  0  0  0  0
   16.1993   42.5132    7.9664 C   0  0  0  0  0  0  0  0  0  0  0  0
   15.5036   43.1217    6.9216 C   0  0  0  0  0  0  0  0  0  0  0  0
   14.2035   42.6973    6.6148 C   0  0  0  0  0  0  0  0  0  0  0  0
   13.8520   44.3431    4.6685 C   0  0  0  0  0  0  0  0  0  0  0  0
   12.9643   44.7814    3.6820 C   0  0  0  0  0  0  0  0  0  0  0  0
   13.3485   45.8100    2.8199 C   0  0  0  0  0  0  0  0  0  0  0  0
   14.6109   46.3904    2.9494 C   0  0  0  0  0  0  0  0  0  0  0  0
   15.4728   45.9287    3.9458 C   0  0  0  0  0  0  0  0  0  0  0  0
   14.4741   40.3511   11.4904 C   0  0  0  0  0  0  0  0  0  0  0  0
   14.9111   38.9088   11.7574 C   0  0  0  0  0  0  0  0  0  0  0  0
   13.3897   38.5182   13.6417 N   0  0  0  0  0  0  0  0  0  0  0  0
   13.4456   43.2860    5.5482 N   0  0  0  0  0  0  0  0  0  0  0  0
   15.0797   44.9253    4.7759 N   0  0  0  0  0  0  0  0  0  0  0  0
   13.6398   41.6967    7.3456 N   0  0  0  0  0  0  0  0  0  0  0  0
  1 19  1  0
  2 19  1  1
  2  3  1  0
  3  4  1  0
  4  5  1  0
  5  6  1  6
  5 17  1  0
  6  7  1  0
  7 22  2  0
  8  9  2  0
 10 11  2  0
 11 20  1  0
 12 21  2  0
 13 14  2  0
 15 16  2  0
 17 18  1  0
 18  2  1  0
 20 12  1  0
  7  8  1  0
  9 10  1  0
 11 22  1  0
 12 13  1  0
 14 15  1  0
 16 21  1  0
M  END
>  <rmsd>  (307) 
0.245685354

$$$$
MolPort-020-186-520 72122310 CSSS00159808843 MCULE-9656903396 PubChem-56882414 ZINC000072122310 ZINC72122310
     RDKit          3D

 24 26  0  0  0  0  0  0  0  0999 V2000
   12.9308   44.9319    3.7001 C   0  0  0  0  0  0  0  0  0  0  0  0
   13.8875   44.3946    4.7020 C   0  0  0  0  0  0  0  0  0  0  0  0
   14.2716   42.6716    6.5600 C   0  0  0  0  0  0  0  0  0  0  0  0
   15.5900   43.0640    6.8326 C   0  0  0  0  0  0  0  0  0  0  0  0
   16.3274   42.4186    7.8288 C   0  0  0  0  0  0  0  0  0  0  0  0
   15.7577   41.3765    8.5729 C   0  0  0  0  0  0  0  0  0  0  0  0
   14.4443   40.9781    8.2876 C   0  0  0  0  0  0  0  0  0  0  0  0
   13.7064   41.6233    7.2920 C   0  0  0  0  0  0  0  0  0  0  0  0
   16.5659   40.6927    9.6079 C   0  0  0  0  0  0  0  0  0  0  0  0
   18.2876   39.9651   10.6532 C   0  0  0  0  0  0  0  0  0  0  0  0
   17.1613   39.4428   11.2611 C   0  0  0  0  0  0  0  0  0  0  0  0
   14.7272   39.6466   10.9751 C   0  0  0  0  0  0  0  0  0  0  0  0
   13.8751   40.6817   11.4188 C   0  0  0  0  0  0  0  0  0  0  0  0
   14.3559   42.0904   11.5447 C   0  0  0  0  0  0  0  0  0  0  0  0
   15.0504   42.2899   12.8780 C   0  0  0  0  0  0  0  0  0  0  0  0
   12.5612   40.3842   11.7975 C   0  0  0  0  0  0  0  0  0  0  0  0
   12.0903   39.0704   11.7403 C   0  0  0  0  0  0  0  0  0  0  0  0
   12.9347   38.0434   11.3139 C   0  0  0  0  0  0  0  0  0  0  0  0
   14.2492   38.3299   10.9384 C   0  0  0  0  0  0  0  0  0  0  0  0
   15.0368   44.9014    4.7914 O   0  0  0  0  0  0  0  0  0  0  0  0
   15.5137   43.6011   12.9679 O   0  0  0  0  0  0  0  0  0  0  0  0
   13.4826   43.3103    5.5470 N   0  0  0  0  0  0  0  0  0  0  0  0
   17.9122   40.7485    9.6206 N   0  0  0  0  0  0  0  0  0  0  0  0
   16.0872   39.9090   10.6010 N   0  0  0  0  0  0  0  0  0  0  0  0
  1  2  1  0
  2 22  1  0
  4  5  2  0
  6  7  2  0
  6  9  1  0
  8  3  2  0
 10 23  1  0
 11 24  1  0
 13 16  2  0
 14 13  1  0
 14 15  1  0
 15 21  1  0
 17 18  2  0
 19 12  2  0
 22  3  1  0
 24 12  1  0
 24  9  1  0
  2 20  2  0
  3  4  1  0
  5  6  1  0
  7  8  1  0
  9 23  2  0
 10 11  2  0
 12 13  1  0
 16 17  1  0
 18 19  1  0
M  END
>  <rmsd>  (308) 
0.245602325

$$$$
MolPort-046-956-540 MCULE-3347978788 PubChem-132765396
     RDKit          3D

 26 29  0  0  0  0  0  0  0  0999 V2000
   13.8837   44.3229    4.6900 C   0  0  0  0  0  0  0  0  0  0  0  0
   14.1528   46.0603    2.9588 C   0  0  0  0  0  0  0  0  0  0  0  0
   15.2333   45.8801    3.8221 C   0  0  0  0  0  0  0  0  0  0  0  0
   16.4776   46.6850    3.7108 C   0  0  0  0  0  0  0  0  0  0  0  0
   14.1880   42.7125    6.6357 C   0  0  0  0  0  0  0  0  0  0  0  0
   13.6226   41.6925    7.4000 C   0  0  0  0  0  0  0  0  0  0  0  0
   14.3662   41.1520    8.4489 C   0  0  0  0  0  0  0  0  0  0  0  0
   13.7804   40.0576    9.2780 C   0  0  2  0  0  0  0  0  0  0  0  0
   13.6666   40.4889   10.7417 C   0  0  0  0  0  0  0  0  0  0  0  0
   13.0648   39.3648   11.5823 C   0  0  0  0  0  0  0  0  0  0  0  0
   13.9221   38.1085   11.4628 C   0  0  0  0  0  0  0  0  0  0  0  0
   13.6977   36.4651    9.5677 C   0  0  0  0  0  0  0  0  0  0  0  0
   13.8359   36.1378    8.2132 C   0  0  0  0  0  0  0  0  0  0  0  0
   13.4478   34.8686    7.7880 C   0  0  0  0  0  0  0  0  0  0  0  0
   12.8172   34.3051    9.9928 C   0  0  0  0  0  0  0  0  0  0  0  0
   14.6182   38.7849    9.1570 C   0  0  0  0  0  0  0  0  0  0  0  0
   16.1539   42.6182    7.9514 C   0  0  0  0  0  0  0  0  0  0  0  0
   17.5211   43.1189    8.2478 C   0  0  0  0  0  0  0  0  0  0  0  0
   12.9722   44.9556    3.4369 S   0  0  0  0  0  0  0  0  0  0  0  0
   15.0879   44.9230    4.7774 N   0  0  0  0  0  0  0  0  0  0  0  0
   13.4351   43.2758    5.5563 N   0  0  0  0  0  0  0  0  0  0  0  0
   14.0830   37.7617   10.0530 N   0  0  0  0  0  0  0  0  0  0  0  0
   12.9468   33.9769    8.6813 N   0  0  0  0  0  0  0  0  0  0  0  0
   13.1901   35.5377   10.4265 N   0  0  0  0  0  0  0  0  0  0  0  0
   15.6169   41.6238    8.7049 N   0  0  0  0  0  0  0  0  0  0  0  0
   15.4419   43.1549    6.9266 N   0  0  0  0  0  0  0  0  0  0  0  0
  1 19  1  0
  1 21  1  0
  2 19  1  0
  3 20  1  0
  4  3  1  0
  5 26  2  0
  6  7  2  0
  8  7  1  6
  8  9  1  0
  9 10  1  0
 10 11  1  0
 11 22  1  0
 12 24  2  0
 13 14  2  0
 15 23  2  0
 16 22  1  0
 16  8  1  0
 17 25  2  0
 18 17  1  0
 21  5  1  0
 22 12  1  0
  1 20  2  0
  2  3  2  0
  5  6  1  0
  7 25  1  0
 12 13  1  0
 14 23  1  0
 15 24  1  0
 17 26  1  0
M  END
>  <rmsd>  (309) 
0.245592058

$$$$
MolPort-021-802-572 169969321 LN00200517 MCULE-6928555385 PubChem-53398548 ZINC000169969321
     RDKit          3D

 24 25  0  0  0  0  0  0  0  0999 V2000
   13.6496   46.8204    2.9225 C   0  0  0  0  0  0  0  0  0  0  0  0
   13.5589   45.4029    2.3841 C   0  0  0  0  0  0  0  0  0  0  0  0
   12.4861   45.3642    1.3166 C   0  0  0  0  0  0  0  0  0  0  0  0
   14.8817   45.0078    1.7504 C   0  0  0  0  0  0  0  0  0  0  0  0
   13.9681   44.2544    4.5745 C   0  0  0  0  0  0  0  0  0  0  0  0
   14.2493   42.7722    6.6289 C   0  0  0  0  0  0  0  0  0  0  0  0
   15.6107   42.4358    6.5022 C   0  0  0  0  0  0  0  0  0  0  0  0
   15.6609   41.6518    8.7459 C   0  0  0  0  0  0  0  0  0  0  0  0
   14.3054   41.9451    8.9056 C   0  0  0  0  0  0  0  0  0  0  0  0
   13.6016   42.5010    7.8359 C   0  0  0  0  0  0  0  0  0  0  0  0
   11.9207   40.2318   10.5845 C   0  0  0  0  0  0  0  0  0  0  0  0
   10.7448   40.1540   11.5541 C   0  0  0  0  0  0  0  0  0  0  0  0
   11.4739   39.5158    9.3079 C   0  0  0  0  0  0  0  0  0  0  0  0
   13.2728   39.6682   11.1903 C   0  0  0  0  0  0  0  0  0  0  0  0
   13.1314   39.1740   12.6272 C   0  0  0  0  0  0  0  0  0  0  0  0
   13.8660   38.5059   10.3914 C   0  0  0  0  0  0  0  0  0  0  0  0
   13.2031   44.4885    3.4239 O   0  0  0  0  0  0  0  0  0  0  0  0
   15.0403   44.8885    4.7742 O   0  0  0  0  0  0  0  0  0  0  0  0
   12.1323   41.5857   10.2844 O   0  0  0  0  0  0  0  0  0  0  0  0
   14.1984   40.7228   11.1962 O   0  0  0  0  0  0  0  0  0  0  0  0
   13.4863   43.3220    5.5471 N   0  0  0  0  0  0  0  0  0  0  0  0
   16.2761   41.8944    7.5582 N   0  0  0  0  0  0  0  0  0  0  0  0
   16.2626   42.5848    5.3230 F   0  0  0  0  0  0  0  0  0  0  0  0
   13.5840   41.6539   10.2649 B   0  0  0  0  0  0  0  0  0  0  0  0
  1  2  1  0
  2  3  1  0
  2  4  1  0
  2 17  1  0
  5 17  1  0
  5 21  1  0
  7 23  1  0
  7 22  2  0
  8  9  2  0
  9 24  1  0
 10  6  2  0
 11 19  1  0
 11 12  1  0
 11 13  1  0
 11 14  1  0
 14 15  1  0
 14 16  1  0
 14 20  1  0
 21  6  1  0
 24 19  1  0
 24 20  1  0
  5 18  2  0
  6  7  1  0
  8 22  1  0
  9 10  1  0
M  END
>  <rmsd>  (310) 
0.245585889

$$$$
Molport-047-017-564 585263107 MCULE-7410489732 MCULE-9561477741 PubChem-129569951 ZINC000585263107
     RDKit          3D

 22 24  0  0  0  0  0  0  0  0999 V2000
   15.1191   35.9478   12.3145 C   0  0  0  0  0  0  0  0  0  0  0  0
   13.8882   37.8552   11.7584 C   0  0  1  0  0  0  0  0  0  0  0  0
   12.4433   38.0913   11.3005 C   0  0  0  0  0  0  0  0  0  0  0  0
   12.1038   39.5719   11.0681 C   0  0  0  0  0  0  0  0  0  0  0  0
   13.2986   40.3800   10.5506 C   0  0  2  0  0  0  0  0  0  0  0  0
   13.6449   39.9649    9.1240 C   0  0  0  0  0  0  0  0  0  0  0  0
   14.3092   41.0729    8.3753 C   0  0  0  0  0  0  0  0  0  0  0  0
   15.6132   41.4667    8.6921 C   0  0  0  0  0  0  0  0  0  0  0  0
   16.2130   42.4911    7.9605 C   0  0  0  0  0  0  0  0  0  0  0  0
   15.5118   43.1048    6.9223 C   0  0  0  0  0  0  0  0  0  0  0  0
   14.2092   42.6829    6.6226 C   0  0  0  0  0  0  0  0  0  0  0  0
   13.8705   44.3373    4.6962 C   0  0  0  0  0  0  0  0  0  0  0  0
   15.2129   45.9121    3.8182 C   0  0  0  0  0  0  0  0  0  0  0  0
   14.0949   46.0702    3.0105 C   0  0  0  0  0  0  0  0  0  0  0  0
   13.9658   47.0548    1.9052 C   0  0  0  0  0  0  0  0  0  0  0  0
   14.5264   40.2676   11.4735 C   0  0  0  0  0  0  0  0  0  0  0  0
   14.4661   39.0875   12.4482 C   0  0  0  0  0  0  0  0  0  0  0  0
   13.9333   36.7142   12.6562 N   0  0  0  0  0  0  0  0  0  0  0  0
   13.4480   43.2781    5.5634 N   0  0  0  0  0  0  0  0  0  0  0  0
   15.0793   44.9398    4.7595 N   0  0  0  0  0  0  0  0  0  0  0  0
   13.6482   41.6803    7.3526 N   0  0  0  0  0  0  0  0  0  0  0  0
   12.9078   44.9748    3.4759 S   0  0  0  0  0  0  0  0  0  0  0  0
  1 18  1  0
  2 18  1  1
  2  3  1  0
  3  4  1  0
  4  5  1  0
  5  6  1  6
  5 16  1  0
  6  7  1  0
  7 21  2  0
  8  9  2  0
 10 11  2  0
 11 19  1  0
 12 22  1  0
 13 20  1  0
 14 22  1  0
 15 14  1  0
 16 17  1  0
 17  2  1  0
 19 12  1  0
  7  8  1  0
  9 10  1  0
 11 21  1  0
 12 20  2  0
 13 14  2  0
M  END
>  <rmsd>  (311) 
0.24558042

$$$$
MolPort-020-275-241 MCULE-5892033950 PubChem-110252918
     RDKit          3D

 26 28  0  0  0  0  0  0  0  0999 V2000
   16.7938   46.5262    4.0370 C   0  0  0  0  0  0  0  0  0  0  0  0
   15.4528   45.9011    3.8992 C   0  0  0  0  0  0  0  0  0  0  0  0
   13.8491   44.3188    4.6676 C   0  0  0  0  0  0  0  0  0  0  0  0
   12.9566   44.7189    3.6690 C   0  0  0  0  0  0  0  0  0  0  0  0
   13.3301   45.7265    2.7773 C   0  0  0  0  0  0  0  0  0  0  0  0
   14.5861   46.3244    2.8899 C   0  0  0  0  0  0  0  0  0  0  0  0
   14.2203   42.7454    6.6670 C   0  0  0  0  0  0  0  0  0  0  0  0
   14.3610   41.2003    8.4651 C   0  0  0  0  0  0  0  0  0  0  0  0
   15.6414   41.6763    8.7734 C   0  0  0  0  0  0  0  0  0  0  0  0
   15.4993   43.2195    6.9850 C   0  0  0  0  0  0  0  0  0  0  0  0
   13.7331   40.0905    9.2464 C   0  0  2  0  0  0  0  0  0  0  0  0
   13.6250   40.4451   10.7322 C   0  0  0  0  0  0  0  0  0  0  0  0
   12.9681   39.3032   11.5061 C   0  0  0  0  0  0  0  0  0  0  0  0
   13.7656   38.0156   11.3179 C   0  0  0  0  0  0  0  0  0  0  0  0
   14.5103   38.7881    9.0578 C   0  0  0  0  0  0  0  0  0  0  0  0
   13.4667   36.5071    9.3252 C   0  0  0  0  0  0  0  0  0  0  0  0
   13.5183   36.2728    7.8491 C   0  0  0  0  0  0  0  0  0  0  0  0
   12.2561   37.8382    6.6532 C   0  0  0  0  0  0  0  0  0  0  0  0
   12.0618   35.5700    6.1728 C   0  0  0  0  0  0  0  0  0  0  0  0
   15.0703   44.9174    4.7574 N   0  0  0  0  0  0  0  0  0  0  0  0
   13.4568   43.2814    5.5769 N   0  0  0  0  0  0  0  0  0  0  0  0
   13.6865   41.7455    7.4182 N   0  0  0  0  0  0  0  0  0  0  0  0
   16.1797   42.6757    8.0277 N   0  0  0  0  0  0  0  0  0  0  0  0
   13.9204   37.7452    9.8914 N   0  0  0  0  0  0  0  0  0  0  0  0
   12.2123   36.5189    7.2599 N   0  0  0  0  0  0  0  0  0  0  0  0
   12.9913   35.6074   10.0685 O   0  0  0  0  0  0  0  0  0  0  0  0
  1  2  1  0
  3 20  2  0
  3 21  1  0
  4  5  2  0
  6  2  2  0
  8 22  2  0
  9 23  2  0
 10  7  2  0
 11  8  1  6
 11 12  1  0
 12 13  1  0
 13 14  1  0
 14 24  1  0
 15 24  1  0
 15 11  1  0
 17 16  1  0
 17 25  1  0
 18 25  1  0
 19 25  1  0
 21  7  1  0
 24 16  1  0
  2 20  1  0
  3  4  1  0
  5  6  1  0
  7 22  1  0
  8  9  1  0
 10 23  1  0
 16 26  2  0
M  END
>  <rmsd>  (312) 
0.245518237

$$$$
MolPort-020-278-623 MCULE-9206712680 PubChem-110255495
     RDKit          3D

 27 30  0  0  0  0  0  0  0  0999 V2000
   17.5525   43.0521    8.3796 C   0  0  0  0  0  0  0  0  0  0  0  0
   16.1816   42.5970    8.0306 C   0  0  0  0  0  0  0  0  0  0  0  0
   15.5024   43.1803    6.9624 C   0  0  0  0  0  0  0  0  0  0  0  0
   14.2146   42.7278    6.6557 C   0  0  0  0  0  0  0  0  0  0  0  0
   14.3385   41.1764    8.4442 C   0  0  0  0  0  0  0  0  0  0  0  0
   13.6988   40.0851    9.2358 C   0  0  2  0  0  0  0  0  0  0  0  0
   13.5029   40.5221   10.6906 C   0  0  0  0  0  0  0  0  0  0  0  0
   13.0768   39.3451   11.5712 C   0  0  0  0  0  0  0  0  0  0  0  0
   13.8784   38.0675   11.2772 C   0  0  0  0  0  0  0  0  0  0  0  0
   14.5085   38.7832    9.1104 C   0  0  0  0  0  0  0  0  0  0  0  0
   15.7004   37.0735   10.1780 C   0  0  0  0  0  0  0  0  0  0  0  0
   16.8937   36.9603   11.0658 C   0  0  0  0  0  0  0  0  0  0  0  0
   17.9742   37.8381   10.9274 C   0  0  0  0  0  0  0  0  0  0  0  0
   19.1281   36.7518   12.6971 C   0  0  0  0  0  0  0  0  0  0  0  0
   18.0715   35.8524   12.8623 C   0  0  0  0  0  0  0  0  0  0  0  0
   16.9491   35.9598   12.0385 C   0  0  0  0  0  0  0  0  0  0  0  0
   13.8485   44.3254    4.6719 C   0  0  0  0  0  0  0  0  0  0  0  0
   12.9536   44.7406    3.6821 C   0  0  0  0  0  0  0  0  0  0  0  0
   13.3256   45.7595    2.8028 C   0  0  0  0  0  0  0  0  0  0  0  0
   14.5840   46.3521    2.9178 C   0  0  0  0  0  0  0  0  0  0  0  0
   15.4540   45.9124    3.9172 C   0  0  0  0  0  0  0  0  0  0  0  0
   13.6640   41.7356    7.4046 N   0  0  0  0  0  0  0  0  0  0  0  0
   15.5920   41.6086    8.7505 N   0  0  0  0  0  0  0  0  0  0  0  0
   15.0225   38.3392   10.4060 N   0  0  0  0  0  0  0  0  0  0  0  0
   19.0588   37.7175   11.7406 N   0  0  0  0  0  0  0  0  0  0  0  0
   13.4534   43.2807    5.5716 N   0  0  0  0  0  0  0  0  0  0  0  0
   15.0718   44.9193    4.7648 N   0  0  0  0  0  0  0  0  0  0  0  0
  1  2  1  0
  2 23  2  0
  3  4  2  0
  4 26  1  0
  5 22  2  0
  6  5  1  6
  6  7  1  0
  7  8  1  0
  8  9  1  0
  9 24  1  0
 10 24  1  0
 10  6  1  0
 11 24  1  0
 11 12  1  0
 13 25  2  0
 14 15  2  0
 16 12  2  0
 17 27  2  0
 18 19  2  0
 20 21  2  0
 26 17  1  0
  2  3  1  0
  4 22  1  0
  5 23  1  0
 12 13  1  0
 14 25  1  0
 15 16  1  0
 17 18  1  0
 19 20  1  0
 21 27  1  0
M  END
>  <rmsd>  (313) 
0.24551709

$$$$
MolPort-051-779-407 MCULE-4415854814 PubChem-165756065
     RDKit          3D

 31 34  0  0  0  0  0  0  0  0999 V2000
   13.5019   39.9858   12.2662 C   0  0  0  0  0  0  0  0  0  0  0  0
   13.4050   39.2657   10.9324 C   0  0  0  0  0  0  0  0  0  0  0  0
   14.4242   38.1406   10.8796 C   0  0  0  0  0  0  0  0  0  0  0  0
   12.0210   38.6640   10.8126 C   0  0  0  0  0  0  0  0  0  0  0  0
   14.7721   40.9223    9.6370 C   0  0  0  0  0  0  0  0  0  0  0  0
   14.8413   41.8277    8.4772 C   0  0  0  0  0  0  0  0  0  0  0  0
   14.2807   42.8673    6.7191 C   0  0  0  0  0  0  0  0  0  0  0  0
   15.5658   43.2681    7.0342 C   0  0  0  0  0  0  0  0  0  0  0  0
   17.1763   42.7172    8.8368 C   0  0  0  0  0  0  0  0  0  0  0  0
   13.9294   44.2730    4.6253 C   0  0  0  0  0  0  0  0  0  0  0  0
   13.5006   45.3726    2.4523 C   0  0  0  0  0  0  0  0  0  0  0  0
   14.0397   44.5457    1.2788 C   0  0  0  0  0  0  0  0  0  0  0  0
   15.2610   43.7535    1.6623 C   0  0  0  0  0  0  0  0  0  0  0  0
   16.5065   44.2410    2.0624 C   0  0  0  0  0  0  0  0  0  0  0  0
   17.5188   43.3169    2.3696 C   0  0  0  0  0  0  0  0  0  0  0  0
   17.2793   41.9327    2.2655 C   0  0  0  0  0  0  0  0  0  0  0  0
   16.0265   41.4561    1.8479 C   0  0  0  0  0  0  0  0  0  0  0  0
   15.0378   42.3928    1.5511 C   0  0  0  0  0  0  0  0  0  0  0  0
   13.6874   42.1912    1.0806 C   0  0  0  0  0  0  0  0  0  0  0  0
   13.0092   41.0060    0.8009 C   0  0  0  0  0  0  0  0  0  0  0  0
   11.6889   41.0991    0.3330 C   0  0  0  0  0  0  0  0  0  0  0  0
   11.0816   42.3574    0.1526 C   0  0  0  0  0  0  0  0  0  0  0  0
   11.7870   43.5379    0.4397 C   0  0  0  0  0  0  0  0  0  0  0  0
   13.0971   43.4306    0.9093 C   0  0  0  0  0  0  0  0  0  0  0  0
   13.6023   40.1780    9.8495 O   0  0  0  0  0  0  0  0  0  0  0  0
   15.7504   40.8189   10.4259 O   0  0  0  0  0  0  0  0  0  0  0  0
   15.0310   44.8748    4.7496 O   0  0  0  0  0  0  0  0  0  0  0  0
   13.0958   44.5443    3.5396 O   0  0  0  0  0  0  0  0  0  0  0  0
   13.8187   41.9679    7.6098 N   0  0  0  0  0  0  0  0  0  0  0  0
   15.9008   42.6004    8.1496 N   0  0  0  0  0  0  0  0  0  0  0  0
   13.5094   43.3086    5.5961 N   0  0  0  0  0  0  0  0  0  0  0  0
  1  2  1  0
  2  3  1  0
  2  4  1  0
  2 25  1  0
  5 25  1  0
  5  6  1  0
  7 29  1  0
  7 31  1  0
  8 30  1  0
  9 30  1  0
 10 28  1  0
 11 28  1  0
 11 12  1  0
 12 13  1  0
 12 24  1  0
 14 15  2  0
 16 17  2  0
 18 19  1  0
 18 13  2  0
 20 21  2  0
 22 23  2  0
 24 19  2  0
 30  6  1  0
 31 10  1  0
  5 26  2  0
  6 29  2  0
  7  8  2  0
 10 27  2  0
 13 14  1  0
 15 16  1  0
 17 18  1  0
 19 20  1  0
 21 22  1  0
 23 24  1  0
M  END
>  <rmsd>  (314) 
0.245489255

$$$$
MolPort-020-292-476 MCULE-4874534686 PubChem-110264944
     RDKit          3D

 27 29  0  0  0  0  0  0  0  0999 V2000
   11.6170   44.1360    3.4941 C   0  0  0  0  0  0  0  0  0  0  0  0
   12.9660   44.7492    3.6532 C   0  0  0  0  0  0  0  0  0  0  0  0
   13.8486   44.3275    4.6617 C   0  0  0  0  0  0  0  0  0  0  0  0
   15.4709   45.9089    3.9254 C   0  0  0  0  0  0  0  0  0  0  0  0
   14.6188   46.3510    2.9132 C   0  0  0  0  0  0  0  0  0  0  0  0
   13.3603   45.7649    2.7803 C   0  0  0  0  0  0  0  0  0  0  0  0
   14.2140   42.7270    6.6460 C   0  0  0  0  0  0  0  0  0  0  0  0
   13.6446   41.7082    7.4135 C   0  0  0  0  0  0  0  0  0  0  0  0
   14.3668   41.1509    8.4718 C   0  0  0  0  0  0  0  0  0  0  0  0
   16.1999   42.5923    8.0181 C   0  0  0  0  0  0  0  0  0  0  0  0
   15.5061   43.1717    6.9544 C   0  0  0  0  0  0  0  0  0  0  0  0
   17.5711   43.0579    8.3512 C   0  0  0  0  0  0  0  0  0  0  0  0
   13.7531   40.0599    9.2841 C   0  0  2  0  0  0  0  0  0  0  0  0
   13.6362   40.4734   10.7434 C   0  0  0  0  0  0  0  0  0  0  0  0
   12.9961   39.3438   11.5316 C   0  0  0  0  0  0  0  0  0  0  0  0
   13.8287   38.0685   11.3847 C   0  0  0  0  0  0  0  0  0  0  0  0
   14.5742   38.7728    9.1645 C   0  0  0  0  0  0  0  0  0  0  0  0
   13.8939   35.4833    7.6971 C   0  0  0  0  0  0  0  0  0  0  0  0
   11.6768   35.9283    7.1254 C   0  0  0  0  0  0  0  0  0  0  0  0
   15.0724   44.9186    4.7678 N   0  0  0  0  0  0  0  0  0  0  0  0
   13.4522   43.2829    5.5651 N   0  0  0  0  0  0  0  0  0  0  0  0
   15.6223   41.6021    8.7489 N   0  0  0  0  0  0  0  0  0  0  0  0
   14.0326   37.6768    9.9813 N   0  0  0  0  0  0  0  0  0  0  0  0
   12.8901   36.5323    7.6489 N   0  0  0  0  0  0  0  0  0  0  0  0
   12.5719   37.0317    9.2806 S   0  0  0  0  0  0  0  0  0  0  0  0
   12.1126   35.8528   10.0953 O   0  0  0  0  0  0  0  0  0  0  0  0
   11.4871   38.0741    9.2748 O   0  0  0  0  0  0  0  0  0  0  0  0
  1  2  1  0
  3 20  2  0
  3 21  1  0
  4  5  2  0
  6  2  2  0
  8  9  2  0
 10 22  2  0
 11  7  2  0
 12 10  1  0
 13  9  1  6
 13 14  1  0
 14 15  1  0
 15 16  1  0
 16 23  1  0
 17 23  1  0
 17 13  1  0
 18 24  1  0
 19 24  1  0
 21  7  1  0
 25 23  1  0
 25 24  1  0
  2  3  1  0
  4 20  1  0
  5  6  1  0
  7  8  1  0
  9 22  1  0
 10 11  1  0
 25 26  2  0
 25 27  2  0
M  END
>  <rmsd>  (315) 
0.245473042

$$$$
Molport-046-958-382 MCULE-9124289403 PubChem-110093602
     RDKit          3D

 31 34  0  0  0  0  0  0  0  0999 V2000
   17.6507   42.8715    8.2170 C   0  0  0  0  0  0  0  0  0  0  0  0
   16.2453   42.4752    7.9446 C   0  0  0  0  0  0  0  0  0  0  0  0
   15.5425   43.0769    6.8988 C   0  0  0  0  0  0  0  0  0  0  0  0
   14.2173   42.6981    6.6480 C   0  0  0  0  0  0  0  0  0  0  0  0
   13.6240   41.7223    7.4522 C   0  0  0  0  0  0  0  0  0  0  0  0
   14.3552   41.1449    8.4938 C   0  0  0  0  0  0  0  0  0  0  0  0
   13.7186   40.0986    9.3458 C   0  0  2  0  0  0  0  0  0  0  0  0
   13.7312   40.5111   10.8207 C   0  0  0  0  0  0  0  0  0  0  0  0
   13.6146   39.3134   11.7673 C   0  0  0  0  0  0  0  0  0  0  0  0
   12.9721   38.1210   11.0614 C   0  0  0  0  0  0  0  0  0  0  0  0
   14.4047   38.7430    9.1470 C   0  0  0  0  0  0  0  0  0  0  0  0
   12.9020   36.9265    9.0429 C   0  0  0  0  0  0  0  0  0  0  0  0
   13.4766   35.5895    8.7133 C   0  0  0  0  0  0  0  0  0  0  0  0
   12.8321   34.4252    9.1271 C   0  0  0  0  0  0  0  0  0  0  0  0
   14.4960   33.1136    8.0746 C   0  0  0  0  0  0  0  0  0  0  0  0
   14.6478   35.4711    7.9639 C   0  0  0  0  0  0  0  0  0  0  0  0
   15.0630   31.7721    7.7553 C   0  0  0  0  0  0  0  0  0  0  0  0
   16.0811   31.3553    8.8045 C   0  0  0  0  0  0  0  0  0  0  0  0
   16.4749   30.8056   10.9056 C   0  0  0  0  0  0  0  0  0  0  0  0
   13.8825   44.3051    4.6845 C   0  0  0  0  0  0  0  0  0  0  0  0
   15.2000   45.8661    3.7736 C   0  0  0  0  0  0  0  0  0  0  0  0
   14.1142   46.0025    2.9085 C   0  0  0  0  0  0  0  0  0  0  0  0
   16.4266   46.6972    3.6412 C   0  0  0  0  0  0  0  0  0  0  0  0
   15.6441   41.5289    8.7135 N   0  0  0  0  0  0  0  0  0  0  0  0
   13.7923   37.6546    9.9339 N   0  0  0  0  0  0  0  0  0  0  0  0
   13.3526   33.2117    8.8050 N   0  0  0  0  0  0  0  0  0  0  0  0
   15.1380   34.2395    7.6628 N   0  0  0  0  0  0  0  0  0  0  0  0
   13.4528   43.2725    5.5798 N   0  0  0  0  0  0  0  0  0  0  0  0
   15.0739   44.9337    4.7552 N   0  0  0  0  0  0  0  0  0  0  0  0
   15.4400   31.0927   10.0164 O   0  0  0  0  0  0  0  0  0  0  0  0
   12.9569   44.8869    3.4167 S   0  0  0  0  0  0  0  0  0  0  0  0
  1  2  1  0
  2 24  2  0
  3  4  2  0
  4 28  1  0
  5  6  2  0
  7  6  1  6
  7  8  1  0
  8  9  1  0
  9 10  1  0
 10 25  1  0
 11 25  1  0
 11  7  1  0
 12 25  1  0
 12 13  1  0
 14 26  2  0
 15 27  2  0
 16 13  2  0
 17 15  1  0
 17 18  1  0
 18 30  1  0
 19 30  1  0
 20 31  1  0
 21 29  1  0
 22 31  1  0
 23 21  1  0
 28 20  1  0
  2  3  1  0
  4  5  1  0
  6 24  1  0
 13 14  1  0
 15 26  1  0
 16 27  1  0
 20 29  2  0
 21 22  2  0
M  END
>  <rmsd>  (316) 
0.245414525

$$$$
Molport-053-317-150 PubChem-110111773
     RDKit          3D

 27 30  0  0  0  0  0  0  0  0999 V2000
   16.3697   36.3742    7.5037 C   0  0  0  0  0  0  0  0  0  0  0  0
   16.9704   36.1194    8.8447 C   0  0  0  0  0  0  0  0  0  0  0  0
   16.2180   36.2292   10.0275 C   0  0  0  0  0  0  0  0  0  0  0  0
   18.1251   35.6469   11.3259 C   0  0  0  0  0  0  0  0  0  0  0  0
   18.9006   35.5167   10.1716 C   0  0  0  0  0  0  0  0  0  0  0  0
   18.3161   35.7561    8.9284 C   0  0  0  0  0  0  0  0  0  0  0  0
   14.7734   36.6067    9.9993 C   0  0  0  0  0  0  0  0  0  0  0  0
   13.3956   38.0718   11.1797 C   0  0  0  0  0  0  0  0  0  0  0  0
   13.1648   39.4971   11.7011 C   0  0  0  0  0  0  0  0  0  0  0  0
   13.8269   40.5574   10.8162 C   0  0  0  0  0  0  0  0  0  0  0  0
   13.7957   40.1396    9.3465 C   0  0  2  0  0  0  0  0  0  0  0  0
   14.4062   38.7440    9.1220 C   0  0  0  0  0  0  0  0  0  0  0  0
   14.4265   41.1623    8.4598 C   0  0  0  0  0  0  0  0  0  0  0  0
   13.6638   41.7419    7.4445 C   0  0  0  0  0  0  0  0  0  0  0  0
   14.2400   42.7033    6.6099 C   0  0  0  0  0  0  0  0  0  0  0  0
   16.3056   42.5130    7.7755 C   0  0  0  0  0  0  0  0  0  0  0  0
   15.7622   41.5501    8.6280 C   0  0  0  0  0  0  0  0  0  0  0  0
   13.8529   44.3195    4.6673 C   0  0  0  0  0  0  0  0  0  0  0  0
   15.4558   45.9055    3.9222 C   0  0  0  0  0  0  0  0  0  0  0  0
   14.5837   46.3107    2.9089 C   0  0  0  0  0  0  0  0  0  0  0  0
   12.9816   44.7294    3.6540 C   0  0  0  0  0  0  0  0  0  0  0  0
   16.8154   35.9980   11.2308 N   0  0  0  0  0  0  0  0  0  0  0  0
   14.6110   37.9994   10.3706 N   0  0  0  0  0  0  0  0  0  0  0  0
   15.5421   43.0624    6.7927 N   0  0  0  0  0  0  0  0  0  0  0  0
   13.4478   43.2787    5.5645 N   0  0  0  0  0  0  0  0  0  0  0  0
   15.0716   44.9209    4.7782 N   0  0  0  0  0  0  0  0  0  0  0  0
   13.3653   45.7148    2.7978 N   0  0  0  0  0  0  0  0  0  0  0  0
  1  2  1  0
  3 22  2  0
  4  5  2  0
  6  2  2  0
  7  3  1  0
  7 23  1  0
  8 23  1  0
  8  9  1  0
  9 10  1  0
 10 11  1  0
 11 12  1  0
 11 13  1  6
 12 23  1  0
 14 15  2  0
 15 25  1  0
 16 24  2  0
 17 13  2  0
 19 26  2  0
 20 27  2  0
 21 18  2  0
 25 18  1  0
  2  3  1  0
  4 22  1  0
  5  6  1  0
 13 14  1  0
 15 24  1  0
 16 17  1  0
 18 26  1  0
 19 20  1  0
 21 27  1  0
M  END
>  <rmsd>  (317) 
0.245377764

$$$$
MolPort-019-935-284 67896687 CSSS00159285959 MCULE-2807596587 PubChem-56774746 ZINC000067896687 ZINC67896687
     RDKit          3D

 35 38  0  0  0  0  0  0  0  0999 V2000
   13.4483   39.3114   11.4350 C   0  0  0  0  0  0  0  0  0  0  0  0
   14.0315   36.9953   10.7184 C   0  0  0  0  0  0  0  0  0  0  0  0
   15.3327   36.9323   11.2821 C   0  0  0  0  0  0  0  0  0  0  0  0
   16.1116   38.1558   11.6606 C   0  0  0  0  0  0  0  0  0  0  0  0
   16.6014   39.2042    9.4104 C   0  0  2  0  0  0  0  0  0  0  0  0
   17.5360   38.9546    8.2068 C   0  0  0  0  0  0  0  0  0  0  0  0
   19.0494   37.6869    9.2824 C   0  0  0  0  0  0  0  0  0  0  0  0
   18.3527   37.8398   10.5933 C   0  0  0  0  0  0  0  0  0  0  0  0
   16.5156   40.7177    9.6548 C   0  0  1  0  0  0  0  0  0  0  0  0
   15.7192   41.3955    8.5838 C   0  0  0  0  0  0  0  0  0  0  0  0
   14.3660   41.0864    8.3866 C   0  0  0  0  0  0  0  0  0  0  0  0
   13.6396   41.7257    7.3786 C   0  0  0  0  0  0  0  0  0  0  0  0
   14.2537   42.6796    6.5604 C   0  0  0  0  0  0  0  0  0  0  0  0
   13.9039   44.3768    4.6726 C   0  0  0  0  0  0  0  0  0  0  0  0
   12.9817   44.8707    3.6111 C   0  0  0  0  0  0  0  0  0  0  0  0
   12.9934   43.9522    2.3951 C   0  0  0  0  0  0  0  0  0  0  0  0
   14.1373   44.2596    1.4831 C   0  0  0  0  0  0  0  0  0  0  0  0
   13.8948   44.9235    0.2749 C   0  0  0  0  0  0  0  0  0  0  0  0
   14.9553   45.2222   -0.5881 C   0  0  0  0  0  0  0  0  0  0  0  0
   16.2611   44.8509   -0.2482 C   0  0  0  0  0  0  0  0  0  0  0  0
   16.5048   44.1760    0.9537 C   0  0  0  0  0  0  0  0  0  0  0  0
   15.4445   43.8778    1.8168 C   0  0  0  0  0  0  0  0  0  0  0  0
   15.6079   42.9886    6.7632 C   0  0  0  0  0  0  0  0  0  0  0  0
   16.3369   42.3489    7.7691 C   0  0  0  0  0  0  0  0  0  0  0  0
   15.9733   35.6903   11.3985 C   0  0  0  0  0  0  0  0  0  0  0  0
   15.3536   34.5236   10.9503 C   0  0  0  0  0  0  0  0  0  0  0  0
   14.0881   34.5882   10.3687 C   0  0  0  0  0  0  0  0  0  0  0  0
   13.4354   35.8172   10.2518 C   0  0  0  0  0  0  0  0  0  0  0  0
   13.2912   38.1795   10.5920 O   0  0  0  0  0  0  0  0  0  0  0  0
   18.0918   37.6639    8.2539 O   0  0  0  0  0  0  0  0  0  0  0  0
   18.8645   37.3774   11.6476 O   0  0  0  0  0  0  0  0  0  0  0  0
   15.9634   41.0085   10.9043 O   0  0  0  0  0  0  0  0  0  0  0  0
   15.0435   44.9011    4.7957 O   0  0  0  0  0  0  0  0  0  0  0  0
   17.0727   38.4912   10.6113 N   0  0  0  0  0  0  0  0  0  0  0  0
   13.4765   43.3142    5.5361 N   0  0  0  0  0  0  0  0  0  0  0  0
  1 29  1  0
  2 29  1  0
  3 25  2  0
  4  3  1  0
  4 34  1  0
  5 34  1  0
  5  6  1  6
  5  9  1  0
  6 30  1  0
  7 30  1  0
  7  8  1  0
  8 34  1  0
  9 32  1  1
  9 10  1  0
 11 12  2  0
 13 35  1  0
 13 23  2  0
 15 14  1  0
 15 16  1  0
 16 17  1  0
 18 19  2  0
 20 21  2  0
 22 17  2  0
 24 10  2  0
 26 27  2  0
 28  2  2  0
 35 14  1  0
  2  3  1  0
  8 31  2  0
 10 11  1  0
 12 13  1  0
 14 33  2  0
 17 18  1  0
 19 20  1  0
 21 22  1  0
 23 24  1  0
 25 26  1  0
 27 28  1  0
M  END
>  <rmsd>  (318) 
0.24537687

$$$$
MolPort-020-295-287 MCULE-7988798873 PubChem-110267370
     RDKit          3D

 27 29  0  0  0  0  0  0  0  0999 V2000
   11.3052   45.5614    1.3768 C   0  0  0  0  0  0  0  0  0  0  0  0
   13.4356   45.7104    2.7424 C   0  0  0  0  0  0  0  0  0  0  0  0
   15.4693   45.8960    3.9380 C   0  0  0  0  0  0  0  0  0  0  0  0
   13.8685   44.3037    4.6467 C   0  0  0  0  0  0  0  0  0  0  0  0
   13.0170   44.6983    3.6139 C   0  0  0  0  0  0  0  0  0  0  0  0
   14.2184   42.7246    6.6221 C   0  0  0  0  0  0  0  0  0  0  0  0
   16.2607   42.5336    7.8020 C   0  0  0  0  0  0  0  0  0  0  0  0
   15.6862   41.6067    8.6683 C   0  0  0  0  0  0  0  0  0  0  0  0
   14.3439   41.2628    8.4826 C   0  0  0  0  0  0  0  0  0  0  0  0
   13.6737   40.2526    9.3579 C   0  0  2  0  0  0  0  0  0  0  0  0
   13.8731   40.5612   10.8467 C   0  0  0  0  0  0  0  0  0  0  0  0
   13.8147   39.3038   11.7178 C   0  0  0  0  0  0  0  0  0  0  0  0
   12.9044   38.2561   11.0811 C   0  0  0  0  0  0  0  0  0  0  0  0
   14.1316   38.8324    9.0126 C   0  0  0  0  0  0  0  0  0  0  0  0
   12.2616   37.3965    8.9846 C   0  0  0  0  0  0  0  0  0  0  0  0
   12.0763   35.9126    9.0389 C   0  0  0  0  0  0  0  0  0  0  0  0
   14.1916   35.5175    7.7259 C   0  0  0  0  0  0  0  0  0  0  0  0
   12.8633   33.5802    8.5641 C   0  0  0  0  0  0  0  0  0  0  0  0
   12.6060   46.1449    1.6613 N   0  0  0  0  0  0  0  0  0  0  0  0
   14.6511   46.2896    2.9254 N   0  0  0  0  0  0  0  0  0  0  0  0
   15.0771   44.9115    4.7874 N   0  0  0  0  0  0  0  0  0  0  0  0
   13.4417   43.2826    5.5556 N   0  0  0  0  0  0  0  0  0  0  0  0
   15.5211   43.0741    6.7996 N   0  0  0  0  0  0  0  0  0  0  0  0
   13.6439   41.8238    7.4617 N   0  0  0  0  0  0  0  0  0  0  0  0
   13.4151   37.7951    9.7777 N   0  0  0  0  0  0  0  0  0  0  0  0
   13.0372   35.0171    8.4566 N   0  0  0  0  0  0  0  0  0  0  0  0
   11.0413   35.4571    9.5942 O   0  0  0  0  0  0  0  0  0  0  0  0
  1 19  1  0
  3 20  2  0
  4 21  2  0
  4 22  1  0
  5  2  2  0
  6 24  2  0
  7 23  2  0
  8  9  2  0
 10  9  1  6
 10 11  1  0
 11 12  1  0
 12 13  1  0
 13 25  1  0
 14 25  1  0
 14 10  1  0
 15 25  1  0
 15 16  1  0
 16 26  1  0
 17 26  1  0
 18 26  1  0
 19  2  1  0
 22  6  1  0
  2 20  1  0
  3 21  1  0
  4  5  1  0
  6 23  1  0
  7  8  1  0
  9 24  1  0
 16 27  2  0
M  END
>  <rmsd>  (319) 
0.245353147

$$$$
MolPort-020-292-454 MCULE-7428069352 PubChem-110264922
     RDKit          3D

 31 34  0  0  0  0  0  0  0  0999 V2000
   17.5715   43.0395    8.3468 C   0  0  0  0  0  0  0  0  0  0  0  0
   16.1982   42.5797    8.0146 C   0  0  0  0  0  0  0  0  0  0  0  0
   15.5057   43.1625    6.9519 C   0  0  0  0  0  0  0  0  0  0  0  0
   14.2114   42.7233    6.6445 C   0  0  0  0  0  0  0  0  0  0  0  0
   13.6386   41.7063    7.4121 C   0  0  0  0  0  0  0  0  0  0  0  0
   14.3597   41.1452    8.4692 C   0  0  0  0  0  0  0  0  0  0  0  0
   13.7419   40.0574    9.2834 C   0  0  2  0  0  0  0  0  0  0  0  0
   13.6202   40.4798   10.7411 C   0  0  0  0  0  0  0  0  0  0  0  0
   13.0045   39.3464   11.5448 C   0  0  0  0  0  0  0  0  0  0  0  0
   13.8540   38.0813   11.3903 C   0  0  0  0  0  0  0  0  0  0  0  0
   14.5650   38.7676    9.1734 C   0  0  0  0  0  0  0  0  0  0  0  0
   12.7271   37.2491    9.4320 C   0  0  0  0  0  0  0  0  0  0  0  0
   12.5455   35.7828    9.6234 C   0  0  0  0  0  0  0  0  0  0  0  0
   13.4339   33.4399    9.0813 C   0  0  0  0  0  0  0  0  0  0  0  0
   12.4714   32.7560    9.8402 C   0  0  0  0  0  0  0  0  0  0  0  0
   12.4823   31.3596    9.9029 C   0  0  0  0  0  0  0  0  0  0  0  0
   13.4557   30.6374    9.2076 C   0  0  0  0  0  0  0  0  0  0  0  0
   14.4173   31.3117    8.4504 C   0  0  0  0  0  0  0  0  0  0  0  0
   14.4053   32.7084    8.3885 C   0  0  0  0  0  0  0  0  0  0  0  0
   13.8513   44.3261    4.6656 C   0  0  0  0  0  0  0  0  0  0  0  0
   15.4472   45.9060    3.9138 C   0  0  0  0  0  0  0  0  0  0  0  0
   14.5748   46.3284    2.9128 C   0  0  0  0  0  0  0  0  0  0  0  0
   13.3280   45.7130    2.8205 C   0  0  0  0  0  0  0  0  0  0  0  0
   15.6172   41.5914    8.7454 N   0  0  0  0  0  0  0  0  0  0  0  0
   14.0108   37.6748    9.9847 N   0  0  0  0  0  0  0  0  0  0  0  0
   13.4558   34.8711    8.9940 N   0  0  0  0  0  0  0  0  0  0  0  0
   13.4511   43.2830    5.5646 N   0  0  0  0  0  0  0  0  0  0  0  0
   15.0729   44.9182    4.7679 N   0  0  0  0  0  0  0  0  0  0  0  0
   12.9902   44.7283    3.6935 N   0  0  0  0  0  0  0  0  0  0  0  0
   11.5882   35.3686   10.3288 O   0  0  0  0  0  0  0  0  0  0  0  0
   13.4670   29.2843    9.2672 F   0  0  0  0  0  0  0  0  0  0  0  0
  1  2  1  0
  2 24  2  0
  3  4  2  0
  4 27  1  0
  5  6  2  0
  7  6  1  6
  7  8  1  0
  8  9  1  0
  9 10  1  0
 10 25  1  0
 11 25  1  0
 11  7  1  0
 12 25  1  0
 12 13  1  0
 13 26  1  0
 15 16  2  0
 17 18  2  0
 17 31  1  0
 19 14  2  0
 20 29  2  0
 21 28  2  0
 22 23  2  0
 26 14  1  0
 27 20  1  0
  2  3  1  0
  4  5  1  0
  6 24  1  0
 13 30  2  0
 14 15  1  0
 16 17  1  0
 18 19  1  0
 20 28  1  0
 21 22  1  0
 23 29  1  0
M  END
>  <rmsd>  (320) 
0.245315015

$$$$
Molport-047-073-863 MCULE-7053319457 PubChem-132771926
     RDKit          3D

 29 32  0  0  0  0  0  0  0  0999 V2000
   15.2253   45.8725    3.8042 C   0  0  0  0  0  0  0  0  0  0  0  0
   14.1464   46.0021    2.9182 C   0  0  0  0  0  0  0  0  0  0  0  0
   13.8871   44.3009    4.6817 C   0  0  0  0  0  0  0  0  0  0  0  0
   14.2306   42.6921    6.6188 C   0  0  0  0  0  0  0  0  0  0  0  0
   16.2927   42.4549    7.7531 C   0  0  0  0  0  0  0  0  0  0  0  0
   15.7235   41.5183    8.6131 C   0  0  0  0  0  0  0  0  0  0  0  0
   14.3769   41.1862    8.4402 C   0  0  0  0  0  0  0  0  0  0  0  0
   13.7094   40.1758    9.3173 C   0  0  2  0  0  0  0  0  0  0  0  0
   13.7707   40.5860   10.7941 C   0  0  0  0  0  0  0  0  0  0  0  0
   13.6873   39.3874   11.7414 C   0  0  0  0  0  0  0  0  0  0  0  0
   12.9263   38.2383   11.0855 C   0  0  0  0  0  0  0  0  0  0  0  0
   12.5969   37.1333    9.0399 C   0  0  0  0  0  0  0  0  0  0  0  0
   13.1518   35.9930    8.3021 C   0  0  0  0  0  0  0  0  0  0  0  0
   14.2995   38.7782    9.1033 C   0  0  0  0  0  0  0  0  0  0  0  0
   16.4454   46.6964    3.6819 C   0  0  0  0  0  0  0  0  0  0  0  0
   18.7013   47.4526    4.4670 C   0  0  0  0  0  0  0  0  0  0  0  0
   19.7991   46.8949    5.3802 C   0  0  0  0  0  0  0  0  0  0  0  0
   18.3658   45.9623    6.8458 C   0  0  0  0  0  0  0  0  0  0  0  0
   17.1075   46.4234    6.1081 C   0  0  0  0  0  0  0  0  0  0  0  0
   12.9802   44.8862    3.4017 S   0  0  0  0  0  0  0  0  0  0  0  0
   13.4454   43.2718    5.5721 N   0  0  0  0  0  0  0  0  0  0  0  0
   15.5432   43.0207    6.7756 N   0  0  0  0  0  0  0  0  0  0  0  0
   13.6184   37.7299    9.8896 N   0  0  0  0  0  0  0  0  0  0  0  0
   13.5891   35.0934    7.7196 N   0  0  0  0  0  0  0  0  0  0  0  0
   13.6638   41.7747    7.4457 N   0  0  0  0  0  0  0  0  0  0  0  0
   15.0755   44.9283    4.7740 N   0  0  0  0  0  0  0  0  0  0  0  0
   17.4458   46.7436    4.7200 N   0  0  0  0  0  0  0  0  0  0  0  0
   16.6167   47.3663    2.6253 O   0  0  0  0  0  0  0  0  0  0  0  0
   19.3737   46.9367    6.7212 O   0  0  0  0  0  0  0  0  0  0  0  0
  1 15  1  0
  1 26  1  0
  2 20  1  0
  3 20  1  0
  3 21  1  0
  4 25  2  0
  5 22  2  0
  6  7  2  0
  8  7  1  6
  8  9  1  0
  9 10  1  0
 10 11  1  0
 11 23  1  0
 12 23  1  0
 12 13  1  0
 14 23  1  0
 14  8  1  0
 15 27  1  0
 16 27  1  0
 16 17  1  0
 17 29  1  0
 18 29  1  0
 18 19  1  0
 19 27  1  0
 21  4  1  0
  1  2  2  0
  3 26  2  0
  4 22  1  0
  5  6  1  0
  7 25  1  0
 15 28  2  0
 13 24  3  0
M  END
>  <rmsd>  (321) 
0.245265782

$$$$
Molport-020-295-104 MCULE-6578144194 PubChem-110267200
     RDKit          3D

 27 30  0  0  0  0  0  0  0  0999 V2000
   12.9949   39.3831   11.4840 C   0  0  0  0  0  0  0  0  0  0  0  0
   13.6306   40.5179   10.6982 C   0  0  0  0  0  0  0  0  0  0  0  0
   13.7786   40.1024    9.2401 C   0  0  2  0  0  0  0  0  0  0  0  0
   14.5925   38.8052    9.1356 C   0  0  0  0  0  0  0  0  0  0  0  0
   13.8400   38.1142   11.3369 C   0  0  0  0  0  0  0  0  0  0  0  0
   12.7388   37.3030    9.3568 C   0  0  0  0  0  0  0  0  0  0  0  0
   12.5221   35.8158    9.5819 C   0  0  0  0  0  0  0  0  0  0  0  0
   11.2076   35.3896    9.0241 C   0  0  0  0  0  0  0  0  0  0  0  0
   11.1697   34.5002    7.9449 C   0  0  0  0  0  0  0  0  0  0  0  0
    9.9413   34.0822    7.4236 C   0  0  0  0  0  0  0  0  0  0  0  0
    8.7483   34.5492    7.9839 C   0  0  0  0  0  0  0  0  0  0  0  0
    8.7831   35.4328    9.0670 C   0  0  0  0  0  0  0  0  0  0  0  0
   10.0111   35.8511    9.5886 C   0  0  0  0  0  0  0  0  0  0  0  0
   14.4025   41.1939    8.4300 C   0  0  0  0  0  0  0  0  0  0  0  0
   14.2275   42.7351    6.6391 C   0  0  0  0  0  0  0  0  0  0  0  0
   16.2182   42.6758    7.9189 C   0  0  0  0  0  0  0  0  0  0  0  0
   15.6926   41.6575    8.7105 C   0  0  0  0  0  0  0  0  0  0  0  0
   13.8486   44.3236    4.6716 C   0  0  0  0  0  0  0  0  0  0  0  0
   12.9618   44.7403    3.6750 C   0  0  0  0  0  0  0  0  0  0  0  0
   13.3437   45.7565    2.7974 C   0  0  0  0  0  0  0  0  0  0  0  0
   14.6027   46.3456    2.9216 C   0  0  0  0  0  0  0  0  0  0  0  0
   15.4637   45.9052    3.9284 C   0  0  0  0  0  0  0  0  0  0  0  0
   14.0165   37.7128    9.9321 N   0  0  0  0  0  0  0  0  0  0  0  0
   13.7009   41.7417    7.4031 N   0  0  0  0  0  0  0  0  0  0  0  0
   15.4813   43.1942    6.9028 N   0  0  0  0  0  0  0  0  0  0  0  0
   13.4479   43.2801    5.5678 N   0  0  0  0  0  0  0  0  0  0  0  0
   15.0730   44.9136    4.7738 N   0  0  0  0  0  0  0  0  0  0  0  0
  1  2  1  0
  2  3  1  0
  3  4  1  0
  3 14  1  6
  4 23  1  0
  5 23  1  0
  5  1  1  0
  6 23  1  0
  6  7  1  0
  7  8  1  0
  9 10  2  0
 11 12  2  0
 13  8  2  0
 15 24  2  0
 15 26  1  0
 16 25  2  0
 17 14  2  0
 18 27  2  0
 19 20  2  0
 21 22  2  0
 26 18  1  0
  8  9  1  0
 10 11  1  0
 12 13  1  0
 14 24  1  0
 15 25  1  0
 16 17  1  0
 18 19  1  0
 20 21  1  0
 22 27  1  0
M  END
>  <rmsd>  (322) 
0.245262846

$$$$
MolPort-006-609-839 ChemDiv-V020-0836 MCULE-3240632637 PubChem-46069923 ZINC000034735291 ZINC34735291
     RDKit          3D

 28 31  0  0  0  0  0  0  0  0999 V2000
   16.2918   42.6213    7.9725 C   0  0  0  0  0  0  0  0  0  0  0  0
   15.5704   43.1869    6.9199 C   0  0  0  0  0  0  0  0  0  0  0  0
   14.2670   42.7531    6.6414 C   0  0  0  0  0  0  0  0  0  0  0  0
   13.6990   41.7463    7.4283 C   0  0  0  0  0  0  0  0  0  0  0  0
   14.4138   41.1598    8.4863 C   0  0  0  0  0  0  0  0  0  0  0  0
   15.7156   41.6163    8.7522 C   0  0  0  0  0  0  0  0  0  0  0  0
   14.3902   39.8559   10.6284 C   0  0  0  0  0  0  0  0  0  0  0  0
   13.2777   39.6055   11.6327 C   0  0  0  0  0  0  0  0  0  0  0  0
   12.4719   38.3769   11.2210 C   0  0  0  0  0  0  0  0  0  0  0  0
   12.7201   39.3061    8.8739 C   0  0  0  0  0  0  0  0  0  0  0  0
   11.0438   37.4881    9.3753 C   0  0  0  0  0  0  0  0  0  0  0  0
   11.6285   36.3621    8.5884 C   0  0  0  0  0  0  0  0  0  0  0  0
   11.4465   36.3104    7.2021 C   0  0  0  0  0  0  0  0  0  0  0  0
   12.0006   35.2619    6.4614 C   0  0  0  0  0  0  0  0  0  0  0  0
   12.7381   34.2640    7.1059 C   0  0  0  0  0  0  0  0  0  0  0  0
   12.9217   34.3143    8.4911 C   0  0  0  0  0  0  0  0  0  0  0  0
   12.3677   35.3626    9.2321 C   0  0  0  0  0  0  0  0  0  0  0  0
   13.8956   44.3494    4.6695 C   0  0  0  0  0  0  0  0  0  0  0  0
   12.9335   44.7903    3.6075 C   0  0  0  0  0  0  0  0  0  0  0  0
   12.7456   46.2957    3.6277 C   0  0  0  0  0  0  0  0  0  0  0  0
   13.4141   46.3981    2.2703 C   0  0  0  0  0  0  0  0  0  0  0  0
   13.6112   44.8946    2.2536 C   0  0  0  0  0  0  0  0  0  0  0  0
   13.8181   40.1343    9.3121 N   0  0  0  0  0  0  0  0  0  0  0  0
   12.0865   38.4112    9.8088 N   0  0  0  0  0  0  0  0  0  0  0  0
   13.4925   43.3107    5.5710 N   0  0  0  0  0  0  0  0  0  0  0  0
   12.3208   39.3483    7.6780 O   0  0  0  0  0  0  0  0  0  0  0  0
   15.0325   44.8889    4.7679 O   0  0  0  0  0  0  0  0  0  0  0  0
   13.2748   33.2484    6.3882 F   0  0  0  0  0  0  0  0  0  0  0  0
  2  3  2  0
  3 25  1  0
  4  5  2  0
  5 23  1  0
  6  1  2  0
  7 23  1  0
  7  8  1  0
  8  9  1  0
  9 24  1  0
 10 23  1  0
 11 24  1  0
 11 12  1  0
 13 14  2  0
 15 16  2  0
 15 28  1  0
 17 12  2  0
 19 18  1  0
 19 20  1  0
 20 21  1  0
 21 22  1  0
 22 19  1  0
 24 10  1  0
 25 18  1  0
  1  2  1  0
  3  4  1  0
  5  6  1  0
 10 26  2  0
 12 13  1  0
 14 15  1  0
 16 17  1  0
 18 27  2  0
M  END
>  <rmsd>  (323) 
0.245241791

$$$$
Molport-020-295-054 MCULE-1758090520 PubChem-110267155
     RDKit          3D

 22 24  0  0  0  0  0  0  0  0999 V2000
   12.0961   36.1283   10.1275 C   0  0  0  0  0  0  0  0  0  0  0  0
   12.6854   37.2949    9.3475 C   0  0  0  0  0  0  0  0  0  0  0  0
   12.8408   36.8458    7.9014 C   0  0  0  0  0  0  0  0  0  0  0  0
   13.8492   38.1130   11.3266 C   0  0  0  0  0  0  0  0  0  0  0  0
   13.0018   39.3782   11.4914 C   0  0  0  0  0  0  0  0  0  0  0  0
   13.6223   40.5182   10.7002 C   0  0  0  0  0  0  0  0  0  0  0  0
   13.7703   40.1037    9.2415 C   0  0  2  0  0  0  0  0  0  0  0  0
   14.5841   38.8069    9.1396 C   0  0  0  0  0  0  0  0  0  0  0  0
   14.3960   41.1947    8.4325 C   0  0  0  0  0  0  0  0  0  0  0  0
   14.2249   42.7352    6.6406 C   0  0  0  0  0  0  0  0  0  0  0  0
   16.2134   42.6756    7.9238 C   0  0  0  0  0  0  0  0  0  0  0  0
   15.6859   41.6579    8.7150 C   0  0  0  0  0  0  0  0  0  0  0  0
   13.8515   44.3231    4.6724 C   0  0  0  0  0  0  0  0  0  0  0  0
   15.4539   45.9031    3.9227 C   0  0  0  0  0  0  0  0  0  0  0  0
   14.5739   46.3227    2.9241 C   0  0  0  0  0  0  0  0  0  0  0  0
   12.9734   44.7454    3.6720 C   0  0  0  0  0  0  0  0  0  0  0  0
   13.9833   37.7066    9.9153 N   0  0  0  0  0  0  0  0  0  0  0  0
   13.6965   41.7423    7.4040 N   0  0  0  0  0  0  0  0  0  0  0  0
   15.4784   43.1939    6.9062 N   0  0  0  0  0  0  0  0  0  0  0  0
   13.4475   43.2801    5.5676 N   0  0  0  0  0  0  0  0  0  0  0  0
   15.0741   44.9139    4.7738 N   0  0  0  0  0  0  0  0  0  0  0  0
   13.3530   45.7347    2.8205 N   0  0  0  0  0  0  0  0  0  0  0  0
  1  2  1  0
  2  3  1  0
  2 17  1  0
  4 17  1  0
  4  5  1  0
  5  6  1  0
  6  7  1  0
  7  8  1  0
  7  9  1  6
  8 17  1  0
 10 18  2  0
 10 20  1  0
 11 19  2  0
 12  9  2  0
 14 21  2  0
 15 22  2  0
 16 13  2  0
 20 13  1  0
  9 18  1  0
 10 19  1  0
 11 12  1  0
 13 21  1  0
 14 15  1  0
 16 22  1  0
M  END
>  <rmsd>  (324) 
0.2451756

$$$$
MolPort-047-071-888 PubChem-132766130
     RDKit          3D

 30 33  0  0  0  0  0  0  0  0999 V2000
   12.2928   46.1143    1.8020 C   0  0  0  0  0  0  0  0  0  0  0  0
   13.2752   45.7018    2.8377 C   0  0  0  0  0  0  0  0  0  0  0  0
   14.5202   46.3243    2.9044 C   0  0  0  0  0  0  0  0  0  0  0  0
   15.4139   45.9094    3.8896 C   0  0  0  0  0  0  0  0  0  0  0  0
   16.7520   46.5467    3.9959 C   0  0  0  0  0  0  0  0  0  0  0  0
   13.8415   44.3228    4.6761 C   0  0  0  0  0  0  0  0  0  0  0  0
   14.2466   42.7275    6.6539 C   0  0  0  0  0  0  0  0  0  0  0  0
   15.5414   43.1833    6.9364 C   0  0  0  0  0  0  0  0  0  0  0  0
   16.2602   42.6125    7.9866 C   0  0  0  0  0  0  0  0  0  0  0  0
   15.6864   41.5943    8.7467 C   0  0  0  0  0  0  0  0  0  0  0  0
   14.3896   41.1589    8.4425 C   0  0  0  0  0  0  0  0  0  0  0  0
   13.7369   40.0671    9.2287 C   0  0  2  0  0  0  0  0  0  0  0  0
   13.5874   40.4581   10.7013 C   0  0  0  0  0  0  0  0  0  0  0  0
   12.9007   39.3392   11.4819 C   0  0  0  0  0  0  0  0  0  0  0  0
   13.6987   38.0453   11.3509 C   0  0  0  0  0  0  0  0  0  0  0  0
   14.5108   38.7554    9.0920 C   0  0  0  0  0  0  0  0  0  0  0  0
   13.4643   36.4777    9.3961 C   0  0  0  0  0  0  0  0  0  0  0  0
   13.6393   36.1847    7.9645 C   0  0  0  0  0  0  0  0  0  0  0  0
   13.2508   35.0319    7.4270 C   0  0  0  0  0  0  0  0  0  0  0  0
   13.4265   34.7445    5.9995 C   0  0  0  0  0  0  0  0  0  0  0  0
   13.9870   35.5790    5.0578 C   0  0  0  0  0  0  0  0  0  0  0  0
   13.3819   33.7388    4.1331 C   0  0  0  0  0  0  0  0  0  0  0  0
   15.0616   44.9220    4.7533 N   0  0  0  0  0  0  0  0  0  0  0  0
   13.4646   43.2797    5.5851 N   0  0  0  0  0  0  0  0  0  0  0  0
   13.7105   41.7322    7.4121 N   0  0  0  0  0  0  0  0  0  0  0  0
   13.8942   37.7359    9.9372 N   0  0  0  0  0  0  0  0  0  0  0  0
   13.9547   34.9337    3.8777 N   0  0  0  0  0  0  0  0  0  0  0  0
   13.0449   33.5905    5.4298 N   0  0  0  0  0  0  0  0  0  0  0  0
   12.9597   44.7176    3.7197 N   0  0  0  0  0  0  0  0  0  0  0  0
   12.9317   35.6183   10.1518 O   0  0  0  0  0  0  0  0  0  0  0  0
  1  2  1  0
  2 29  2  0
  3  4  2  0
  5  4  1  0
  6 23  2  0
  6 24  1  0
  7 25  2  0
  8  9  2  0
 10 11  2  0
 12 11  1  6
 12 13  1  0
 13 14  1  0
 14 15  1  0
 15 26  1  0
 16 26  1  0
 16 12  1  0
 17 18  1  0
 19 20  1  0
 21 27  1  0
 22 28  1  0
 24  7  1  0
 26 17  1  0
 28 20  1  0
  2  3  1  0
  4 23  1  0
  6 29  1  0
  7  8  1  0
  9 10  1  0
 11 25  1  0
 17 30  2  0
 18 19  2  0
 20 21  2  0
 22 27  2  0
M  END
>  <rmsd>  (325) 
0.245132372

$$$$
MolPort-002-191-102 2969362 CHEMBL1529339 CSSS00104853224 ChemDiv-8010-5151 MCULE-9329842742 PubChem-2274746 ZINC000002969362 ZINC02969362
     RDKit          3D

 22 23  0  0  0  0  0  0  0  0999 V2000
   11.2300   39.5582   10.8193 C   0  0  0  0  0  0  0  0  0  0  0  0
   12.3355   38.8565   11.5849 C   0  0  0  0  0  0  0  0  0  0  0  0
   13.6052   39.6926   11.5774 C   0  0  0  0  0  0  0  0  0  0  0  0
   14.3966   39.4800   10.2963 C   0  0  0  0  0  0  0  0  0  0  0  0
   14.3714   41.1382    8.4592 C   0  0  0  0  0  0  0  0  0  0  0  0
   15.6763   41.5716    8.7423 C   0  0  0  0  0  0  0  0  0  0  0  0
   16.2634   42.5813    7.9764 C   0  0  0  0  0  0  0  0  0  0  0  0
   15.5508   43.1628    6.9249 C   0  0  0  0  0  0  0  0  0  0  0  0
   14.2459   42.7389    6.6324 C   0  0  0  0  0  0  0  0  0  0  0  0
   13.9044   44.3540    4.6717 C   0  0  0  0  0  0  0  0  0  0  0  0
   12.9894   44.8010    3.5855 C   0  0  0  0  0  0  0  0  0  0  0  0
   14.4651   44.2378    1.4880 C   0  0  0  0  0  0  0  0  0  0  0  0
   15.8083   45.3808    0.3045 C   0  0  0  0  0  0  0  0  0  0  0  0
   13.3946   45.9746    0.0177 C   0  0  0  0  0  0  0  0  0  0  0  0
   13.6658   41.7266    7.4044 C   0  0  0  0  0  0  0  0  0  0  0  0
   13.7550   40.1311    9.2066 O   0  0  0  0  0  0  0  0  0  0  0  0
   15.0394   44.8889    4.7810 O   0  0  0  0  0  0  0  0  0  0  0  0
   13.4843   43.3103    5.5600 N   0  0  0  0  0  0  0  0  0  0  0  0
   15.6999   43.7872    1.7655 N   0  0  0  0  0  0  0  0  0  0  0  0
   16.5372   44.5029    1.0265 N   0  0  0  0  0  0  0  0  0  0  0  0
   14.5036   45.2261    0.5819 N   0  0  0  0  0  0  0  0  0  0  0  0
   12.9709   43.5845    2.2328 S   0  0  0  0  0  0  0  0  0  0  0  0
  1  2  1  0
  2  3  1  0
  3  4  1  0
  4 16  1  0
  5 16  1  0
  6  7  2  0
  8  9  2  0
  9 18  1  0
 11 10  1  0
 11 22  1  0
 12 22  1  0
 13 21  1  0
 14 21  1  0
 15  5  2  0
 18 10  1  0
 19 20  1  0
 21 12  1  0
  5  6  1  0
  7  8  1  0
  9 15  1  0
 10 17  2  0
 12 19  2  0
 13 20  2  0
M  END
>  <rmsd>  (326) 
0.245074734

$$$$
MolPort-020-292-530 MCULE-2658701292 PubChem-110264998
     RDKit          3D

 32 36  0  0  0  0  0  0  0  0999 V2000
   17.5612   43.0445    8.3590 C   0  0  0  0  0  0  0  0  0  0  0  0
   16.1871   42.5875    8.0263 C   0  0  0  0  0  0  0  0  0  0  0  0
   15.4992   43.1666    6.9585 C   0  0  0  0  0  0  0  0  0  0  0  0
   14.2046   42.7291    6.6497 C   0  0  0  0  0  0  0  0  0  0  0  0
   13.6267   41.7180    7.4213 C   0  0  0  0  0  0  0  0  0  0  0  0
   14.3423   41.1624    8.4850 C   0  0  0  0  0  0  0  0  0  0  0  0
   13.7222   40.0735    9.2955 C   0  0  2  0  0  0  0  0  0  0  0  0
   13.6692   40.4538   10.7766 C   0  0  0  0  0  0  0  0  0  0  0  0
   13.0310   39.3298   11.5915 C   0  0  0  0  0  0  0  0  0  0  0  0
   13.8075   38.0310   11.3908 C   0  0  0  0  0  0  0  0  0  0  0  0
   14.4870   38.7649    9.1083 C   0  0  0  0  0  0  0  0  0  0  0  0
   13.4177   36.4800    9.4508 C   0  0  0  0  0  0  0  0  0  0  0  0
   13.2782   36.2131    8.0023 C   0  0  0  0  0  0  0  0  0  0  0  0
   12.8756   34.9938    7.4629 C   0  0  0  0  0  0  0  0  0  0  0  0
   12.5329   34.2960    5.1566 C   0  0  0  0  0  0  0  0  0  0  0  0
   12.5916   34.7408    3.8281 C   0  0  0  0  0  0  0  0  0  0  0  0
   12.9791   36.0669    3.5560 C   0  0  0  0  0  0  0  0  0  0  0  0
   13.3050   36.9434    4.6037 C   0  0  0  0  0  0  0  0  0  0  0  0
   13.2278   36.4439    5.9018 C   0  0  0  0  0  0  0  0  0  0  0  0
   13.8553   44.3218    4.6613 C   0  0  0  0  0  0  0  0  0  0  0  0
   12.9746   44.7255    3.6540 C   0  0  0  0  0  0  0  0  0  0  0  0
   13.3581   45.7361    2.7705 C   0  0  0  0  0  0  0  0  0  0  0  0
   14.6130   46.3330    2.8994 C   0  0  0  0  0  0  0  0  0  0  0  0
   15.4683   45.9057    3.9168 C   0  0  0  0  0  0  0  0  0  0  0  0
   15.6013   41.6046    8.7606 N   0  0  0  0  0  0  0  0  0  0  0  0
   13.9009   37.7365    9.9632 N   0  0  0  0  0  0  0  0  0  0  0  0
   12.8572   35.1760    6.1355 N   0  0  0  0  0  0  0  0  0  0  0  0
   13.4969   37.1292    7.0258 N   0  0  0  0  0  0  0  0  0  0  0  0
   13.4498   43.2836    5.5633 N   0  0  0  0  0  0  0  0  0  0  0  0
   15.0758   44.9195    4.7678 N   0  0  0  0  0  0  0  0  0  0  0  0
   13.0884   35.5714   10.2617 O   0  0  0  0  0  0  0  0  0  0  0  0
   12.1863   33.6545    2.5173 Cl  0  0  0  0  0  0  0  0  0  0  0  0
  1  2  1  0
  2 25  2  0
  3  4  2  0
  4 29  1  0
  5  6  2  0
  7  6  1  6
  7  8  1  0
  8  9  1  0
  9 10  1  0
 10 26  1  0
 11 26  1  0
 11  7  1  0
 12 13  1  0
 13 28  1  0
 14 27  1  0
 16 17  1  0
 16 32  1  0
 18 19  1  0
 19 27  1  0
 20 30  2  0
 21 22  2  0
 23 24  2  0
 26 12  1  0
 27 15  1  0
 29 20  1  0
  2  3  1  0
  4  5  1  0
  6 25  1  0
 12 31  2  0
 13 14  2  0
 15 16  2  0
 17 18  2  0
 19 28  2  0
 20 21  1  0
 22 23  1  0
 24 30  1  0
M  END
>  <rmsd>  (327) 
0.245055735

$$$$
MolPort-020-298-618 MCULE-6502622054 PubChem-110269774
     RDKit          3D

 29 32  0  0  0  0  0  0  0  0999 V2000
   12.2889   46.1208    1.8077 C   0  0  0  0  0  0  0  0  0  0  0  0
   13.2725   45.7064    2.8415 C   0  0  0  0  0  0  0  0  0  0  0  0
   14.5176   46.3287    2.9078 C   0  0  0  0  0  0  0  0  0  0  0  0
   15.4124   45.9120    3.8913 C   0  0  0  0  0  0  0  0  0  0  0  0
   13.8409   44.3242    4.6769 C   0  0  0  0  0  0  0  0  0  0  0  0
   14.2482   42.7251    6.6512 C   0  0  0  0  0  0  0  0  0  0  0  0
   15.5443   43.1788    6.9314 C   0  0  0  0  0  0  0  0  0  0  0  0
   16.2643   42.6061    7.9797 C   0  0  0  0  0  0  0  0  0  0  0  0
   15.6905   41.5882    8.7403 C   0  0  0  0  0  0  0  0  0  0  0  0
   14.3926   41.1545    8.4380 C   0  0  0  0  0  0  0  0  0  0  0  0
   13.7388   40.0649    9.2263 C   0  0  2  0  0  0  0  0  0  0  0  0
   13.5855   40.4622   10.6961 C   0  0  0  0  0  0  0  0  0  0  0  0
   12.8970   39.3462   11.4780 C   0  0  0  0  0  0  0  0  0  0  0  0
   13.6915   38.0495   11.3513 C   0  0  0  0  0  0  0  0  0  0  0  0
   14.5170   38.7547    9.1015 C   0  0  0  0  0  0  0  0  0  0  0  0
   13.3509   36.5434    9.3356 C   0  0  0  0  0  0  0  0  0  0  0  0
   13.0640   35.3175   10.1173 C   0  0  0  0  0  0  0  0  0  0  0  0
   13.6343   35.0981   11.3787 C   0  0  0  0  0  0  0  0  0  0  0  0
   12.5695   32.9836   11.5529 C   0  0  0  0  0  0  0  0  0  0  0  0
   11.9871   33.1502   10.2958 C   0  0  0  0  0  0  0  0  0  0  0  0
   12.2409   34.3198    9.5783 C   0  0  0  0  0  0  0  0  0  0  0  0
   16.7508   46.5490    3.9971 C   0  0  0  0  0  0  0  0  0  0  0  0
   15.0610   44.9231    4.7536 N   0  0  0  0  0  0  0  0  0  0  0  0
   12.9580   44.7207    3.7222 N   0  0  0  0  0  0  0  0  0  0  0  0
   13.4650   43.2797    5.5846 N   0  0  0  0  0  0  0  0  0  0  0  0
   13.7121   41.7300    7.4097 N   0  0  0  0  0  0  0  0  0  0  0  0
   13.8932   37.7331    9.9386 N   0  0  0  0  0  0  0  0  0  0  0  0
   13.3756   33.9518   12.0637 N   0  0  0  0  0  0  0  0  0  0  0  0
   13.1178   36.5380    8.0952 O   0  0  0  0  0  0  0  0  0  0  0  0
  1  2  1  0
  2 24  2  0
  3  4  2  0
  5 23  2  0
  5 25  1  0
  6 26  2  0
  7  8  2  0
  9 10  2  0
 11 10  1  6
 11 12  1  0
 12 13  1  0
 13 14  1  0
 14 27  1  0
 15 27  1  0
 15 11  1  0
 16 17  1  0
 18 28  2  0
 19 20  2  0
 21 17  2  0
 22  4  1  0
 25  6  1  0
 27 16  1  0
  2  3  1  0
  4 23  1  0
  5 24  1  0
  6  7  1  0
  8  9  1  0
 10 26  1  0
 16 29  2  0
 17 18  1  0
 19 28  1  0
 20 21  1  0
M  END
>  <rmsd>  (328) 
0.245006144

$$$$
MolPort-023-253-701 77343341 CSSS00159601091 MCULE-2373710604 PubChem-70723237 ZINC000077343341 ZINC77343341
     RDKit          3D

 27 30  0  0  0  0  0  0  0  0999 V2000
   11.7439   40.1764    7.7616 C   0  0  0  0  0  0  0  0  0  0  0  0
   13.7015   41.6240    7.3109 C   0  0  0  0  0  0  0  0  0  0  0  0
   14.2659   42.6744    6.5701 C   0  0  0  0  0  0  0  0  0  0  0  0
   13.8890   44.3917    4.7004 C   0  0  0  0  0  0  0  0  0  0  0  0
   12.9353   44.9233    3.6928 C   0  0  0  0  0  0  0  0  0  0  0  0
   15.5814   43.0781    6.8419 C   0  0  0  0  0  0  0  0  0  0  0  0
   16.3264   42.4492    7.8412 C   0  0  0  0  0  0  0  0  0  0  0  0
   15.7699   41.4058    8.5932 C   0  0  0  0  0  0  0  0  0  0  0  0
   14.4603   40.9960    8.3100 C   0  0  0  0  0  0  0  0  0  0  0  0
   17.8949   40.7672    9.6876 C   0  0  0  0  0  0  0  0  0  0  0  0
   18.2749   39.9662   10.7484 C   0  0  0  0  0  0  0  0  0  0  0  0
   16.1424   39.9542   10.6287 C   0  0  0  0  0  0  0  0  0  0  0  0
   14.7416   39.6703   10.9831 C   0  0  0  0  0  0  0  0  0  0  0  0
   13.8568   40.6991   11.4170 C   0  0  0  0  0  0  0  0  0  0  0  0
   12.5210   40.3946   11.7364 C   0  0  0  0  0  0  0  0  0  0  0  0
   12.1116   39.0704   11.6214 C   0  0  0  0  0  0  0  0  0  0  0  0
   10.9312   37.1220   11.6214 C   0  0  0  0  0  0  0  0  0  0  0  0
   12.9565   38.0868   11.2260 C   0  0  0  0  0  0  0  0  0  0  0  0
   14.2848   38.3404   10.9002 C   0  0  0  0  0  0  0  0  0  0  0  0
   12.3889   41.2193    7.0425 O   0  0  0  0  0  0  0  0  0  0  0  0
   15.0374   44.9000    4.7916 O   0  0  0  0  0  0  0  0  0  0  0  0
   10.8655   38.5326   11.8740 O   0  0  0  0  0  0  0  0  0  0  0  0
   12.2846   36.8811   11.2111 O   0  0  0  0  0  0  0  0  0  0  0  0
   13.4820   43.3107    5.5487 N   0  0  0  0  0  0  0  0  0  0  0  0
   16.5504   40.7518    9.6140 N   0  0  0  0  0  0  0  0  0  0  0  0
   17.1735   39.4542   11.3344 N   0  0  0  0  0  0  0  0  0  0  0  0
   14.3947   42.3622   11.6043 Cl  0  0  0  0  0  0  0  0  0  0  0  0
  1 20  1  0
  2 20  1  0
  3 24  1  0
  3  6  2  0
  5  4  1  0
  7  8  2  0
  8 25  1  0
  9  2  2  0
 11 26  1  0
 12 13  1  0
 12 25  1  0
 14 27  1  0
 14 15  2  0
 16 22  1  0
 17 22  1  0
 17 23  1  0
 18 23  1  0
 18 16  2  0
 19 13  2  0
 24  4  1  0
 25 10  1  0
  2  3  1  0
  4 21  2  0
  6  7  1  0
  8  9  1  0
 10 11  2  0
 12 26  2  0
 13 14  1  0
 15 16  1  0
 18 19  1  0
M  END
>  <rmsd>  (329) 
0.245003387

$$$$
MolPort-002-934-394 2970832 CHEMBL1719021 CSSS00132393515 ChemDiv-3784-0050 LN00924109 MCULE-9483770580 PubChem-3855458 ZINC000002970832 ZINC02970832
     RDKit          3D

 22 23  0  0  0  0  0  0  0  0999 V2000
   11.2317   39.5624   10.8226 C   0  0  0  0  0  0  0  0  0  0  0  0
   12.3373   38.8596   11.5872 C   0  0  0  0  0  0  0  0  0  0  0  0
   13.6079   39.6942   11.5780 C   0  0  0  0  0  0  0  0  0  0  0  0
   14.3976   39.4802   10.2961 C   0  0  0  0  0  0  0  0  0  0  0  0
   14.3723   41.1378    8.4584 C   0  0  0  0  0  0  0  0  0  0  0  0
   15.6780   41.5698    8.7398 C   0  0  0  0  0  0  0  0  0  0  0  0
   16.2655   42.5785    7.9728 C   0  0  0  0  0  0  0  0  0  0  0  0
   15.5524   43.1604    6.9220 C   0  0  0  0  0  0  0  0  0  0  0  0
   14.2465   42.7381    6.6312 C   0  0  0  0  0  0  0  0  0  0  0  0
   13.9045   44.3533    4.6707 C   0  0  0  0  0  0  0  0  0  0  0  0
   12.9899   44.7997    3.5841 C   0  0  0  0  0  0  0  0  0  0  0  0
   14.4667   44.2139    1.4923 C   0  0  0  0  0  0  0  0  0  0  0  0
   16.5297   44.4752    1.0215 C   0  0  0  0  0  0  0  0  0  0  0  0
   15.7966   45.3819    0.2728 C   0  0  0  0  0  0  0  0  0  0  0  0
   13.3814   45.9376    0.0314 C   0  0  0  0  0  0  0  0  0  0  0  0
   13.6662   41.7266    7.4042 C   0  0  0  0  0  0  0  0  0  0  0  0
   13.7555   40.1317    9.2068 O   0  0  0  0  0  0  0  0  0  0  0  0
   15.0390   44.8889    4.7806 O   0  0  0  0  0  0  0  0  0  0  0  0
   13.4845   43.3099    5.5595 N   0  0  0  0  0  0  0  0  0  0  0  0
   15.6910   43.7415    1.7862 N   0  0  0  0  0  0  0  0  0  0  0  0
   14.5043   45.1996    0.5827 N   0  0  0  0  0  0  0  0  0  0  0  0
   12.9638   43.5780    2.2361 S   0  0  0  0  0  0  0  0  0  0  0  0
  1  2  1  0
  2  3  1  0
  3  4  1  0
  4 17  1  0
  5 17  1  0
  6  7  2  0
  8  9  2  0
  9 19  1  0
 11 10  1  0
 11 22  1  0
 12 22  1  0
 13 20  1  0
 14 21  1  0
 15 21  1  0
 16  5  2  0
 19 10  1  0
 21 12  1  0
  5  6  1  0
  7  8  1  0
  9 16  1  0
 10 18  2  0
 12 20  2  0
 13 14  2  0
M  END
>  <rmsd>  (330) 
0.244992256

$$$$
Molport-053-239-364
     RDKit          3D

 31 33  0  0  0  0  0  0  0  0999 V2000
   10.6576   36.5550   13.5624 C   0  0  0  0  0  0  0  0  0  0  0  0
   10.4057   38.0644   13.4661 C   0  0  0  0  0  0  0  0  0  0  0  0
    9.2793   38.4888   14.4145 C   0  0  0  0  0  0  0  0  0  0  0  0
   10.0696   38.4596   12.0466 C   0  0  0  0  0  0  0  0  0  0  0  0
   10.1401   40.4297   10.5040 C   0  0  0  0  0  0  0  0  0  0  0  0
   12.2772   39.3942   11.3205 C   0  0  0  0  0  0  0  0  0  0  0  0
   14.3259   38.5077   11.5957 C   0  0  0  0  0  0  0  0  0  0  0  0
   14.6902   39.7005   10.9754 C   0  0  0  0  0  0  0  0  0  0  0  0
   16.0744   40.1543   10.7292 C   0  0  0  0  0  0  0  0  0  0  0  0
   17.1681   39.7935   11.4929 C   0  0  0  0  0  0  0  0  0  0  0  0
   18.2045   40.5527   10.9853 C   0  0  0  0  0  0  0  0  0  0  0  0
   15.7045   41.6325    8.7359 C   0  0  0  0  0  0  0  0  0  0  0  0
   14.9401   40.8162    7.8883 C   0  0  0  0  0  0  0  0  0  0  0  0
   14.2077   41.3793    6.8398 C   0  0  0  0  0  0  0  0  0  0  0  0
   14.2542   42.7603    6.6002 C   0  0  0  0  0  0  0  0  0  0  0  0
   13.8632   44.4525    4.7497 C   0  0  0  0  0  0  0  0  0  0  0  0
   12.8835   45.0886    3.8498 C   0  0  0  0  0  0  0  0  0  0  0  0
   13.1922   46.1264    3.0734 C   0  0  0  0  0  0  0  0  0  0  0  0
   15.0272   43.5761    7.4459 C   0  0  0  0  0  0  0  0  0  0  0  0
   15.7573   43.0125    8.4967 C   0  0  0  0  0  0  0  0  0  0  0  0
   19.6271   40.5024   11.4356 C   0  0  0  0  0  0  0  0  0  0  0  0
    9.0605   37.9505   11.4860 O   0  0  0  0  0  0  0  0  0  0  0  0
   15.0498   44.8795    4.8007 O   0  0  0  0  0  0  0  0  0  0  0  0
   10.8375   39.4580   11.3505 N   0  0  0  0  0  0  0  0  0  0  0  0
   12.9886   38.3365   11.7710 N   0  0  0  0  0  0  0  0  0  0  0  0
   17.7671   41.3021    9.9551 N   0  0  0  0  0  0  0  0  0  0  0  0
   16.4739   41.0608    9.8044 N   0  0  0  0  0  0  0  0  0  0  0  0
   13.4667   43.3178    5.5341 N   0  0  0  0  0  0  0  0  0  0  0  0
   13.2854   40.5801   10.6744 S   0  0  0  0  0  0  0  0  0  0  0  0
   20.3342   39.6297   10.6302 F   0  0  0  0  0  0  0  0  0  0  0  0
   20.1920   41.7621   11.3519 F   0  0  0  0  0  0  0  0  0  0  0  0
  1  2  1  0
  2  3  1  0
  2  4  1  0
  4 24  1  0
  5 24  1  0
  6 29  1  0
  7 25  1  0
  8 29  1  0
  8  9  1  0
 10 11  1  0
 13 14  2  0
 15 28  1  0
 15 19  2  0
 16 17  1  0
 20 12  2  0
 21 11  1  0
 21 30  1  0
 21 31  1  0
 24  6  1  0
 27 26  1  0
 27 12  1  0
 27  9  1  0
 28 16  1  0
  4 22  2  0
  6 25  2  0
  7  8  2  0
  9 10  2  0
 11 26  2  0
 12 13  1  0
 14 15  1  0
 16 23  2  0
 17 18  2  0
 19 20  1  0
M  END
>  <rmsd>  (331) 
0.244989455

$$$$
MolPort-047-015-614 MCULE-5605398052 PubChem-155985355
     RDKit          3D

 20 22  0  0  0  0  0  0  0  0999 V2000
   14.2004   42.7198    6.6453 C   0  0  0  0  0  0  0  0  0  0  0  0
   13.6418   41.7018    7.4177 C   0  0  0  0  0  0  0  0  0  0  0  0
   14.3923   41.1692    8.4657 C   0  0  0  0  0  0  0  0  0  0  0  0
   13.8149   40.0790    9.3055 C   0  0  2  0  0  0  0  0  0  0  0  0
   13.6588   40.5355   10.7570 C   0  0  0  0  0  0  0  0  0  0  0  0
   13.1472   39.3944   11.6405 C   0  0  0  0  0  0  0  0  0  0  0  0
   13.7316   38.0340   11.2379 C   0  0  0  0  0  0  0  0  0  0  0  0
   15.4881   36.8709   10.2232 C   0  0  0  0  0  0  0  0  0  0  0  0
   14.6537   38.7930    9.1809 C   0  0  0  0  0  0  0  0  0  0  0  0
   16.1726   42.6387    7.9524 C   0  0  0  0  0  0  0  0  0  0  0  0
   17.5393   43.1458    8.2401 C   0  0  0  0  0  0  0  0  0  0  0  0
   13.8806   44.3191    4.6924 C   0  0  0  0  0  0  0  0  0  0  0  0
   14.1384   46.0446    2.9577 C   0  0  0  0  0  0  0  0  0  0  0  0
   15.2295   45.8797    3.8125 C   0  0  0  0  0  0  0  0  0  0  0  0
   14.9718   38.2017   10.4838 N   0  0  0  0  0  0  0  0  0  0  0  0
   15.6423   41.6467    8.7137 N   0  0  0  0  0  0  0  0  0  0  0  0
   15.4540   43.1677    6.9281 N   0  0  0  0  0  0  0  0  0  0  0  0
   13.4403   43.2749    5.5667 N   0  0  0  0  0  0  0  0  0  0  0  0
   15.0826   44.9243    4.7704 N   0  0  0  0  0  0  0  0  0  0  0  0
   12.9606   44.9404    3.4422 S   0  0  0  0  0  0  0  0  0  0  0  0
  1 18  1  0
  1 17  2  0
  2  3  2  0
  4  3  1  6
  4  5  1  0
  5  6  1  0
  6  7  1  0
  7 15  1  0
  8 15  1  0
  9 15  1  0
  9  4  1  0
 10 16  2  0
 11 10  1  0
 12 20  1  0
 13 20  1  0
 14 19  1  0
 18 12  1  0
  1  2  1  0
  3 16  1  0
 10 17  1  0
 12 19  2  0
 13 14  2  0
M  END
>  <rmsd>  (332) 
0.244918689

$$$$
Molport-052-049-202 MCULE-4619615168 PubChem-110093683
     RDKit          3D

 27 30  0  0  0  0  0  0  0  0999 V2000
   12.8920   39.3455   11.4788 C   0  0  0  0  0  0  0  0  0  0  0  0
   13.5769   40.4617   10.6939 C   0  0  0  0  0  0  0  0  0  0  0  0
   13.7343   40.0604    9.2254 C   0  0  2  0  0  0  0  0  0  0  0  0
   14.5140   38.7500    9.1040 C   0  0  0  0  0  0  0  0  0  0  0  0
   13.6971   38.0553   11.3592 C   0  0  0  0  0  0  0  0  0  0  0  0
   13.3369   36.5462    9.3503 C   0  0  0  0  0  0  0  0  0  0  0  0
   13.0498   35.3223   10.1354 C   0  0  0  0  0  0  0  0  0  0  0  0
   12.2032   34.3371    9.6032 C   0  0  0  0  0  0  0  0  0  0  0  0
   11.9411   33.1638   10.3166 C   0  0  0  0  0  0  0  0  0  0  0  0
   12.5298   32.9607   11.5671 C   0  0  0  0  0  0  0  0  0  0  0  0
   13.3828   33.9289   12.1020 C   0  0  0  0  0  0  0  0  0  0  0  0
   13.6440   35.1016   11.3874 C   0  0  0  0  0  0  0  0  0  0  0  0
   14.3898   41.1491    8.4370 C   0  0  0  0  0  0  0  0  0  0  0  0
   14.2466   42.7216    6.6519 C   0  0  0  0  0  0  0  0  0  0  0  0
   15.5437   43.1729    6.9314 C   0  0  0  0  0  0  0  0  0  0  0  0
   16.2635   42.5981    7.9787 C   0  0  0  0  0  0  0  0  0  0  0  0
   15.6885   41.5804    8.7388 C   0  0  0  0  0  0  0  0  0  0  0  0
   13.8423   44.3234    4.6802 C   0  0  0  0  0  0  0  0  0  0  0  0
   15.4151   45.9137    3.8898 C   0  0  0  0  0  0  0  0  0  0  0  0
   14.5096   46.3241    2.9106 C   0  0  0  0  0  0  0  0  0  0  0  0
   12.9387   44.7368    3.6988 C   0  0  0  0  0  0  0  0  0  0  0  0
   13.8952   37.7312    9.9479 N   0  0  0  0  0  0  0  0  0  0  0  0
   13.7094   41.7268    7.4099 N   0  0  0  0  0  0  0  0  0  0  0  0
   13.4637   43.2786    5.5864 N   0  0  0  0  0  0  0  0  0  0  0  0
   15.0622   44.9240    4.7517 N   0  0  0  0  0  0  0  0  0  0  0  0
   13.2911   45.7267    2.8365 N   0  0  0  0  0  0  0  0  0  0  0  0
   13.0898   36.5430    8.1127 O   0  0  0  0  0  0  0  0  0  0  0  0
  1  2  1  0
  2  3  1  0
  3  4  1  0
  3 13  1  6
  4 22  1  0
  5 22  1  0
  5  1  1  0
  6  7  1  0
  8  9  2  0
 10 11  2  0
 12  7  2  0
 14 23  2  0
 14 24  1  0
 15 16  2  0
 17 13  2  0
 19 25  2  0
 20 26  2  0
 21 18  2  0
 22  6  1  0
 24 18  1  0
  6 27  2  0
  7  8  1  0
  9 10  1  0
 11 12  1  0
 13 23  1  0
 14 15  1  0
 16 17  1  0
 18 25  1  0
 19 20  1  0
 21 26  1  0
M  END
>  <rmsd>  (333) 
0.244887888

$$$$
Molport-020-295-290 MCULE-3562488290 PubChem-110267373
     RDKit          3D

 30 33  0  0  0  0  0  0  0  0999 V2000
   11.1605   45.6820    1.5502 C   0  0  0  0  0  0  0  0  0  0  0  0
   13.3594   45.7600    2.8078 C   0  0  0  0  0  0  0  0  0  0  0  0
   15.4421   45.9042    3.9198 C   0  0  0  0  0  0  0  0  0  0  0  0
   13.8496   44.3230    4.6722 C   0  0  0  0  0  0  0  0  0  0  0  0
   12.9637   44.7392    3.6792 C   0  0  0  0  0  0  0  0  0  0  0  0
   14.2346   42.7309    6.6356 C   0  0  0  0  0  0  0  0  0  0  0  0
   16.2382   42.6535    7.8944 C   0  0  0  0  0  0  0  0  0  0  0  0
   15.7088   41.6453    8.6965 C   0  0  0  0  0  0  0  0  0  0  0  0
   14.4107   41.1964    8.4318 C   0  0  0  0  0  0  0  0  0  0  0  0
   13.7846   40.1180    9.2562 C   0  0  2  0  0  0  0  0  0  0  0  0
   13.6191   40.5609   10.7125 C   0  0  0  0  0  0  0  0  0  0  0  0
   13.0917   39.4168   11.5822 C   0  0  0  0  0  0  0  0  0  0  0  0
   13.7051   38.0607   11.2073 C   0  0  0  0  0  0  0  0  0  0  0  0
   14.5617   38.7953    9.1210 C   0  0  0  0  0  0  0  0  0  0  0  0
   15.4618   36.9039   10.1821 C   0  0  0  0  0  0  0  0  0  0  0  0
   16.9848   36.9403   10.1659 C   0  0  0  0  0  0  0  0  0  0  0  0
   17.5484   37.2770   11.5423 C   0  0  0  0  0  0  0  0  0  0  0  0
   17.3467   36.1562   12.5083 C   0  0  0  0  0  0  0  0  0  0  0  0
   16.5109   36.3399   13.6150 C   0  0  0  0  0  0  0  0  0  0  0  0
   16.3223   35.3007   14.5312 C   0  0  0  0  0  0  0  0  0  0  0  0
   16.9730   34.0772   14.3445 C   0  0  0  0  0  0  0  0  0  0  0  0
   17.8140   33.8931   13.2428 C   0  0  0  0  0  0  0  0  0  0  0  0
   18.0026   34.9319   12.3261 C   0  0  0  0  0  0  0  0  0  0  0  0
   12.4912   46.2255    1.7717 N   0  0  0  0  0  0  0  0  0  0  0  0
   14.5896   46.3199    2.9472 N   0  0  0  0  0  0  0  0  0  0  0  0
   15.0708   44.9143    4.7727 N   0  0  0  0  0  0  0  0  0  0  0  0
   13.4506   43.2800    5.5697 N   0  0  0  0  0  0  0  0  0  0  0  0
   15.4967   43.1762    6.8838 N   0  0  0  0  0  0  0  0  0  0  0  0
   13.7044   41.7473    7.4096 N   0  0  0  0  0  0  0  0  0  0  0  0
   14.9265   38.2337   10.4244 N   0  0  0  0  0  0  0  0  0  0  0  0
  1 24  1  0
  3 25  2  0
  4 26  2  0
  4 27  1  0
  5  2  2  0
  6 29  2  0
  7 28  2  0
  8  9  2  0
 10  9  1  6
 10 11  1  0
 11 12  1  0
 12 13  1  0
 13 30  1  0
 14 30  1  0
 14 10  1  0
 15 30  1  0
 15 16  1  0
 16 17  1  0
 17 18  1  0
 19 20  2  0
 21 22  2  0
 23 18  2  0
 24  2  1  0
 27  6  1  0
  2 25  1  0
  3 26  1  0
  4  5  1  0
  6 28  1  0
  7  8  1  0
  9 29  1  0
 18 19  1  0
 20 21  1  0
 22 23  1  0
M  END
>  <rmsd>  (334) 
0.244881168

$$$$
MolPort-020-296-474 MCULE-4620783360 PubChem-110268416
     RDKit          3D

 30 33  0  0  0  0  0  0  0  0999 V2000
   10.5793   32.4360   12.5438 C   0  0  0  0  0  0  0  0  0  0  0  0
   11.0894   33.5630   11.7110 C   0  0  0  0  0  0  0  0  0  0  0  0
   12.1828   33.3989   10.8397 C   0  0  0  0  0  0  0  0  0  0  0  0
   12.6297   34.4821   10.0767 C   0  0  0  0  0  0  0  0  0  0  0  0
   11.9952   35.7246   10.1724 C   0  0  0  0  0  0  0  0  0  0  0  0
   10.9118   35.8865   11.0415 C   0  0  0  0  0  0  0  0  0  0  0  0
   10.4604   34.8084   11.8069 C   0  0  0  0  0  0  0  0  0  0  0  0
   13.8148   38.1095   11.3412 C   0  0  0  0  0  0  0  0  0  0  0  0
   12.9810   39.3850   11.4730 C   0  0  0  0  0  0  0  0  0  0  0  0
   13.6389   40.5135   10.6984 C   0  0  0  0  0  0  0  0  0  0  0  0
   13.7855   40.1006    9.2405 C   0  0  2  0  0  0  0  0  0  0  0  0
   14.5962   38.8044    9.1316 C   0  0  0  0  0  0  0  0  0  0  0  0
   14.4081   41.1925    8.4303 C   0  0  0  0  0  0  0  0  0  0  0  0
   14.2304   42.7342    6.6403 C   0  0  0  0  0  0  0  0  0  0  0  0
   16.2231   42.6745    7.9170 C   0  0  0  0  0  0  0  0  0  0  0  0
   15.6987   41.6559    8.7091 C   0  0  0  0  0  0  0  0  0  0  0  0
   13.8500   44.3234    4.6744 C   0  0  0  0  0  0  0  0  0  0  0  0
   15.4493   45.9046    3.9207 C   0  0  0  0  0  0  0  0  0  0  0  0
   14.5658   46.3246    2.9253 C   0  0  0  0  0  0  0  0  0  0  0  0
   12.9685   44.7461    3.6772 C   0  0  0  0  0  0  0  0  0  0  0  0
   12.8855   32.0902   10.7070 C   0  0  0  0  0  0  0  0  0  0  0  0
   12.5776   37.0803    9.2220 S   0  0  0  0  0  0  0  0  0  0  0  0
   11.5109   38.1388    9.1549 O   0  0  0  0  0  0  0  0  0  0  0  0
   12.8714   36.6063    7.8260 O   0  0  0  0  0  0  0  0  0  0  0  0
   14.0341   37.7134    9.9413 N   0  0  0  0  0  0  0  0  0  0  0  0
   13.7049   41.7406    7.4046 N   0  0  0  0  0  0  0  0  0  0  0  0
   15.4847   43.1932    6.9021 N   0  0  0  0  0  0  0  0  0  0  0  0
   13.4493   43.2795    5.5702 N   0  0  0  0  0  0  0  0  0  0  0  0
   15.0726   44.9147    4.7722 N   0  0  0  0  0  0  0  0  0  0  0  0
   13.3448   45.7362    2.8253 N   0  0  0  0  0  0  0  0  0  0  0  0
  1  2  1  0
  3  4  2  0
  5  6  2  0
  7  2  2  0
  8 25  1  0
  8  9  1  0
  9 10  1  0
 10 11  1  0
 11 12  1  0
 11 13  1  6
 12 25  1  0
 14 26  2  0
 14 28  1  0
 15 27  2  0
 16 13  2  0
 18 29  2  0
 19 30  2  0
 20 17  2  0
 21  3  1  0
 22  5  1  0
 22 25  1  0
 28 17  1  0
  2  3  1  0
  4  5  1  0
  6  7  1  0
 13 26  1  0
 14 27  1  0
 15 16  1  0
 17 29  1  0
 18 19  1  0
 20 30  1  0
 22 23  2  0
 22 24  2  0
M  END
>  <rmsd>  (335) 
0.244874433

$$$$
MolPort-020-293-018 MCULE-9021263157 PubChem-110265485
     RDKit          3D

 30 33  0  0  0  0  0  0  0  0999 V2000
   16.7613   46.5455    4.0134 C   0  0  0  0  0  0  0  0  0  0  0  0
   15.4268   45.9034    3.8926 C   0  0  0  0  0  0  0  0  0  0  0  0
   14.5443   46.3112    2.8942 C   0  0  0  0  0  0  0  0  0  0  0  0
   13.3016   45.6855    2.8154 C   0  0  0  0  0  0  0  0  0  0  0  0
   13.8476   44.3186    4.6691 C   0  0  0  0  0  0  0  0  0  0  0  0
   14.2349   42.7269    6.6536 C   0  0  0  0  0  0  0  0  0  0  0  0
   15.5344   43.1701    6.9348 C   0  0  0  0  0  0  0  0  0  0  0  0
   16.2468   42.5960    7.9877 C   0  0  0  0  0  0  0  0  0  0  0  0
   15.6619   41.5868    8.7516 C   0  0  0  0  0  0  0  0  0  0  0  0
   14.3605   41.1637    8.4484 C   0  0  0  0  0  0  0  0  0  0  0  0
   13.6956   40.0821    9.2386 C   0  0  2  0  0  0  0  0  0  0  0  0
   13.5473   40.4870   10.7051 C   0  0  0  0  0  0  0  0  0  0  0  0
   12.9495   39.3393   11.5116 C   0  0  0  0  0  0  0  0  0  0  0  0
   13.7850   38.0797   11.3007 C   0  0  0  0  0  0  0  0  0  0  0  0
   14.4734   38.7698    9.1295 C   0  0  0  0  0  0  0  0  0  0  0  0
   16.3757   36.5008   10.2850 C   0  0  0  0  0  0  0  0  0  0  0  0
   17.3610   36.9668    9.4068 C   0  0  0  0  0  0  0  0  0  0  0  0
   18.6679   37.1669    9.8610 C   0  0  0  0  0  0  0  0  0  0  0  0
   18.9923   36.9039   11.1952 C   0  0  0  0  0  0  0  0  0  0  0  0
   18.0098   36.4394   12.0751 C   0  0  0  0  0  0  0  0  0  0  0  0
   16.7030   36.2385   11.6206 C   0  0  0  0  0  0  0  0  0  0  0  0
   12.3311   46.0903    1.7653 C   0  0  0  0  0  0  0  0  0  0  0  0
   12.9772   44.7058    3.6991 N   0  0  0  0  0  0  0  0  0  0  0  0
   15.0653   44.9209    4.7582 N   0  0  0  0  0  0  0  0  0  0  0  0
   13.4607   43.2808    5.5803 N   0  0  0  0  0  0  0  0  0  0  0  0
   13.6880   41.7403    7.4154 N   0  0  0  0  0  0  0  0  0  0  0  0
   13.7935   37.7152    9.8829 N   0  0  0  0  0  0  0  0  0  0  0  0
   14.7279   36.2618    9.7158 S   0  0  0  0  0  0  0  0  0  0  0  0
   14.0836   35.1582   10.5084 O   0  0  0  0  0  0  0  0  0  0  0  0
   14.7586   35.8503    8.2697 O   0  0  0  0  0  0  0  0  0  0  0  0
  1  2  1  0
  2 24  2  0
  3  4  2  0
  5 23  2  0
  5 25  1  0
  6 26  2  0
  7  8  2  0
  9 10  2  0
 11 10  1  6
 11 12  1  0
 12 13  1  0
 13 14  1  0
 14 27  1  0
 15 27  1  0
 15 11  1  0
 17 18  2  0
 19 20  2  0
 21 16  2  0
 22  4  1  0
 25  6  1  0
 28 27  1  0
 28 16  1  0
  2  3  1  0
  4 23  1  0
  5 24  1  0
  6  7  1  0
  8  9  1  0
 10 26  1  0
 16 17  1  0
 18 19  1  0
 20 21  1  0
 28 29  2  0
 28 30  2  0
M  END
>  <rmsd>  (336) 
0.244862974

$$$$
MolPort-003-130-875 4496121 CHEMBL1334056 CSSS03437124622 ChemDiv-G856-7157 MCULE-8146897159 PubChem-7254204 ZINC000004496121
     RDKit          3D

 26 28  0  0  0  0  0  0  0  0999 V2000
   14.3710   42.6828    6.5814 C   0  0  0  0  0  0  0  0  0  0  0  0
   13.9423   44.2502    4.6206 C   0  0  0  0  0  0  0  0  0  0  0  0
   13.1291   44.4154    3.3846 C   0  0  0  0  0  0  0  0  0  0  0  0
   13.8345   41.6362    2.9235 C   0  0  0  0  0  0  0  0  0  0  0  0
   15.1191   41.1789    3.2410 C   0  0  0  0  0  0  0  0  0  0  0  0
   15.2854   39.9661    3.9156 C   0  0  0  0  0  0  0  0  0  0  0  0
   14.1672   39.2103    4.2795 C   0  0  0  0  0  0  0  0  0  0  0  0
   12.8831   39.6652    3.9650 C   0  0  0  0  0  0  0  0  0  0  0  0
   12.7165   40.8786    3.2906 C   0  0  0  0  0  0  0  0  0  0  0  0
   14.3435   37.9256    5.0049 C   0  0  0  0  0  0  0  0  0  0  0  0
   16.1637   41.7478    7.9314 C   0  0  0  0  0  0  0  0  0  0  0  0
   14.8933   41.2892    8.2482 C   0  0  0  0  0  0  0  0  0  0  0  0
   14.7125   40.3544    9.2720 C   0  0  0  0  0  0  0  0  0  0  0  0
   15.8527   39.8985    9.9669 C   0  0  0  0  0  0  0  0  0  0  0  0
   17.1350   40.3743    9.6345 C   0  0  0  0  0  0  0  0  0  0  0  0
   17.3012   41.3105    8.6032 C   0  0  0  0  0  0  0  0  0  0  0  0
   13.1569   38.9772   10.6323 C   0  0  0  0  0  0  0  0  0  0  0  0
   13.1685   39.6991   11.9667 C   0  0  0  0  0  0  0  0  0  0  0  0
   13.5261   43.2979    5.6043 N   0  0  0  0  0  0  0  0  0  0  0  0
   13.8896   41.8041    7.4923 N   0  0  0  0  0  0  0  0  0  0  0  0
   15.0056   44.9102    4.7606 O   0  0  0  0  0  0  0  0  0  0  0  0
   12.5655   43.1104    1.0998 O   0  0  0  0  0  0  0  0  0  0  0  0
   14.9120   43.6413    1.5311 O   0  0  0  0  0  0  0  0  0  0  0  0
   13.4261   39.8932    9.5768 O   0  0  0  0  0  0  0  0  0  0  0  0
   13.6204   43.2072    2.1656 S   0  0  0  0  0  0  0  0  0  0  0  0
   16.0598   42.8374    6.6609 S   0  0  0  0  0  0  0  0  0  0  0  0
  1 19  1  0
  1 26  1  0
  3  2  1  0
  3 25  1  0
  5  6  2  0
  7  8  2  0
  9  4  2  0
 10  7  1  0
 11 26  1  0
 12 13  2  0
 12 20  1  0
 13 24  1  0
 14 15  2  0
 16 11  2  0
 17 24  1  0
 17 18  1  0
 19  2  1  0
 25  4  1  0
  1 20  2  0
  2 21  2  0
  4  5  1  0
  6  7  1  0
  8  9  1  0
 11 12  1  0
 13 14  1  0
 15 16  1  0
 25 22  2  0
 25 23  2  0
M  END
>  <rmsd>  (337) 
0.244747981

$$$$
MolPort-006-735-402 ChemDiv-D411-0676 MCULE-3689023940 PubChem-46740345
     RDKit          3D

 34 37  0  0  0  0  0  0  0  0999 V2000
   12.0519   35.2610    4.1693 C   0  0  0  0  0  0  0  0  0  0  0  0
   12.0869   35.7421    5.6072 C   0  0  0  0  0  0  0  0  0  0  0  0
   13.3799   37.6934    5.7697 C   0  0  0  0  0  0  0  0  0  0  0  0
   13.3578   39.2103    5.9516 C   0  0  0  0  0  0  0  0  0  0  0  0
   11.2590   39.0623    7.0281 C   0  0  0  0  0  0  0  0  0  0  0  0
   11.2677   37.5442    6.8535 C   0  0  0  0  0  0  0  0  0  0  0  0
   12.6079   41.0157    7.3320 C   0  0  2  0  0  0  0  0  0  0  0  0
   13.9857   41.6261    7.3842 C   0  0  0  0  0  0  0  0  0  0  0  0
   14.3704   42.6818    6.5668 C   0  0  0  0  0  0  0  0  0  0  0  0
   13.8600   44.3912    4.7340 C   0  0  0  0  0  0  0  0  0  0  0  0
   12.8537   44.9134    3.8041 C   0  0  0  0  0  0  0  0  0  0  0  0
   13.0421   45.9533    2.9181 C   0  0  0  0  0  0  0  0  0  0  0  0
   11.8297   46.0835    2.2634 C   0  0  0  0  0  0  0  0  0  0  0  0
   10.9886   45.1189    2.7920 C   0  0  0  0  0  0  0  0  0  0  0  0
   16.1660   41.9366    8.1137 C   0  0  0  0  0  0  0  0  0  0  0  0
   17.3957   41.7595    8.9325 C   0  0  0  0  0  0  0  0  0  0  0  0
   17.3197   42.6264   10.1738 C   0  0  0  0  0  0  0  0  0  0  0  0
   14.9948   41.2055    8.2650 C   0  0  0  0  0  0  0  0  0  0  0  0
   11.7766   41.4821    8.5050 C   0  0  0  0  0  0  0  0  0  0  0  0
   11.9407   40.9637    9.8113 C   0  0  0  0  0  0  0  0  0  0  0  0
   13.1987   39.3355   11.2492 C   0  0  0  0  0  0  0  0  0  0  0  0
   11.1307   41.4713   10.8610 C   0  0  0  0  0  0  0  0  0  0  0  0
   10.4815   41.4554   13.2552 C   0  0  0  0  0  0  0  0  0  0  0  0
   10.1854   42.4711   10.5809 C   0  0  0  0  0  0  0  0  0  0  0  0
   10.0336   42.9697    9.2900 C   0  0  0  0  0  0  0  0  0  0  0  0
   10.8270   42.4768    8.2587 C   0  0  0  0  0  0  0  0  0  0  0  0
   12.0104   37.1924    5.6440 N   0  0  0  0  0  0  0  0  0  0  0  0
   12.6347   39.5497    7.1831 N   0  0  0  0  0  0  0  0  0  0  0  0
   13.5158   43.3009    5.5964 N   0  0  0  0  0  0  0  0  0  0  0  0
   15.0109   44.9037    4.7639 O   0  0  0  0  0  0  0  0  0  0  0  0
   11.6369   44.4415    3.7084 O   0  0  0  0  0  0  0  0  0  0  0  0
   12.9015   39.9559   10.0068 O   0  0  0  0  0  0  0  0  0  0  0  0
   11.2652   40.9843   12.1665 O   0  0  0  0  0  0  0  0  0  0  0  0
   15.9604   43.1076    6.9239 S   0  0  0  0  0  0  0  0  0  0  0  0
  1  2  1  0
  2 27  1  0
  3 27  1  0
  3  4  1  0
  4 28  1  0
  5 28  1  0
  5  6  1  0
  6 27  1  0
  7 28  1  1
  7  8  1  0
  7 19  1  0
  9 29  1  0
  9 34  1  0
 10 11  1  0
 11 31  1  0
 12 13  1  0
 14 31  1  0
 15 34  1  0
 16 15  1  0
 16 17  1  0
 18  8  1  0
 20 32  1  0
 20 22  2  0
 21 32  1  0
 22 33  1  0
 23 33  1  0
 24 25  2  0
 26 19  2  0
 29 10  1  0
  8  9  2  0
 10 30  2  0
 11 12  2  0
 13 14  2  0
 15 18  2  0
 19 20  1  0
 22 24  1  0
 25 26  1  0
M  END
>  <rmsd>  (338) 
0.244732052

$$$$
MolPort-020-295-152 MCULE-6573795014 PubChem-110267246
     RDKit          3D

 28 31  0  0  0  0  0  0  0  0999 V2000
   11.1696   45.6816    1.5415 C   0  0  0  0  0  0  0  0  0  0  0  0
   13.3661   45.7581    2.8030 C   0  0  0  0  0  0  0  0  0  0  0  0
   15.4464   45.9019    3.9197 C   0  0  0  0  0  0  0  0  0  0  0  0
   13.8503   44.3238    4.6711 C   0  0  0  0  0  0  0  0  0  0  0  0
   12.9673   44.7392    3.6751 C   0  0  0  0  0  0  0  0  0  0  0  0
   14.2274   42.7372    6.6403 C   0  0  0  0  0  0  0  0  0  0  0  0
   16.2169   42.6794    7.9221 C   0  0  0  0  0  0  0  0  0  0  0  0
   15.6908   41.6614    8.7139 C   0  0  0  0  0  0  0  0  0  0  0  0
   14.4011   41.1974    8.4325 C   0  0  0  0  0  0  0  0  0  0  0  0
   13.7774   40.1051    9.2416 C   0  0  2  0  0  0  0  0  0  0  0  0
   13.6321   40.5159   10.7011 C   0  0  0  0  0  0  0  0  0  0  0  0
   12.9941   39.3799   11.4835 C   0  0  0  0  0  0  0  0  0  0  0  0
   13.8328   38.1070   11.3291 C   0  0  0  0  0  0  0  0  0  0  0  0
   14.5883   38.8072    9.1321 C   0  0  0  0  0  0  0  0  0  0  0  0
   12.7207   37.3059    9.3576 C   0  0  0  0  0  0  0  0  0  0  0  0
   12.8794   36.2062    8.3529 C   0  0  0  0  0  0  0  0  0  0  0  0
   11.7460   35.7195    7.6966 C   0  0  0  0  0  0  0  0  0  0  0  0
   11.8846   34.6946    6.7589 C   0  0  0  0  0  0  0  0  0  0  0  0
   13.1478   34.1671    6.4866 C   0  0  0  0  0  0  0  0  0  0  0  0
   14.2586   34.6769    7.1617 C   0  0  0  0  0  0  0  0  0  0  0  0
   12.5010   46.2228    1.7641 N   0  0  0  0  0  0  0  0  0  0  0  0
   14.5967   46.3169    2.9445 N   0  0  0  0  0  0  0  0  0  0  0  0
   15.0722   44.9136    4.7732 N   0  0  0  0  0  0  0  0  0  0  0  0
   13.4488   43.2810    5.5677 N   0  0  0  0  0  0  0  0  0  0  0  0
   15.4809   43.1970    6.9050 N   0  0  0  0  0  0  0  0  0  0  0  0
   13.7005   41.7441    7.4043 N   0  0  0  0  0  0  0  0  0  0  0  0
   14.0071   37.7121    9.9239 N   0  0  0  0  0  0  0  0  0  0  0  0
   14.1037   35.6757    8.0721 N   0  0  0  0  0  0  0  0  0  0  0  0
  1 21  1  0
  3 22  2  0
  4 23  2  0
  4 24  1  0
  5  2  2  0
  6 26  2  0
  7 25  2  0
  8  9  2  0
 10  9  1  6
 10 11  1  0
 11 12  1  0
 12 13  1  0
 13 27  1  0
 14 27  1  0
 14 10  1  0
 15 27  1  0
 15 16  1  0
 16 28  2  0
 17 18  2  0
 19 20  2  0
 21  2  1  0
 24  6  1  0
  2 22  1  0
  3 23  1  0
  4  5  1  0
  6 25  1  0
  7  8  1  0
  9 26  1  0
 16 17  1  0
 18 19  1  0
 20 28  1  0
M  END
>  <rmsd>  (339) 
0.244700938

$$$$
MolPort-020-295-146 MCULE-5196958159 PubChem-110267240
     RDKit          3D

 28 31  0  0  0  0  0  0  0  0999 V2000
   11.1694   45.6842    1.5436 C   0  0  0  0  0  0  0  0  0  0  0  0
   13.3667   45.7588    2.8041 C   0  0  0  0  0  0  0  0  0  0  0  0
   15.4477   45.9007    3.9199 C   0  0  0  0  0  0  0  0  0  0  0  0
   13.8504   44.3240    4.6719 C   0  0  0  0  0  0  0  0  0  0  0  0
   12.9673   44.7401    3.6763 C   0  0  0  0  0  0  0  0  0  0  0  0
   14.2271   42.7368    6.6408 C   0  0  0  0  0  0  0  0  0  0  0  0
   16.2172   42.6773    7.9217 C   0  0  0  0  0  0  0  0  0  0  0  0
   15.6906   41.6596    8.7136 C   0  0  0  0  0  0  0  0  0  0  0  0
   14.4003   41.1967    8.4328 C   0  0  0  0  0  0  0  0  0  0  0  0
   13.7761   40.1050    9.2421 C   0  0  2  0  0  0  0  0  0  0  0  0
   13.6314   40.5161   10.7016 C   0  0  0  0  0  0  0  0  0  0  0  0
   12.9929   39.3807   11.4844 C   0  0  0  0  0  0  0  0  0  0  0  0
   13.8307   38.1073   11.3300 C   0  0  0  0  0  0  0  0  0  0  0  0
   14.5859   38.8065    9.1325 C   0  0  0  0  0  0  0  0  0  0  0  0
   12.7170   37.3069    9.3583 C   0  0  0  0  0  0  0  0  0  0  0  0
   12.8569   36.1802    8.3768 C   0  0  0  0  0  0  0  0  0  0  0  0
   11.7144   35.7071    7.7262 C   0  0  0  0  0  0  0  0  0  0  0  0
   12.9982   34.0966    6.5438 C   0  0  0  0  0  0  0  0  0  0  0  0
   14.1659   34.5356    7.1704 C   0  0  0  0  0  0  0  0  0  0  0  0
   14.0919   35.5819    8.0909 C   0  0  0  0  0  0  0  0  0  0  0  0
   12.5015   46.2243    1.7656 N   0  0  0  0  0  0  0  0  0  0  0  0
   14.5977   46.3166    2.9450 N   0  0  0  0  0  0  0  0  0  0  0  0
   15.0729   44.9127    4.7734 N   0  0  0  0  0  0  0  0  0  0  0  0
   13.4485   43.2814    5.5685 N   0  0  0  0  0  0  0  0  0  0  0  0
   15.4811   43.1955    6.9049 N   0  0  0  0  0  0  0  0  0  0  0  0
   13.6996   41.7440    7.4050 N   0  0  0  0  0  0  0  0  0  0  0  0
   14.0045   37.7121    9.9248 N   0  0  0  0  0  0  0  0  0  0  0  0
   11.8067   34.6860    6.8320 N   0  0  0  0  0  0  0  0  0  0  0  0
  1 21  1  0
  3 22  2  0
  4 23  2  0
  4 24  1  0
  5  2  2  0
  6 26  2  0
  7 25  2  0
  8  9  2  0
 10  9  1  6
 10 11  1  0
 11 12  1  0
 12 13  1  0
 13 27  1  0
 14 27  1  0
 14 10  1  0
 15 27  1  0
 15 16  1  0
 17 28  2  0
 18 19  2  0
 20 16  2  0
 21  2  1  0
 24  6  1  0
  2 22  1  0
  3 23  1  0
  4  5  1  0
  6 25  1  0
  7  8  1  0
  9 26  1  0
 16 17  1  0
 18 28  1  0
 19 20  1  0
M  END
>  <rmsd>  (340) 
0.244699806

$$$$
MolPort-046-956-104 MCULE-7546330212 PubChem-110095008
     RDKit          3D

 27 29  0  0  0  0  0  0  0  0999 V2000
   12.3502   46.1331    1.7769 C   0  0  0  0  0  0  0  0  0  0  0  0
   13.3154   45.7130    2.8257 C   0  0  0  0  0  0  0  0  0  0  0  0
   14.5623   46.3293    2.9123 C   0  0  0  0  0  0  0  0  0  0  0  0
   15.4394   45.9074    3.9094 C   0  0  0  0  0  0  0  0  0  0  0  0
   13.8482   44.3263    4.6682 C   0  0  0  0  0  0  0  0  0  0  0  0
   14.2197   42.7258    6.6463 C   0  0  0  0  0  0  0  0  0  0  0  0
   13.6537   41.7063    7.4153 C   0  0  0  0  0  0  0  0  0  0  0  0
   14.3807   41.1483    8.4701 C   0  0  0  0  0  0  0  0  0  0  0  0
   16.2114   42.5904    8.0099 C   0  0  0  0  0  0  0  0  0  0  0  0
   15.5130   43.1706    6.9497 C   0  0  0  0  0  0  0  0  0  0  0  0
   17.5838   43.0562    8.3377 C   0  0  0  0  0  0  0  0  0  0  0  0
   13.7699   40.0572    9.2838 C   0  0  2  0  0  0  0  0  0  0  0  0
   13.6523   40.4682   10.7424 C   0  0  0  0  0  0  0  0  0  0  0  0
   12.9726   39.3513   11.5133 C   0  0  0  0  0  0  0  0  0  0  0  0
   13.7853   38.0613   11.3955 C   0  0  0  0  0  0  0  0  0  0  0  0
   14.5849   38.7676    9.1586 C   0  0  0  0  0  0  0  0  0  0  0  0
   12.9791   36.9084    9.3709 C   0  0  0  0  0  0  0  0  0  0  0  0
   11.7337   37.6977    9.1052 C   0  0  0  0  0  0  0  0  0  0  0  0
   10.3621   39.0937    7.5191 C   0  0  0  0  0  0  0  0  0  0  0  0
   16.7790   46.5379    4.0371 C   0  0  0  0  0  0  0  0  0  0  0  0
   15.0698   44.9194    4.7649 N   0  0  0  0  0  0  0  0  0  0  0  0
   12.9822   44.7279    3.7002 N   0  0  0  0  0  0  0  0  0  0  0  0
   13.4534   43.2829    5.5690 N   0  0  0  0  0  0  0  0  0  0  0  0
   15.6372   41.5995    8.7424 N   0  0  0  0  0  0  0  0  0  0  0  0
   14.0605   37.6804   10.0004 N   0  0  0  0  0  0  0  0  0  0  0  0
   11.5465   38.3118    7.8299 N   0  0  0  0  0  0  0  0  0  0  0  0
   10.8406   37.7754    9.9907 O   0  0  0  0  0  0  0  0  0  0  0  0
  1  2  1  0
  2 22  2  0
  3  4  2  0
  5 21  2  0
  5 23  1  0
  7  8  2  0
  9 24  2  0
 10  6  2  0
 11  9  1  0
 12  8  1  6
 12 13  1  0
 13 14  1  0
 14 15  1  0
 15 25  1  0
 16 25  1  0
 16 12  1  0
 17 25  1  0
 17 18  1  0
 18 26  1  0
 19 26  1  0
 20  4  1  0
 23  6  1  0
  2  3  1  0
  4 21  1  0
  5 22  1  0
  6  7  1  0
  8 24  1  0
  9 10  1  0
 18 27  2  0
M  END
>  <rmsd>  (341) 
0.244646102

$$$$
Molport-020-293-006 MCULE-2810227855 PubChem-110265473
     RDKit          3D

 29 32  0  0  0  0  0  0  0  0999 V2000
   14.2272   39.4713    3.4525 C   0  0  0  0  0  0  0  0  0  0  0  0
   13.3155   38.5658    4.2515 C   0  0  0  0  0  0  0  0  0  0  0  0
   14.0557   37.2770    4.6051 C   0  0  0  0  0  0  0  0  0  0  0  0
   13.1381   36.3628    5.4129 C   0  0  0  0  0  0  0  0  0  0  0  0
   11.9675   38.3705    6.3550 C   0  0  0  0  0  0  0  0  0  0  0  0
   12.8701   39.2823    5.5239 C   0  0  0  0  0  0  0  0  0  0  0  0
   12.7295   36.5151    7.8892 C   0  0  0  0  0  0  0  0  0  0  0  0
   12.3536   37.3129    9.1019 C   0  0  0  0  0  0  0  0  0  0  0  0
   13.0745   38.1460   11.1841 C   0  0  0  0  0  0  0  0  0  0  0  0
   13.8077   39.3800   11.7152 C   0  0  0  0  0  0  0  0  0  0  0  0
   13.5845   40.5717   10.7800 C   0  0  0  0  0  0  0  0  0  0  0  0
   13.6084   40.1647    9.2999 C   0  0  2  0  0  0  0  0  0  0  0  0
   14.2367   38.7822    9.0932 C   0  0  0  0  0  0  0  0  0  0  0  0
   14.3068   41.1895    8.4660 C   0  0  0  0  0  0  0  0  0  0  0  0
   14.2214   42.7024    6.6276 C   0  0  0  0  0  0  0  0  0  0  0  0
   15.5676   43.0381    6.8284 C   0  0  0  0  0  0  0  0  0  0  0  0
   16.2813   42.4375    7.8649 C   0  0  0  0  0  0  0  0  0  0  0  0
   15.6533   41.5064    8.6905 C   0  0  0  0  0  0  0  0  0  0  0  0
   13.8682   44.2964    4.6426 C   0  0  0  0  0  0  0  0  0  0  0  0
   13.0128   44.6621    3.5995 C   0  0  0  0  0  0  0  0  0  0  0  0
   13.4091   45.6582    2.7034 C   0  0  0  0  0  0  0  0  0  0  0  0
   14.6484   46.2815    2.8582 C   0  0  0  0  0  0  0  0  0  0  0  0
   15.4762   45.8952    3.9145 C   0  0  0  0  0  0  0  0  0  0  0  0
   12.6337   37.0875    6.5772 N   0  0  0  0  0  0  0  0  0  0  0  0
   13.5411   37.7218    9.8485 N   0  0  0  0  0  0  0  0  0  0  0  0
   13.6322   41.7909    7.4486 N   0  0  0  0  0  0  0  0  0  0  0  0
   13.4499   43.2789    5.5638 N   0  0  0  0  0  0  0  0  0  0  0  0
   15.0727   44.9212    4.7747 N   0  0  0  0  0  0  0  0  0  0  0  0
   13.1520   35.3373    8.0346 O   0  0  0  0  0  0  0  0  0  0  0  0
  1  2  1  0
  2  3  1  0
  3  4  1  0
  4 24  1  0
  5 24  1  0
  5  6  1  0
  6  2  1  0
  8  7  1  0
  8 25  1  0
  9 25  1  0
  9 10  1  0
 10 11  1  0
 11 12  1  0
 12 13  1  0
 12 14  1  6
 13 25  1  0
 15 26  2  0
 15 27  1  0
 16 17  2  0
 18 14  2  0
 19 28  2  0
 20 21  2  0
 22 23  2  0
 24  7  1  0
 27 19  1  0
  7 29  2  0
 14 26  1  0
 15 16  1  0
 17 18  1  0
 19 20  1  0
 21 22  1  0
 23 28  1  0
M  END
>  <rmsd>  (342) 
0.244621351

$$$$
Molport-020-275-217 MCULE-2354780275 PubChem-110252894
     RDKit          3D

 22 24  0  0  0  0  0  0  0  0999 V2000
   11.5646   37.7958    9.2437 C   0  0  0  0  0  0  0  0  0  0  0  0
   12.8729   37.0145    9.2344 C   0  0  0  0  0  0  0  0  0  0  0  0
   12.6553   35.6208    9.7946 C   0  0  0  0  0  0  0  0  0  0  0  0
   13.7051   38.0648   11.3313 C   0  0  0  0  0  0  0  0  0  0  0  0
   12.9160   39.3700   11.4575 C   0  0  0  0  0  0  0  0  0  0  0  0
   13.6175   40.4826   10.6985 C   0  0  0  0  0  0  0  0  0  0  0  0
   13.7602   40.0764    9.2389 C   0  0  2  0  0  0  0  0  0  0  0  0
   14.5606   38.7759    9.1292 C   0  0  0  0  0  0  0  0  0  0  0  0
   14.3972   41.1662    8.4372 C   0  0  0  0  0  0  0  0  0  0  0  0
   15.6922   41.6192    8.7184 C   0  0  0  0  0  0  0  0  0  0  0  0
   15.5368   43.1719    6.9394 C   0  0  0  0  0  0  0  0  0  0  0  0
   14.2412   42.7243    6.6515 C   0  0  0  0  0  0  0  0  0  0  0  0
   13.8419   44.3231    4.6761 C   0  0  0  0  0  0  0  0  0  0  0  0
   15.4182   45.9084    3.8951 C   0  0  0  0  0  0  0  0  0  0  0  0
   14.5269   46.3263    2.9088 C   0  0  0  0  0  0  0  0  0  0  0  0
   13.2812   45.7059    2.8390 C   0  0  0  0  0  0  0  0  0  0  0  0
   13.9818   37.6882    9.9310 N   0  0  0  0  0  0  0  0  0  0  0  0
   16.2315   42.6110    7.9635 N   0  0  0  0  0  0  0  0  0  0  0  0
   13.7069   41.7310    7.4112 N   0  0  0  0  0  0  0  0  0  0  0  0
   13.4613   43.2793    5.5828 N   0  0  0  0  0  0  0  0  0  0  0  0
   15.0628   44.9201    4.7566 N   0  0  0  0  0  0  0  0  0  0  0  0
   12.9624   44.7208    3.7188 N   0  0  0  0  0  0  0  0  0  0  0  0
  1  2  1  0
  2  3  1  0
  2 17  1  0
  4 17  1  0
  4  5  1  0
  5  6  1  0
  6  7  1  0
  7  8  1  0
  7  9  1  6
  8 17  1  0
  9 19  2  0
 10 18  2  0
 11 12  2  0
 12 20  1  0
 13 22  2  0
 14 21  2  0
 15 16  2  0
 20 13  1  0
  9 10  1  0
 11 18  1  0
 12 19  1  0
 13 21  1  0
 14 15  1  0
 16 22  1  0
M  END
>  <rmsd>  (343) 
0.244591266

$$$$
MolPort-045-956-744 822752156 CSSS00160217614 MCULE-1807625006 PubChem-131896646 ZINC000822752156
     RDKit          3D

 27 28  0  0  0  0  0  0  0  0999 V2000
   13.9824   42.5342    1.9886 C   0  0  0  0  0  0  0  0  0  0  0  0
   13.9494   44.0472    2.1000 C   0  0  0  0  0  0  0  0  0  0  0  0
   13.1764   44.4739    3.3383 C   0  0  0  0  0  0  0  0  0  0  0  0
   13.9742   44.2374    4.5761 C   0  0  0  0  0  0  0  0  0  0  0  0
   14.2559   42.7840    6.6446 C   0  0  0  0  0  0  0  0  0  0  0  0
   13.6288   42.6285    7.8847 C   0  0  0  0  0  0  0  0  0  0  0  0
   14.3263   42.1006    8.9719 C   0  0  0  0  0  0  0  0  0  0  0  0
   15.6601   41.6992    8.8275 C   0  0  0  0  0  0  0  0  0  0  0  0
   15.8725   40.6979   11.1684 C   0  0  0  0  0  0  0  0  0  0  0  0
   14.6048   39.9330   11.2152 C   0  0  0  0  0  0  0  0  0  0  0  0
   13.7955   39.9262   12.3682 C   0  0  0  0  0  0  0  0  0  0  0  0
   12.6085   39.1773   12.4056 C   0  0  0  0  0  0  0  0  0  0  0  0
   10.6210   38.5219   13.7700 C   0  0  0  0  0  0  0  0  0  0  0  0
   12.2362   38.4186   11.2734 C   0  0  0  0  0  0  0  0  0  0  0  0
   13.0454   38.4183   10.1367 C   0  0  0  0  0  0  0  0  0  0  0  0
   14.2210   39.1661   10.1087 C   0  0  0  0  0  0  0  0  0  0  0  0
   16.2863   41.8379    7.5871 C   0  0  0  0  0  0  0  0  0  0  0  0
   15.5931   42.3614    6.4825 C   0  0  0  0  0  0  0  0  0  0  0  0
   17.5441   42.0190    4.9934 C   0  0  0  0  0  0  0  0  0  0  0  0
   15.0387   44.8845    4.7692 O   0  0  0  0  0  0  0  0  0  0  0  0
   16.5335   40.8696   12.2267 O   0  0  0  0  0  0  0  0  0  0  0  0
   11.8425   39.2218   13.5806 O   0  0  0  0  0  0  0  0  0  0  0  0
   16.2054   42.4355    5.2261 O   0  0  0  0  0  0  0  0  0  0  0  0
   13.4878   43.3183    5.5588 N   0  0  0  0  0  0  0  0  0  0  0  0
   16.4144   41.1927    9.9355 N   0  0  0  0  0  0  0  0  0  0  0  0
   14.1424   40.6643   13.4542 F   0  0  0  0  0  0  0  0  0  0  0  0
   11.1018   37.6770   11.2532 F   0  0  0  0  0  0  0  0  0  0  0  0
  1  2  1  0
  2  3  1  0
  3  4  1  0
  4 24  1  0
  6  7  2  0
  8 25  1  0
  8 17  2  0
  9 10  1  0
 11 26  1  0
 11 12  2  0
 12 22  1  0
 13 22  1  0
 14 27  1  0
 14 15  2  0
 16 10  2  0
 18 23  1  0
 18  5  2  0
 19 23  1  0
 24  5  1  0
 25  9  1  0
  4 20  2  0
  5  6  1  0
  7  8  1  0
  9 21  2  0
 10 11  1  0
 12 14  1  0
 15 16  1  0
 17 18  1  0
M  END
>  <rmsd>  (344) 
0.244558007

$$$$
MolPort-002-628-419 9328254 PubChem-1635251 ZINC000009328254 ZINC09328254
     RDKit          3D

 25 27  0  0  0  0  0  0  0  0999 V2000
   14.2899   38.7797   11.6936 C   0  0  0  0  0  0  0  0  0  0  0  0
   13.0457   39.4540   11.1464 C   0  0  0  0  0  0  0  0  0  0  0  0
   13.3305   40.0685    9.7879 C   0  0  0  0  0  0  0  0  0  0  0  0
   14.1376   41.3467    9.9429 C   0  0  0  0  0  0  0  0  0  0  0  0
   14.1629   42.8215    6.6855 C   0  0  0  0  0  0  0  0  0  0  0  0
   14.0329   44.1936    4.5374 C   0  0  0  0  0  0  0  0  0  0  0  0
   13.3021   44.4066    3.2376 C   0  0  0  0  0  0  0  0  0  0  0  0
   14.2519   44.8711    2.1460 C   0  0  0  0  0  0  0  0  0  0  0  0
   12.2289   45.4590    3.4328 C   0  0  0  0  0  0  0  0  0  0  0  0
   12.6475   43.1170    2.7750 C   0  0  0  0  0  0  0  0  0  0  0  0
   15.5255   42.6221    6.8434 C   0  0  0  0  0  0  0  0  0  0  0  0
   16.6347   42.8090    6.0246 C   0  0  0  0  0  0  0  0  0  0  0  0
   17.8826   42.4249    6.5452 C   0  0  0  0  0  0  0  0  0  0  0  0
   19.0441   42.5942    5.7885 C   0  0  0  0  0  0  0  0  0  0  0  0
   20.2812   42.2070    6.3126 C   0  0  0  0  0  0  0  0  0  0  0  0
   20.3636   41.6485    7.5930 C   0  0  0  0  0  0  0  0  0  0  0  0
   21.6841   41.2404    8.1385 C   0  0  0  0  0  0  0  0  0  0  0  0
   19.2084   41.4710    8.3609 C   0  0  0  0  0  0  0  0  0  0  0  0
   17.9646   41.8539    7.8529 C   0  0  0  0  0  0  0  0  0  0  0  0
   15.6436   42.0614    8.0815 C   0  0  0  0  0  0  0  0  0  0  0  0
   14.4310   41.9130    8.6358 N   0  0  0  0  0  0  0  0  0  0  0  0
   13.5148   42.3681    7.7870 N   0  0  0  0  0  0  0  0  0  0  0  0
   13.4784   43.3197    5.5298 N   0  0  0  0  0  0  0  0  0  0  0  0
   16.8351   41.6722    8.6008 N   0  0  0  0  0  0  0  0  0  0  0  0
   15.0627   44.8737    4.7996 O   0  0  0  0  0  0  0  0  0  0  0  0
  1  2  1  0
  2  3  1  0
  3  4  1  0
  4 21  1  0
  5 23  1  0
  5 11  1  0
  7  6  1  0
  7  8  1  0
  7  9  1  0
  7 10  1  0
 12 13  2  0
 14 15  2  0
 16 18  2  0
 17 16  1  0
 19 24  2  0
 19 13  1  0
 20 21  1  0
 20 11  2  0
 21 22  1  0
 23  6  1  0
  5 22  2  0
  6 25  2  0
 11 12  1  0
 13 14  1  0
 15 16  1  0
 18 19  1  0
 20 24  1  0
M  END
>  <rmsd>  (345) 
0.244515717

$$$$
Molport-020-292-488 MCULE-5409681055 PubChem-110264956
     RDKit          3D

 28 31  0  0  0  0  0  0  0  0999 V2000
   11.6128   44.1483    3.5010 C   0  0  0  0  0  0  0  0  0  0  0  0
   12.9639   44.7576    3.6578 C   0  0  0  0  0  0  0  0  0  0  0  0
   13.8479   44.3317    4.6633 C   0  0  0  0  0  0  0  0  0  0  0  0
   15.4726   45.9102    3.9259 C   0  0  0  0  0  0  0  0  0  0  0  0
   14.6190   46.3566    2.9170 C   0  0  0  0  0  0  0  0  0  0  0  0
   13.3585   45.7742    2.7861 C   0  0  0  0  0  0  0  0  0  0  0  0
   14.2119   42.7302    6.6469 C   0  0  0  0  0  0  0  0  0  0  0  0
   13.6464   41.7031    7.4064 C   0  0  0  0  0  0  0  0  0  0  0  0
   14.3671   41.1471    8.4667 C   0  0  0  0  0  0  0  0  0  0  0  0
   16.1903   42.6064    8.0309 C   0  0  0  0  0  0  0  0  0  0  0  0
   15.4980   43.1848    6.9657 C   0  0  0  0  0  0  0  0  0  0  0  0
   17.5549   43.0828    8.3753 C   0  0  0  0  0  0  0  0  0  0  0  0
   13.7584   40.0468    9.2706 C   0  0  2  0  0  0  0  0  0  0  0  0
   13.6283   40.4559   10.7393 C   0  0  0  0  0  0  0  0  0  0  0  0
   13.0004   39.3256   11.5528 C   0  0  0  0  0  0  0  0  0  0  0  0
   13.8430   38.0599   11.4253 C   0  0  0  0  0  0  0  0  0  0  0  0
   14.5846   38.7676    9.1414 C   0  0  0  0  0  0  0  0  0  0  0  0
   13.6276   36.4602    9.4943 C   0  0  0  0  0  0  0  0  0  0  0  0
   13.7832   36.1494    8.0360 C   0  0  0  0  0  0  0  0  0  0  0  0
   14.6411   34.9194    7.8250 C   0  0  0  0  0  0  0  0  0  0  0  0
   14.0686   34.2472    6.6000 C   0  0  0  0  0  0  0  0  0  0  0  0
   12.5880   34.5604    6.6263 C   0  0  0  0  0  0  0  0  0  0  0  0
   12.4391   35.8652    7.3875 C   0  0  0  0  0  0  0  0  0  0  0  0
   15.0735   44.9192    4.7673 N   0  0  0  0  0  0  0  0  0  0  0  0
   13.4516   43.2853    5.5646 N   0  0  0  0  0  0  0  0  0  0  0  0
   15.6168   41.6079    8.7535 N   0  0  0  0  0  0  0  0  0  0  0  0
   14.0250   37.7378   10.0127 N   0  0  0  0  0  0  0  0  0  0  0  0
   13.1355   35.5920   10.2671 O   0  0  0  0  0  0  0  0  0  0  0  0
  1  2  1  0
  3 24  2  0
  3 25  1  0
  4  5  2  0
  6  2  2  0
  8  9  2  0
 10 26  2  0
 11  7  2  0
 12 10  1  0
 13  9  1  6
 13 14  1  0
 14 15  1  0
 15 16  1  0
 16 27  1  0
 17 27  1  0
 17 13  1  0
 19 18  1  0
 19 20  1  0
 20 21  1  0
 21 22  1  0
 22 23  1  0
 23 19  1  0
 25  7  1  0
 27 18  1  0
  2  3  1  0
  4 24  1  0
  5  6  1  0
  7  8  1  0
  9 26  1  0
 10 11  1  0
 18 28  2  0
M  END
>  <rmsd>  (346) 
0.244508579

$$$$
Molport-047-073-947 MCULE-8851065548 PubChem-132767947
     RDKit          3D

 34 38  0  0  0  0  0  0  0  0999 V2000
   15.1944   45.8751    3.7810 C   0  0  0  0  0  0  0  0  0  0  0  0
   14.1017   45.9954    2.9167 C   0  0  0  0  0  0  0  0  0  0  0  0
   13.8857   44.2976    4.6863 C   0  0  0  0  0  0  0  0  0  0  0  0
   14.2305   42.6705    6.6218 C   0  0  0  0  0  0  0  0  0  0  0  0
   13.6347   41.7131    7.4418 C   0  0  0  0  0  0  0  0  0  0  0  0
   14.3998   41.1184    8.4423 C   0  0  0  0  0  0  0  0  0  0  0  0
   13.7781   40.0943    9.3319 C   0  0  2  0  0  0  0  0  0  0  0  0
   13.7617   40.5700   10.7864 C   0  0  0  0  0  0  0  0  0  0  0  0
   13.5425   39.4223   11.7761 C   0  0  0  0  0  0  0  0  0  0  0  0
   12.9801   38.1849   11.0775 C   0  0  0  0  0  0  0  0  0  0  0  0
   13.1340   36.8183    9.1760 C   0  0  0  0  0  0  0  0  0  0  0  0
   13.8182   35.5314    9.0204 C   0  0  0  0  0  0  0  0  0  0  0  0
   14.4931   38.7439    9.2072 C   0  0  0  0  0  0  0  0  0  0  0  0
   16.2692   42.4131    7.7938 C   0  0  0  0  0  0  0  0  0  0  0  0
   17.6903   42.7955    7.9965 C   0  0  0  0  0  0  0  0  0  0  0  0
   16.3875   46.7363    3.6567 C   0  0  0  0  0  0  0  0  0  0  0  0
   18.0632   45.1940    4.6583 C   0  0  0  0  0  0  0  0  0  0  0  0
   18.8528   45.0575    5.9542 C   0  0  0  0  0  0  0  0  0  0  0  0
   19.9955   46.0647    5.9727 C   0  0  0  0  0  0  0  0  0  0  0  0
   19.4900   47.4556    5.7343 C   0  0  0  0  0  0  0  0  0  0  0  0
   20.2236   48.5358    6.2329 C   0  0  0  0  0  0  0  0  0  0  0  0
   19.7756   49.8434    6.0306 C   0  0  0  0  0  0  0  0  0  0  0  0
   18.5887   50.0761    5.3329 C   0  0  0  0  0  0  0  0  0  0  0  0
   17.8526   49.0011    4.8293 C   0  0  0  0  0  0  0  0  0  0  0  0
   18.2987   47.6796    5.0087 C   0  0  0  0  0  0  0  0  0  0  0  0
   12.9551   44.8706    3.4199 S   0  0  0  0  0  0  0  0  0  0  0  0
   13.4533   43.2688    5.5810 N   0  0  0  0  0  0  0  0  0  0  0  0
   13.9068   37.6841   10.0517 N   0  0  0  0  0  0  0  0  0  0  0  0
   14.3562   34.5136    8.8972 N   0  0  0  0  0  0  0  0  0  0  0  0
   15.7016   41.4784    8.5998 N   0  0  0  0  0  0  0  0  0  0  0  0
   15.5363   43.0029    6.8121 N   0  0  0  0  0  0  0  0  0  0  0  0
   15.0713   44.9370    4.7632 N   0  0  0  0  0  0  0  0  0  0  0  0
   17.5347   46.5535    4.5082 N   0  0  0  0  0  0  0  0  0  0  0  0
   16.3963   47.6464    2.7829 O   0  0  0  0  0  0  0  0  0  0  0  0
  1 16  1  0
  1 32  1  0
  2 26  1  0
  3 26  1  0
  3 27  1  0
  4 31  2  0
  5  6  2  0
  7  6  1  6
  7  8  1  0
  8  9  1  0
  9 10  1  0
 10 28  1  0
 11 28  1  0
 11 12  1  0
 13 28  1  0
 13  7  1  0
 14 30  2  0
 15 14  1  0
 16 33  1  0
 17 33  1  0
 17 18  1  0
 18 19  1  0
 19 20  1  0
 21 22  2  0
 23 24  2  0
 25 33  1  0
 25 20  2  0
 27  4  1  0
  1  2  2  0
  3 32  2  0
  4  5  1  0
  6 30  1  0
 14 31  1  0
 16 34  2  0
 20 21  1  0
 22 23  1  0
 24 25  1  0
 12 29  3  0
M  END
>  <rmsd>  (347) 
0.2444987

$$$$
Molport-047-015-071 MCULE-1233663536 PubChem-155985059
     RDKit          3D

 27 29  0  0  0  0  0  0  0  0999 V2000
   16.4368   38.6715   10.6541 S   0  0  0  0  0  0  0  0  0  0  0  0
   12.9109   44.9084    3.4512 S   0  0  0  0  0  0  0  0  0  0  0  0
   17.1943   38.9034    9.3748 O   0  0  0  0  0  0  0  0  0  0  0  0
   16.3433   39.9699   11.4098 O   0  0  0  0  0  0  0  0  0  0  0  0
   17.2924   37.4931   11.6054 N   0  0  0  0  0  0  0  0  0  0  0  0
   14.8447   38.0698   10.2780 N   0  0  0  0  0  0  0  0  0  0  0  0
   13.6618   41.7231    7.4161 N   0  0  0  0  0  0  0  0  0  0  0  0
   13.4557   43.2723    5.5854 N   0  0  0  0  0  0  0  0  0  0  0  0
   15.0736   44.9316    4.7500 N   0  0  0  0  0  0  0  0  0  0  0  0
   16.6854   37.4548   12.9265 C   0  0  0  0  0  0  0  0  0  0  0  0
   16.6330   36.0240   13.4245 C   0  0  0  0  0  0  0  0  0  0  0  0
   18.6554   37.9707   11.7850 C   0  0  0  0  0  0  0  0  0  0  0  0
   19.5937   37.1896   10.8866 C   0  0  0  0  0  0  0  0  0  0  0  0
   13.9729   38.1441   11.4662 C   0  0  0  0  0  0  0  0  0  0  0  0
   12.9055   39.2389   11.4239 C   0  0  0  0  0  0  0  0  0  0  0  0
   13.4289   40.4507   10.6886 C   0  0  0  0  0  0  0  0  0  0  0  0
   13.6466   40.0625    9.2357 C   0  0  1  0  0  0  0  0  0  0  0  0
   14.3226   41.1447    8.4558 C   0  0  0  0  0  0  0  0  0  0  0  0
   15.6152   41.5742    8.7794 C   0  0  0  0  0  0  0  0  0  0  0  0
   16.2077   42.5878    8.0277 C   0  0  0  0  0  0  0  0  0  0  0  0
   15.5091   43.1623    6.9660 C   0  0  0  0  0  0  0  0  0  0  0  0
   14.2158   42.7142    6.6655 C   0  0  0  0  0  0  0  0  0  0  0  0
   13.8721   44.3138    4.6942 C   0  0  0  0  0  0  0  0  0  0  0  0
   14.0887   46.0049    2.9656 C   0  0  0  0  0  0  0  0  0  0  0  0
   15.2027   45.8806    3.7847 C   0  0  0  0  0  0  0  0  0  0  0  0
   13.9562   46.9591    1.8343 C   0  0  0  0  0  0  0  0  0  0  0  0
   14.3202   38.6904    9.0462 C   0  0  0  0  0  0  0  0  0  0  0  0
  1  5  1  0
  1  6  1  0
  8 23  1  0
 10  5  1  0
 10 11  1  0
 12  5  1  0
 12 13  1  0
 14  6  1  0
 14 15  1  0
 15 16  1  0
 16 17  1  0
 17 18  1  1
 17 27  1  0
 18  7  2  0
 19 20  2  0
 21 22  2  0
 22  8  1  0
 23  2  1  0
 24  2  1  0
 25  9  1  0
 26 24  1  0
 27  6  1  0
  1  3  2  0
  1  4  2  0
 18 19  1  0
 20 21  1  0
 22  7  1  0
 23  9  2  0
 24 25  2  0
M  END
>  <rmsd>  (348) 
0.244496763

$$$$
MolPort-020-275-226 CHEMBL3449729 MCULE-7637418685 PubChem-110252903
     RDKit          3D

 23 25  0  0  0  0  0  0  0  0999 V2000
   12.5097   37.0714    9.1937 S   0  0  0  0  0  0  0  0  0  0  0  0
   12.8070   36.6316    7.7877 O   0  0  0  0  0  0  0  0  0  0  0  0
   11.4380   38.1255    9.1646 O   0  0  0  0  0  0  0  0  0  0  0  0
   13.9666   37.6845    9.9289 N   0  0  0  0  0  0  0  0  0  0  0  0
   13.6993   41.7316    7.4121 N   0  0  0  0  0  0  0  0  0  0  0  0
   13.4591   43.2788    5.5821 N   0  0  0  0  0  0  0  0  0  0  0  0
   15.0654   44.9198    4.7578 N   0  0  0  0  0  0  0  0  0  0  0  0
   16.2229   42.6109    7.9701 N   0  0  0  0  0  0  0  0  0  0  0  0
   14.5464   38.7748    9.1304 C   0  0  0  0  0  0  0  0  0  0  0  0
   13.7478   40.0780    9.2406 C   0  0  2  0  0  0  0  0  0  0  0  0
   14.3867   41.1672    8.4402 C   0  0  0  0  0  0  0  0  0  0  0  0
   14.2359   42.7241    6.6531 C   0  0  0  0  0  0  0  0  0  0  0  0
   13.8434   44.3217    4.6761 C   0  0  0  0  0  0  0  0  0  0  0  0
   15.4380   45.9098    3.9024 C   0  0  0  0  0  0  0  0  0  0  0  0
   14.5602   46.3404    2.9060 C   0  0  0  0  0  0  0  0  0  0  0  0
   13.3033   45.7431    2.8025 C   0  0  0  0  0  0  0  0  0  0  0  0
   12.9403   44.7287    3.6902 C   0  0  0  0  0  0  0  0  0  0  0  0
   15.5310   43.1714    6.9440 C   0  0  0  0  0  0  0  0  0  0  0  0
   15.6812   41.6198    8.7244 C   0  0  0  0  0  0  0  0  0  0  0  0
   13.5989   40.4848   10.6998 C   0  0  0  0  0  0  0  0  0  0  0  0
   12.9230   39.3602   11.4645 C   0  0  0  0  0  0  0  0  0  0  0  0
   13.7400   38.0738   11.3296 C   0  0  0  0  0  0  0  0  0  0  0  0
   11.9211   35.6704   10.1173 C   0  0  0  0  0  0  0  0  0  0  0  0
  1  4  1  0
  1 23  1  0
  6 13  1  0
  9  4  1  0
  9 10  1  0
 10 11  1  6
 10 20  1  0
 12  5  2  0
 12  6  1  0
 14  7  2  0
 15 16  2  0
 17 13  2  0
 18  8  2  0
 19 11  2  0
 20 21  1  0
 21 22  1  0
 22  4  1  0
  1  2  2  0
  1  3  2  0
 11  5  1  0
 12 18  1  0
 13  7  1  0
 14 15  1  0
 16 17  1  0
 19  8  1  0
M  END
>  <rmsd>  (349) 
0.244490311

$$$$
MolPort-047-071-853 PubChem-132765792
     RDKit          3D

 29 32  0  0  0  0  0  0  0  0999 V2000
   11.6273   44.1636    3.4734 C   0  0  0  0  0  0  0  0  0  0  0  0
   12.9793   44.7660    3.6478 C   0  0  0  0  0  0  0  0  0  0  0  0
   13.3884   45.7846    2.7852 C   0  0  0  0  0  0  0  0  0  0  0  0
   14.6502   46.3604    2.9329 C   0  0  0  0  0  0  0  0  0  0  0  0
   15.4905   45.9052    3.9492 C   0  0  0  0  0  0  0  0  0  0  0  0
   13.8504   44.3313    4.6606 C   0  0  0  0  0  0  0  0  0  0  0  0
   14.2115   42.7349    6.6296 C   0  0  0  0  0  0  0  0  0  0  0  0
   13.6591   41.7131    7.4057 C   0  0  0  0  0  0  0  0  0  0  0  0
   14.3980   41.1674    8.4579 C   0  0  0  0  0  0  0  0  0  0  0  0
   15.6860   41.6522    8.7200 C   0  0  0  0  0  0  0  0  0  0  0  0
   16.2064   42.6740    7.9244 C   0  0  0  0  0  0  0  0  0  0  0  0
   13.7978   40.0709    9.2789 C   0  0  2  0  0  0  0  0  0  0  0  0
   13.6713   40.4843   10.7476 C   0  0  0  0  0  0  0  0  0  0  0  0
   13.0376   39.3597   11.5642 C   0  0  0  0  0  0  0  0  0  0  0  0
   13.8714   38.0882   11.4370 C   0  0  0  0  0  0  0  0  0  0  0  0
   14.6091   38.7813    9.1476 C   0  0  0  0  0  0  0  0  0  0  0  0
   13.6386   36.4795    9.5156 C   0  0  0  0  0  0  0  0  0  0  0  0
   13.7876   36.1667    8.0853 C   0  0  0  0  0  0  0  0  0  0  0  0
   13.4211   34.9938    7.5769 C   0  0  0  0  0  0  0  0  0  0  0  0
   13.5707   34.6868    6.1505 C   0  0  0  0  0  0  0  0  0  0  0  0
   14.0832   35.5209    5.1813 C   0  0  0  0  0  0  0  0  0  0  0  0
   13.5112   33.6479    4.3029 C   0  0  0  0  0  0  0  0  0  0  0  0
   15.0777   44.9122    4.7815 N   0  0  0  0  0  0  0  0  0  0  0  0
   13.4415   43.2846    5.5539 N   0  0  0  0  0  0  0  0  0  0  0  0
   15.4661   43.1889    6.9065 N   0  0  0  0  0  0  0  0  0  0  0  0
   14.0436   37.7592   10.0246 N   0  0  0  0  0  0  0  0  0  0  0  0
   14.0417   34.8545    4.0135 N   0  0  0  0  0  0  0  0  0  0  0  0
   13.2102   33.5124    5.6097 N   0  0  0  0  0  0  0  0  0  0  0  0
   13.1503   35.6183   10.2984 O   0  0  0  0  0  0  0  0  0  0  0  0
  1  2  1  0
  3  4  2  0
  5 23  2  0
  6 24  1  0
  6  2  2  0
  7 25  2  0
  8  9  2  0
 10 11  2  0
 12  9  1  6
 12 13  1  0
 13 14  1  0
 14 15  1  0
 15 26  1  0
 16 26  1  0
 16 12  1  0
 17 18  1  0
 19 20  1  0
 21 27  1  0
 22 28  1  0
 24  7  1  0
 26 17  1  0
 28 20  1  0
  2  3  1  0
  4  5  1  0
  6 23  1  0
  7  8  1  0
  9 10  1  0
 11 25  1  0
 17 29  2  0
 18 19  2  0
 20 21  2  0
 22 27  2  0
M  END
>  <rmsd>  (350) 
0.24447678

$$$$
MolPort-051-666-280 Molport-051-666-279 MCULE-7009088479 MCULE-8366614588 PubChem-110089569
     RDKit          3D

 19 21  0  0  0  0  0  0  0  0999 V2000
   13.6406   46.6495    1.9714 C   0  0  0  0  0  0  0  0  0  0  0  0
   13.9523   45.7731    3.1308 C   0  0  0  0  0  0  0  0  0  0  0  0
   13.1073   44.8182    3.6626 C   0  0  0  0  0  0  0  0  0  0  0  0
   13.8795   44.3164    4.6930 C   0  0  0  0  0  0  0  0  0  0  0  0
   14.2018   42.7112    6.6630 C   0  0  0  0  0  0  0  0  0  0  0  0
   15.4949   43.1537    6.9733 C   0  0  0  0  0  0  0  0  0  0  0  0
   16.1847   42.5745    8.0384 C   0  0  0  0  0  0  0  0  0  0  0  0
   15.5838   41.5616    8.7849 C   0  0  0  0  0  0  0  0  0  0  0  0
   14.2899   41.1393    8.4516 C   0  0  0  0  0  0  0  0  0  0  0  0
   13.6087   40.0563    9.2261 C   0  0  2  0  0  0  0  0  0  0  0  0
   13.3839   40.4821   10.6810 C   0  0  0  0  0  0  0  0  0  0  0  0
   13.0192   39.2786   11.5478 C   0  0  0  0  0  0  0  0  0  0  0  0
   14.0113   38.1145   11.3797 C   0  0  0  0  0  0  0  0  0  0  0  0
   14.3677   38.7248    9.1082 C   0  0  0  0  0  0  0  0  0  0  0  0
   15.0763   44.9304    4.7547 N   0  0  0  0  0  0  0  0  0  0  0  0
   13.4518   43.2744    5.5786 N   0  0  0  0  0  0  0  0  0  0  0  0
   13.6386   41.7209    7.4078 N   0  0  0  0  0  0  0  0  0  0  0  0
   15.0330   38.3859   10.3648 N   0  0  0  0  0  0  0  0  0  0  0  0
   15.0823   45.8040    3.7946 O   0  0  0  0  0  0  0  0  0  0  0  0
  1  2  1  0
  2 19  1  0
  3  4  1  0
  4 16  1  0
  5 17  2  0
  6  7  2  0
  8  9  2  0
 10  9  1  6
 10 11  1  0
 11 12  1  0
 12 13  1  0
 13 18  1  0
 14 18  1  0
 14 10  1  0
 15 19  1  0
 16  5  1  0
  2  3  2  0
  4 15  2  0
  5  6  1  0
  7  8  1  0
  9 17  1  0
M  END
>  <rmsd>  (351) 
0.244434804

$$$$
MolPort-002-774-944 20607528 CSSS00133006747 ChemDiv-F018-3348 MCULE-2222494242 PubChem-19591018 ZINC000020607528 ZINC20607528
     RDKit          3D

 26 28  0  0  0  0  0  0  0  0999 V2000
   12.8802   39.5059   12.1043 C   0  0  0  0  0  0  0  0  0  0  0  0
   13.8660   39.2165   10.9924 C   0  0  0  0  0  0  0  0  0  0  0  0
   13.8984   40.3849   10.0307 C   0  0  0  0  0  0  0  0  0  0  0  0
   14.8861   40.0951    8.9169 C   0  0  0  0  0  0  0  0  0  0  0  0
   14.3371   42.6297    6.4962 C   0  0  0  0  0  0  0  0  0  0  0  0
   13.8767   44.4133    4.7369 C   0  0  0  0  0  0  0  0  0  0  0  0
   12.9019   44.9709    3.7575 C   0  0  0  0  0  0  0  0  0  0  0  0
   13.8933   43.4571    0.6934 C   0  0  0  0  0  0  0  0  0  0  0  0
   12.8369   42.6305    1.0311 C   0  0  0  0  0  0  0  0  0  0  0  0
   12.3066   43.1585    2.1435 C   0  0  0  0  0  0  0  0  0  0  0  0
   11.6674   42.1532    3.0148 C   0  0  0  0  0  0  0  0  0  0  0  0
   11.7896   40.8612    2.1799 C   0  0  0  0  0  0  0  0  0  0  0  0
   12.6695   41.1675    0.9494 C   0  0  0  0  0  0  0  0  0  0  0  0
   14.9806   43.1457   -0.2850 C   0  0  0  0  0  0  0  0  0  0  0  0
   15.6653   42.9370    6.7687 C   0  0  0  0  0  0  0  0  0  0  0  0
   15.9923   41.9961    7.7269 C   0  0  0  0  0  0  0  0  0  0  0  0
   17.3257   41.8661    8.3794 C   0  0  0  0  0  0  0  0  0  0  0  0
   14.9300   41.2120    7.9846 N   0  0  0  0  0  0  0  0  0  0  0  0
   13.9110   41.5870    7.2333 N   0  0  0  0  0  0  0  0  0  0  0  0
   13.4940   43.3014    5.5539 N   0  0  0  0  0  0  0  0  0  0  0  0
   12.9980   44.2576    2.4922 N   0  0  0  0  0  0  0  0  0  0  0  0
   13.9744   44.4471    1.6135 N   0  0  0  0  0  0  0  0  0  0  0  0
   15.0338   44.9060    4.8074 O   0  0  0  0  0  0  0  0  0  0  0  0
   15.9042   42.3037    0.3052 F   0  0  0  0  0  0  0  0  0  0  0  0
   15.6113   44.3136   -0.6728 F   0  0  0  0  0  0  0  0  0  0  0  0
   14.4482   42.5294   -1.4027 F   0  0  0  0  0  0  0  0  0  0  0  0
  1  2  1  0
  2  3  1  0
  3  4  1  0
  4 18  1  0
  5 20  1  0
  5 15  1  0
  7  6  1  0
  7 21  1  0
  8  9  1  0
 10 21  1  0
 11 10  1  0
 11 12  1  0
 12 13  1  0
 13  9  1  0
 14  8  1  0
 14 24  1  0
 14 25  1  0
 14 26  1  0
 16 18  1  0
 17 16  1  0
 18 19  1  0
 20  6  1  0
 21 22  1  0
  5 19  2  0
  6 23  2  0
  8 22  2  0
  9 10  2  0
 15 16  2  0
M  END
>  <rmsd>  (352) 
0.244434521

$$$$
MolPort-000-115-472 4931121 MCULE-4916726914 PubChem-3231576 ZINC000004931121 ZINC04931121
     RDKit          3D

 24 25  0  0  0  0  0  0  0  0999 V2000
   11.8174   41.3523    1.9844 C   0  0  0  0  0  0  0  0  0  0  0  0
   11.9035   42.5088    2.9575 C   0  0  0  0  0  0  0  0  0  0  0  0
   12.9522   43.4950    2.4788 C   0  0  0  0  0  0  0  0  0  0  0  0
   13.0785   44.6561    3.4524 C   0  0  0  0  0  0  0  0  0  0  0  0
   13.9377   44.2908    4.6159 C   0  0  0  0  0  0  0  0  0  0  0  0
   14.3049   42.7041    6.5672 C   0  0  0  0  0  0  0  0  0  0  0  0
   13.7844   42.5745    7.8572 C   0  0  0  0  0  0  0  0  0  0  0  0
   15.7645   41.4947    8.6073 C   0  0  0  0  0  0  0  0  0  0  0  0
   16.0232   40.5068   10.9412 C   0  0  0  0  0  0  0  0  0  0  0  0
   14.6608   39.9475   11.0993 C   0  0  0  0  0  0  0  0  0  0  0  0
   13.9555   40.0705   12.3135 C   0  0  0  0  0  0  0  0  0  0  0  0
   12.6808   39.5101   12.4443 C   0  0  0  0  0  0  0  0  0  0  0  0
   12.1034   38.8172   11.3782 C   0  0  0  0  0  0  0  0  0  0  0  0
   12.7997   38.6809   10.1760 C   0  0  0  0  0  0  0  0  0  0  0  0
   14.0725   39.2401   10.0396 C   0  0  0  0  0  0  0  0  0  0  0  0
   16.3171   41.5858    7.3294 C   0  0  0  0  0  0  0  0  0  0  0  0
   15.5876   42.1820    6.2990 C   0  0  0  0  0  0  0  0  0  0  0  0
   16.1705   42.1709    4.9273 C   0  0  0  0  0  0  0  0  0  0  0  0
   15.0307   44.8929    4.7887 O   0  0  0  0  0  0  0  0  0  0  0  0
   16.7838   40.5787   11.9426 O   0  0  0  0  0  0  0  0  0  0  0  0
   13.4879   43.3104    5.5577 N   0  0  0  0  0  0  0  0  0  0  0  0
   14.5181   41.9902    8.8409 N   0  0  0  0  0  0  0  0  0  0  0  0
   16.5344   40.9119    9.6640 N   0  0  0  0  0  0  0  0  0  0  0  0
   14.4841   40.7471   13.3637 F   0  0  0  0  0  0  0  0  0  0  0  0
  1  2  1  0
  2  3  1  0
  3  4  1  0
  4  5  1  0
  5 21  1  0
  7 22  2  0
  8 23  1  0
  8 16  2  0
  9 10  1  0
 11 24  1  0
 11 12  2  0
 13 14  2  0
 15 10  2  0
 17  6  2  0
 18 17  1  0
 21  6  1  0
 23  9  1  0
  5 19  2  0
  6  7  1  0
  8 22  1  0
  9 20  2  0
 10 11  1  0
 12 13  1  0
 14 15  1  0
 16 17  1  0
M  END
>  <rmsd>  (353) 
0.244375452

$$$$
Molport-047-891-759 MCULE-9852795841 PubChem-165933824
     RDKit          3D

 23 24  0  0  0  0  0  0  0  0999 V2000
   15.7491   44.1227   -0.3794 C   0  0  0  0  0  0  0  0  0  0  0  0
   16.3285   44.9456    0.5916 C   0  0  0  0  0  0  0  0  0  0  0  0
   15.5369   45.4956    1.6045 C   0  0  0  0  0  0  0  0  0  0  0  0
   14.1649   45.2252    1.6464 C   0  0  0  0  0  0  0  0  0  0  0  0
   13.5867   44.3991    0.6759 C   0  0  0  0  0  0  0  0  0  0  0  0
   14.3784   43.8491   -0.3370 C   0  0  0  0  0  0  0  0  0  0  0  0
   13.3247   45.8005    2.7359 C   0  0  0  0  0  0  0  0  0  0  0  0
   13.8926   44.3660    4.6697 C   0  0  0  0  0  0  0  0  0  0  0  0
   14.2764   42.7336    6.6097 C   0  0  0  0  0  0  0  0  0  0  0  0
   13.7107   41.7162    7.3860 C   0  0  0  0  0  0  0  0  0  0  0  0
   14.4375   41.1177    8.4205 C   0  0  0  0  0  0  0  0  0  0  0  0
   15.7492   41.5459    8.6789 C   0  0  0  0  0  0  0  0  0  0  0  0
   16.3222   42.5605    7.9087 C   0  0  0  0  0  0  0  0  0  0  0  0
   15.5884   43.1523    6.8776 C   0  0  0  0  0  0  0  0  0  0  0  0
   14.5006   39.4435   10.2408 C   0  0  0  0  0  0  0  0  0  0  0  0
   13.5723   38.4204   10.8757 C   0  0  0  0  0  0  0  0  0  0  0  0
   12.4224   39.0987   11.6048 C   0  0  0  0  0  0  0  0  0  0  0  0
   12.8860   39.6805   12.8685 C   0  0  0  0  0  0  0  0  0  0  0  0
   12.9941   44.7988    3.6918 O   0  0  0  0  0  0  0  0  0  0  0  0
   15.0321   44.8982    4.7679 O   0  0  0  0  0  0  0  0  0  0  0  0
   13.8352   40.1058    9.1725 O   0  0  0  0  0  0  0  0  0  0  0  0
   13.4926   43.3158    5.5590 N   0  0  0  0  0  0  0  0  0  0  0  0
   13.2514   40.1402   13.8656 N   0  0  0  0  0  0  0  0  0  0  0  0
  2  3  2  0
  4  5  2  0
  6  1  2  0
  7  4  1  0
  7 19  1  0
  8 19  1  0
  8 22  1  0
 10 11  2  0
 11 21  1  0
 12 13  2  0
 14  9  2  0
 15 21  1  0
 15 16  1  0
 16 17  1  0
 17 18  1  0
 22  9  1  0
  1  2  1  0
  3  4  1  0
  5  6  1  0
  8 20  2  0
  9 10  1  0
 11 12  1  0
 13 14  1  0
 18 23  3  0
M  END
>  <rmsd>  (354) 
0.244373024

$$$$
Molport-020-275-227 MCULE-3494478915 PubChem-110252904
     RDKit          3D

 23 25  0  0  0  0  0  0  0  0999 V2000
   12.8750   36.4703    7.5645 C   0  0  0  0  0  0  0  0  0  0  0  0
   13.7465   38.0760   11.3292 C   0  0  0  0  0  0  0  0  0  0  0  0
   12.9244   39.3594   11.4623 C   0  0  0  0  0  0  0  0  0  0  0  0
   13.5985   40.4854   10.6983 C   0  0  0  0  0  0  0  0  0  0  0  0
   13.7495   40.0791    9.2392 C   0  0  2  0  0  0  0  0  0  0  0  0
   14.5487   38.7762    9.1284 C   0  0  0  0  0  0  0  0  0  0  0  0
   14.3881   41.1690    8.4393 C   0  0  0  0  0  0  0  0  0  0  0  0
   15.6819   41.6226    8.7246 C   0  0  0  0  0  0  0  0  0  0  0  0
   15.5320   43.1741    6.9441 C   0  0  0  0  0  0  0  0  0  0  0  0
   14.2374   42.7257    6.6521 C   0  0  0  0  0  0  0  0  0  0  0  0
   13.8443   44.3226    4.6739 C   0  0  0  0  0  0  0  0  0  0  0  0
   13.2892   45.7037    2.8338 C   0  0  0  0  0  0  0  0  0  0  0  0
   14.5347   46.3245    2.9072 C   0  0  0  0  0  0  0  0  0  0  0  0
   15.4227   45.9076    3.8967 C   0  0  0  0  0  0  0  0  0  0  0  0
   12.5142   37.0673    9.2002 S   0  0  0  0  0  0  0  0  0  0  0  0
   11.4628   38.1383    9.1102 O   0  0  0  0  0  0  0  0  0  0  0  0
   11.9877   35.9267   10.0249 O   0  0  0  0  0  0  0  0  0  0  0  0
   13.9721   37.6855    9.9290 N   0  0  0  0  0  0  0  0  0  0  0  0
   16.2233   42.6141    7.9708 N   0  0  0  0  0  0  0  0  0  0  0  0
   13.7011   41.7328    7.4106 N   0  0  0  0  0  0  0  0  0  0  0  0
   13.4610   43.2795    5.5803 N   0  0  0  0  0  0  0  0  0  0  0  0
   12.9678   44.7194    3.7133 N   0  0  0  0  0  0  0  0  0  0  0  0
   15.0647   44.9199    4.7579 N   0  0  0  0  0  0  0  0  0  0  0  0
  1 15  1  0
  2 18  1  0
  2  3  1  0
  3  4  1  0
  4  5  1  0
  5  6  1  0
  5  7  1  6
  6 18  1  0
  7 20  2  0
  8 19  2  0
  9 10  2  0
 10 21  1  0
 11 23  2  0
 12 22  2  0
 13 14  2  0
 15 18  1  0
 21 11  1  0
  7  8  1  0
  9 19  1  0
 10 20  1  0
 11 22  1  0
 12 13  1  0
 14 23  1  0
 15 16  2  0
 15 17  2  0
M  END
>  <rmsd>  (355) 
0.244331121

$$$$
MolPort-020-278-672 MCULE-2162936154 PubChem-110255544
     RDKit          3D

 27 30  0  0  0  0  0  0  0  0999 V2000
   16.7887   46.5329    4.0430 C   0  0  0  0  0  0  0  0  0  0  0  0
   15.4460   45.9106    3.9087 C   0  0  0  0  0  0  0  0  0  0  0  0
   13.8464   44.3228    4.6729 C   0  0  0  0  0  0  0  0  0  0  0  0
   12.9486   44.7311    3.6827 C   0  0  0  0  0  0  0  0  0  0  0  0
   13.3167   45.7459    2.7977 C   0  0  0  0  0  0  0  0  0  0  0  0
   14.5734   46.3425    2.9081 C   0  0  0  0  0  0  0  0  0  0  0  0
   14.2287   42.7237    6.6510 C   0  0  0  0  0  0  0  0  0  0  0  0
   14.3698   41.1684    8.4345 C   0  0  0  0  0  0  0  0  0  0  0  0
   16.2106   42.5870    8.0025 C   0  0  0  0  0  0  0  0  0  0  0  0
   15.5207   43.1735    6.9439 C   0  0  0  0  0  0  0  0  0  0  0  0
   17.5844   43.0433    8.3377 C   0  0  0  0  0  0  0  0  0  0  0  0
   13.7329   40.0806    9.2338 C   0  0  2  0  0  0  0  0  0  0  0  0
   13.5924   40.4972   10.6912 C   0  0  0  0  0  0  0  0  0  0  0  0
   12.9580   39.3641   11.4804 C   0  0  0  0  0  0  0  0  0  0  0  0
   13.8019   38.0945   11.3328 C   0  0  0  0  0  0  0  0  0  0  0  0
   14.5493   38.7862    9.1293 C   0  0  0  0  0  0  0  0  0  0  0  0
   12.6992   37.2775    9.3569 C   0  0  0  0  0  0  0  0  0  0  0  0
   12.5987   35.7902    9.3523 C   0  0  0  0  0  0  0  0  0  0  0  0
   12.4186   33.7937    8.6503 C   0  0  0  0  0  0  0  0  0  0  0  0
   12.4799   33.7803   10.0301 C   0  0  0  0  0  0  0  0  0  0  0  0
   15.0682   44.9204    4.7610 N   0  0  0  0  0  0  0  0  0  0  0  0
   13.4573   43.2794    5.5764 N   0  0  0  0  0  0  0  0  0  0  0  0
   13.6848   41.7313    7.4043 N   0  0  0  0  0  0  0  0  0  0  0  0
   15.6274   41.5986    8.7275 N   0  0  0  0  0  0  0  0  0  0  0  0
   13.9775   37.6933    9.9283 N   0  0  0  0  0  0  0  0  0  0  0  0
   12.4925   35.0679    8.2239 N   0  0  0  0  0  0  0  0  0  0  0  0
   12.5924   35.0460   10.4726 N   0  0  0  0  0  0  0  0  0  0  0  0
  1  2  1  0
  3 21  2  0
  3 22  1  0
  4  5  2  0
  6  2  2  0
  8 23  2  0
  9 24  2  0
 10  7  2  0
 11  9  1  0
 12  8  1  6
 12 13  1  0
 13 14  1  0
 14 15  1  0
 15 25  1  0
 16 25  1  0
 16 12  1  0
 17 25  1  0
 17 18  1  0
 19 26  1  0
 20 27  1  0
 22  7  1  0
 27 18  1  0
  2 21  1  0
  3  4  1  0
  5  6  1  0
  7 23  1  0
  8 24  1  0
  9 10  1  0
 18 26  2  0
 19 20  2  0
M  END
>  <rmsd>  (356) 
0.244306996

$$$$
MolPort-005-291-984 12422538 CSSS03437107179 MCULE-1450102348 PubChem-16880185 ZINC000012422538
     RDKit          3D

 26 29  0  0  0  0  0  0  0  0999 V2000
   16.4605   41.0473    9.7685 N   0  0  0  0  0  0  0  0  0  0  0  0
   13.4778   43.3141    5.5392 N   0  0  0  0  0  0  0  0  0  0  0  0
   10.9506   45.5186    3.0204 N   0  0  0  0  0  0  0  0  0  0  0  0
   16.4843   39.7282   10.3881 C   0  0  0  0  0  0  0  0  0  0  0  0
   15.3767   39.5972   11.4230 C   0  0  0  0  0  0  0  0  0  0  0  0
   14.0283   39.4476   10.7457 C   0  0  0  0  0  0  0  0  0  0  0  0
   12.9440   39.3488   11.7971 C   0  0  0  0  0  0  0  0  0  0  0  0
   15.7050   41.4417    8.6195 C   0  0  0  0  0  0  0  0  0  0  0  0
   15.0366   40.6477    7.6875 C   0  0  0  0  0  0  0  0  0  0  0  0
   14.3102   41.3041    6.6674 C   0  0  0  0  0  0  0  0  0  0  0  0
   14.2569   42.7206    6.5860 C   0  0  0  0  0  0  0  0  0  0  0  0
   14.9126   43.4925    7.5793 C   0  0  0  0  0  0  0  0  0  0  0  0
   14.8571   44.8951    7.7125 C   0  0  0  0  0  0  0  0  0  0  0  0
   15.5175   45.5330    8.7945 C   0  0  0  0  0  0  0  0  0  0  0  0
   16.2257   44.7817    9.7614 C   0  0  0  0  0  0  0  0  0  0  0  0
   16.2607   43.3975    9.5975 C   0  0  0  0  0  0  0  0  0  0  0  0
   15.6252   42.8033    8.5470 C   0  0  0  0  0  0  0  0  0  0  0  0
   16.7921   42.2958   10.3972 C   0  0  0  0  0  0  0  0  0  0  0  0
   13.8533   44.4689    4.7809 C   0  0  0  0  0  0  0  0  0  0  0  0
   12.8563   45.1330    3.9364 C   0  0  0  0  0  0  0  0  0  0  0  0
   13.0786   46.2405    3.1369 C   0  0  0  0  0  0  0  0  0  0  0  0
   11.8289   46.4371    2.5804 C   0  0  0  0  0  0  0  0  0  0  0  0
   11.4811   47.5165    1.6196 C   0  0  0  0  0  0  0  0  0  0  0  0
   17.4073   42.4032   11.4905 O   0  0  0  0  0  0  0  0  0  0  0  0
   15.0415   44.8903    4.8010 O   0  0  0  0  0  0  0  0  0  0  0  0
   11.6058   44.7498    3.8359 O   0  0  0  0  0  0  0  0  0  0  0  0
  1  8  1  0
  2 19  1  0
  3 26  1  0
  4  1  1  0
  4  5  1  0
  5  6  1  0
  6  7  1  0
  9 10  2  0
 11 12  2  0
 11  2  1  0
 13 14  2  0
 15 16  2  0
 16 18  1  0
 17  8  2  0
 17 12  1  0
 18  1  1  0
 19 20  1  0
 20 26  1  0
 21 22  1  0
 23 22  1  0
  8  9  1  0
 10 11  1  0
 12 13  1  0
 14 15  1  0
 16 17  1  0
 18 24  2  0
 19 25  2  0
 20 21  2  0
 22  3  2  0
M  END
>  <rmsd>  (357) 
0.244289249

$$$$
MolPort-002-786-865 9777945 CSC046478744 CSSS00046478744 LN01162733 MCULE-7710624974 PubChem-17095034 ZINC000009777945 ZINC09777945
     RDKit          3D

 17 18  0  0  0  0  0  0  0  0999 V2000
   11.2344   39.6338   10.8734 C   0  0  0  0  0  0  0  0  0  0  0  0
   12.3368   38.9114   11.6241 C   0  0  0  0  0  0  0  0  0  0  0  0
   13.6248   39.7182   11.5896 C   0  0  0  0  0  0  0  0  0  0  0  0
   14.3884   39.4810   10.2960 C   0  0  0  0  0  0  0  0  0  0  0  0
   14.3700   41.1308    8.4512 C   0  0  0  0  0  0  0  0  0  0  0  0
   15.6898   41.5339    8.7087 C   0  0  0  0  0  0  0  0  0  0  0  0
   16.2871   42.5257    7.9274 C   0  0  0  0  0  0  0  0  0  0  0  0
   15.5698   43.1195    6.8860 C   0  0  0  0  0  0  0  0  0  0  0  0
   14.2498   42.7263    6.6192 C   0  0  0  0  0  0  0  0  0  0  0  0
   13.9070   44.3483    4.6619 C   0  0  0  0  0  0  0  0  0  0  0  0
   12.9717   44.8318    3.6018 C   0  0  0  0  0  0  0  0  0  0  0  0
   12.5543   43.6748    2.7121 C   0  0  0  0  0  0  0  0  0  0  0  0
   13.6029   44.6521    2.2328 C   0  0  0  0  0  0  0  0  0  0  0  0
   13.6598   41.7313    7.4063 C   0  0  0  0  0  0  0  0  0  0  0  0
   13.7433   40.1422    9.2143 O   0  0  0  0  0  0  0  0  0  0  0  0
   15.0390   44.8895    4.7844 O   0  0  0  0  0  0  0  0  0  0  0  0
   13.4831   43.3104    5.5575 N   0  0  0  0  0  0  0  0  0  0  0  0
  1  2  1  0
  2  3  1  0
  3  4  1  0
  4 15  1  0
  5 15  1  0
  6  7  2  0
  8  9  2  0
  9 17  1  0
 11 10  1  0
 11 12  1  0
 12 13  1  0
 13 11  1  0
 14  5  2  0
 17 10  1  0
  5  6  1  0
  7  8  1  0
  9 14  1  0
 10 16  2  0
M  END
>  <rmsd>  (358) 
0.244265378

$$$$
MolPort-020-278-647 MCULE-9542232150 PubChem-110255519
     RDKit          3D

 26 28  0  0  0  0  0  0  0  0999 V2000
   17.5651   43.0413    8.3591 C   0  0  0  0  0  0  0  0  0  0  0  0
   16.1928   42.5866    8.0159 C   0  0  0  0  0  0  0  0  0  0  0  0
   15.5098   43.1733    6.9528 C   0  0  0  0  0  0  0  0  0  0  0  0
   14.2190   42.7248    6.6526 C   0  0  0  0  0  0  0  0  0  0  0  0
   14.3478   41.1703    8.4378 C   0  0  0  0  0  0  0  0  0  0  0  0
   13.7052   40.0834    9.2338 C   0  0  2  0  0  0  0  0  0  0  0  0
   13.5590   40.5031   10.6956 C   0  0  0  0  0  0  0  0  0  0  0  0
   13.0022   39.3495   11.5236 C   0  0  0  0  0  0  0  0  0  0  0  0
   13.8677   38.1093   11.3163 C   0  0  0  0  0  0  0  0  0  0  0  0
   14.5220   38.7943    9.1404 C   0  0  0  0  0  0  0  0  0  0  0  0
   14.0128   35.0269   11.8387 C   0  0  0  0  0  0  0  0  0  0  0  0
   14.7205   33.7291   10.0413 C   0  0  0  0  0  0  0  0  0  0  0  0
   13.8492   44.3231    4.6709 C   0  0  0  0  0  0  0  0  0  0  0  0
   12.9565   44.7308    3.6758 C   0  0  0  0  0  0  0  0  0  0  0  0
   13.3296   45.7445    2.7915 C   0  0  0  0  0  0  0  0  0  0  0  0
   14.5859   46.3406    2.9075 C   0  0  0  0  0  0  0  0  0  0  0  0
   15.4533   45.9095    3.9130 C   0  0  0  0  0  0  0  0  0  0  0  0
   13.6696   41.7335    7.4033 N   0  0  0  0  0  0  0  0  0  0  0  0
   15.6041   41.5992    8.7380 N   0  0  0  0  0  0  0  0  0  0  0  0
   13.8676   37.7299    9.9026 N   0  0  0  0  0  0  0  0  0  0  0  0
   13.9758   34.9272   10.3896 N   0  0  0  0  0  0  0  0  0  0  0  0
   13.4546   43.2807    5.5733 N   0  0  0  0  0  0  0  0  0  0  0  0
   15.0709   44.9202    4.7647 N   0  0  0  0  0  0  0  0  0  0  0  0
   14.8258   36.2906    9.7239 S   0  0  0  0  0  0  0  0  0  0  0  0
   15.0667   36.0455    8.2589 O   0  0  0  0  0  0  0  0  0  0  0  0
   16.1537   36.4634   10.4128 O   0  0  0  0  0  0  0  0  0  0  0  0
  1  2  1  0
  2 19  2  0
  3  4  2  0
  4 22  1  0
  5 18  2  0
  6  5  1  6
  6  7  1  0
  7  8  1  0
  8  9  1  0
  9 20  1  0
 10 20  1  0
 10  6  1  0
 11 21  1  0
 12 21  1  0
 13 23  2  0
 14 15  2  0
 16 17  2  0
 22 13  1  0
 24 20  1  0
 24 21  1  0
  2  3  1  0
  4 18  1  0
  5 19  1  0
 13 14  1  0
 15 16  1  0
 17 23  1  0
 24 25  2  0
 24 26  2  0
M  END
>  <rmsd>  (359) 
0.244244605

$$$$
MolPort-010-903-878 ChemDiv-M535-1267 MCULE-9362355103 PubChem-53145991 ZINC000065165952 ZINC65165952
     RDKit          3D

 31 34  0  0  0  0  0  0  0  0999 V2000
   16.8687   35.9061   11.0707 C   0  0  0  0  0  0  0  0  0  0  0  0
   16.3865   37.5849   12.8719 C   0  0  0  0  0  0  0  0  0  0  0  0
   16.9449   38.7195   12.2225 C   0  0  0  0  0  0  0  0  0  0  0  0
   17.4046   38.6965   10.7995 C   0  0  0  0  0  0  0  0  0  0  0  0
   16.6244   40.8106    9.6542 C   0  0  0  0  0  0  0  0  0  0  0  0
   15.7569   41.4736    8.6587 C   0  0  0  0  0  0  0  0  0  0  0  0
   14.4172   41.0814    8.4150 C   0  0  0  0  0  0  0  0  0  0  0  0
   13.6975   41.7057    7.3833 C   0  0  0  0  0  0  0  0  0  0  0  0
   14.2720   42.7103    6.6031 C   0  0  0  0  0  0  0  0  0  0  0  0
   13.8979   44.3586    4.6736 C   0  0  0  0  0  0  0  0  0  0  0  0
   12.9439   44.8597    3.6386 C   0  0  0  0  0  0  0  0  0  0  0  0
   13.5477   44.6966    2.2553 C   0  0  0  0  0  0  0  0  0  0  0  0
   12.5049   43.7164    2.7416 C   0  0  0  0  0  0  0  0  0  0  0  0
   15.5852   43.1122    6.8674 C   0  0  0  0  0  0  0  0  0  0  0  0
   16.3180   42.4983    7.8828 C   0  0  0  0  0  0  0  0  0  0  0  0
   13.4196   40.5426   10.6222 C   0  0  0  0  0  0  0  0  0  0  0  0
   13.7351   39.4462   11.6376 C   0  0  0  0  0  0  0  0  0  0  0  0
   13.0437   38.1255   11.3224 C   0  0  0  0  0  0  0  0  0  0  0  0
   13.8251   37.3864   10.2422 C   0  0  0  0  0  0  0  0  0  0  0  0
   13.3931   37.7350    8.8142 C   0  0  0  0  0  0  0  0  0  0  0  0
   12.8561   39.1535    8.6390 C   0  0  0  0  0  0  0  0  0  0  0  0
   17.0437   39.9320   12.9179 C   0  0  0  0  0  0  0  0  0  0  0  0
   16.5869   40.0407   14.2313 C   0  0  0  0  0  0  0  0  0  0  0  0
   16.0219   38.9350   14.8641 C   0  0  0  0  0  0  0  0  0  0  0  0
   15.9233   37.7188   14.1865 C   0  0  0  0  0  0  0  0  0  0  0  0
   16.2573   36.3155   12.2855 O   0  0  0  0  0  0  0  0  0  0  0  0
   17.5628   41.4615   10.1907 O   0  0  0  0  0  0  0  0  0  0  0  0
   15.0340   44.8942    4.7815 O   0  0  0  0  0  0  0  0  0  0  0  0
   16.4722   39.4175    9.9418 N   0  0  0  0  0  0  0  0  0  0  0  0
   13.4883   43.3087    5.5619 N   0  0  0  0  0  0  0  0  0  0  0  0
   13.7395   40.1368    9.2562 N   0  0  0  0  0  0  0  0  0  0  0  0
  1 26  1  0
  2 26  1  0
  3 22  2  0
  4  3  1  0
  4 29  1  0
  5  6  1  0
  6  7  2  0
  7 31  1  0
  8  9  2  0
  9 30  1  0
 11 10  1  0
 11 12  1  0
 12 13  1  0
 13 11  1  0
 14 15  2  0
 16 31  1  0
 16 17  1  0
 17 18  1  0
 18 19  1  0
 19 20  1  0
 20 21  1  0
 21 31  1  0
 23 24  2  0
 25  2  2  0
 29  5  1  0
 30 10  1  0
  2  3  1  0
  5 27  2  0
  7  8  1  0
  9 14  1  0
 10 28  2  0
 15  6  1  0
 22 23  1  0
 24 25  1  0
M  END
>  <rmsd>  (360) 
0.244235694

$$$$
MolPort-009-692-496 9122126 CSSS03437099267 MCULE-7553924893 PubChem-16952521 ZINC000009122126 ZOJMCCVGMPCENN-UHFFFAOYSA-N
     RDKit          3D

 27 30  0  0  0  0  0  0  0  0999 V2000
   12.8566   45.1383    3.9374 C   0  0  0  0  0  0  0  0  0  0  0  0
   13.8529   44.4703    4.7814 C   0  0  0  0  0  0  0  0  0  0  0  0
   14.2569   42.7214    6.5863 C   0  0  0  0  0  0  0  0  0  0  0  0
   14.3103   41.3049    6.6678 C   0  0  0  0  0  0  0  0  0  0  0  0
   15.0366   40.6486    7.6879 C   0  0  0  0  0  0  0  0  0  0  0  0
   15.7049   41.4426    8.6199 C   0  0  0  0  0  0  0  0  0  0  0  0
   15.6251   42.8042    8.5474 C   0  0  0  0  0  0  0  0  0  0  0  0
   16.2605   43.3985    9.5979 C   0  0  0  0  0  0  0  0  0  0  0  0
   16.2254   44.7828    9.7618 C   0  0  0  0  0  0  0  0  0  0  0  0
   15.5171   45.5340    8.7948 C   0  0  0  0  0  0  0  0  0  0  0  0
   14.8568   44.8960    7.7129 C   0  0  0  0  0  0  0  0  0  0  0  0
   14.9125   43.4934    7.5797 C   0  0  0  0  0  0  0  0  0  0  0  0
   16.7920   42.2970   10.3975 C   0  0  0  0  0  0  0  0  0  0  0  0
   16.4843   39.7293   10.3886 C   0  0  0  0  0  0  0  0  0  0  0  0
   15.3766   39.5983   11.4233 C   0  0  0  0  0  0  0  0  0  0  0  0
   14.0283   39.4486   10.7459 C   0  0  0  0  0  0  0  0  0  0  0  0
   12.9438   39.3498   11.7972 C   0  0  0  0  0  0  0  0  0  0  0  0
   13.0957   46.2515    3.1398 C   0  0  0  0  0  0  0  0  0  0  0  0
   11.8586   46.4799    2.5677 C   0  0  0  0  0  0  0  0  0  0  0  0
    9.5732   45.4681    2.6374 C   0  0  0  0  0  0  0  0  0  0  0  0
   11.5467   47.5766    1.6084 C   0  0  0  0  0  0  0  0  0  0  0  0
   15.0418   44.8898    4.8011 O   0  0  0  0  0  0  0  0  0  0  0  0
   17.4072   42.4044   11.4910 O   0  0  0  0  0  0  0  0  0  0  0  0
   13.4776   43.3149    5.5398 N   0  0  0  0  0  0  0  0  0  0  0  0
   16.4604   41.0483    9.7689 N   0  0  0  0  0  0  0  0  0  0  0  0
   10.9757   45.5657    3.0053 N   0  0  0  0  0  0  0  0  0  0  0  0
   11.5721   44.7395    3.8432 N   0  0  0  0  0  0  0  0  0  0  0  0
  1  2  1  0
  1 18  1  0
  2 24  1  0
  4  5  2  0
  6  7  2  0
  8  9  2  0
  8 13  1  0
 10 11  2  0
 12  3  2  0
 12  7  1  0
 13 25  1  0
 14 25  1  0
 14 15  1  0
 15 16  1  0
 16 17  1  0
 19 26  1  0
 20 26  1  0
 21 19  1  0
 24  3  1  0
 25  6  1  0
 26 27  1  0
  1 27  2  0
  2 22  2  0
  3  4  1  0
  5  6  1  0
  7  8  1  0
  9 10  1  0
 11 12  1  0
 13 23  2  0
 18 19  2  0
M  END
>  <rmsd>  (361) 
0.24419263

$$$$
MolPort-047-139-225 MCULE-6161825793 MCULE-9725615455 PubChem-146070115 PubChem-146070116
     RDKit          3D

 28 31  0  0  0  0  0  0  0  0999 V2000
   13.4015   39.1831   11.4499 C   0  0  0  0  0  0  0  0  0  0  0  0
   14.4053   36.6437    9.1930 C   0  0  0  0  0  0  0  0  0  0  0  0
   15.4462   35.8490    8.4905 C   0  0  0  0  0  0  0  0  0  0  0  0
   13.0378   36.4804    9.0319 C   0  0  0  0  0  0  0  0  0  0  0  0
   12.5214   37.4409    9.8841 C   0  0  0  0  0  0  0  0  0  0  0  0
   11.0550   37.7394   10.0773 C   0  0  0  0  0  0  0  0  0  0  0  0
   10.5538   38.0150    7.7371 C   0  0  0  0  0  0  0  0  0  0  0  0
   11.1738   39.0060    6.7710 C   0  0  1  0  0  0  0  0  0  0  0  0
   10.0384   39.7263    6.0458 C   0  0  0  0  0  0  0  0  0  0  0  0
   10.5978   40.6801    5.0053 C   0  0  0  0  0  0  0  0  0  0  0  0
   10.7048   42.1023    5.5486 C   0  0  0  0  0  0  0  0  0  0  0  0
   11.2428   42.1855    6.9790 C   0  0  0  0  0  0  0  0  0  0  0  0
   11.9942   39.8843    7.7016 C   0  0  2  0  0  0  0  0  0  0  0  0
   11.2355   39.8949    9.0077 C   0  0  0  0  0  0  0  0  0  0  0  0
   13.6749   41.6961    7.4072 C   0  0  0  0  0  0  0  0  0  0  0  0
   14.2359   42.7267    6.6162 C   0  0  0  0  0  0  0  0  0  0  0  0
   13.9058   44.3660    4.6653 C   0  0  0  0  0  0  0  0  0  0  0  0
   12.9828   44.8357    3.6002 C   0  0  0  0  0  0  0  0  0  0  0  0
   15.5548   43.1258    6.8718 C   0  0  0  0  0  0  0  0  0  0  0  0
   16.3000   42.5165    7.8780 C   0  0  0  0  0  0  0  0  0  0  0  0
   15.7199   41.4961    8.6255 C   0  0  0  0  0  0  0  0  0  0  0  0
   13.5268   38.1049   10.4838 N   0  0  0  0  0  0  0  0  0  0  0  0
   14.6844   37.6259   10.0703 N   0  0  0  0  0  0  0  0  0  0  0  0
   10.4847   38.6402    9.0634 N   0  0  0  0  0  0  0  0  0  0  0  0
   12.3250   41.2275    7.2099 N   0  0  0  0  0  0  0  0  0  0  0  0
   13.4831   43.3169    5.5453 N   0  0  0  0  0  0  0  0  0  0  0  0
   14.4413   41.1129    8.3749 N   0  0  0  0  0  0  0  0  0  0  0  0
   15.0407   44.8995    4.7783 O   0  0  0  0  0  0  0  0  0  0  0  0
  1 22  1  0
  2  4  1  0
  3  2  1  0
  5 22  1  0
  6  5  1  0
  6 24  1  0
  7 24  1  0
  8  7  1  1
  8  9  1  0
  9 10  1  0
 10 11  1  0
 11 12  1  0
 12 25  1  0
 13 25  1  0
 13 14  1  1
 13  8  1  0
 14 24  1  0
 15 27  2  0
 16 26  1  0
 16 19  2  0
 18 17  1  0
 20 21  2  0
 22 23  1  0
 25 15  1  0
 26 17  1  0
  2 23  2  0
  4  5  2  0
 15 16  1  0
 17 28  2  0
 19 20  1  0
 21 27  1  0
M  END
>  <rmsd>  (362) 
0.244153231

$$$$
MolPort-020-279-162 MCULE-1157596431 PubChem-110255916
     RDKit          3D

 25 27  0  0  0  0  0  0  0  0999 V2000
   11.6027   44.1273    3.5211 C   0  0  0  0  0  0  0  0  0  0  0  0
   12.9518   44.7435    3.6671 C   0  0  0  0  0  0  0  0  0  0  0  0
   13.8444   44.3249    4.6681 C   0  0  0  0  0  0  0  0  0  0  0  0
   15.4566   45.9088    3.9150 C   0  0  0  0  0  0  0  0  0  0  0  0
   14.5944   46.3479    2.9102 C   0  0  0  0  0  0  0  0  0  0  0  0
   13.3359   45.7589    2.7894 C   0  0  0  0  0  0  0  0  0  0  0  0
   14.2294   42.7259    6.6516 C   0  0  0  0  0  0  0  0  0  0  0  0
   14.3696   41.1722    8.4365 C   0  0  0  0  0  0  0  0  0  0  0  0
   16.2109   42.5900    8.0039 C   0  0  0  0  0  0  0  0  0  0  0  0
   15.5214   43.1757    6.9446 C   0  0  0  0  0  0  0  0  0  0  0  0
   17.5846   43.0462    8.3392 C   0  0  0  0  0  0  0  0  0  0  0  0
   13.7325   40.0844    9.2354 C   0  0  2  0  0  0  0  0  0  0  0  0
   13.5983   40.4970   10.6946 C   0  0  0  0  0  0  0  0  0  0  0  0
   12.9624   39.3636   11.4825 C   0  0  0  0  0  0  0  0  0  0  0  0
   13.7989   38.0896   11.3265 C   0  0  0  0  0  0  0  0  0  0  0  0
   14.5455   38.7888    9.1259 C   0  0  0  0  0  0  0  0  0  0  0  0
   12.6826   37.2826    9.3615 C   0  0  0  0  0  0  0  0  0  0  0  0
   12.8819   36.2255    8.3297 C   0  0  0  0  0  0  0  0  0  0  0  0
   15.0679   44.9187    4.7622 N   0  0  0  0  0  0  0  0  0  0  0  0
   13.4583   43.2804    5.5763 N   0  0  0  0  0  0  0  0  0  0  0  0
   13.6851   41.7343    7.4055 N   0  0  0  0  0  0  0  0  0  0  0  0
   15.6271   41.6022    8.7295 N   0  0  0  0  0  0  0  0  0  0  0  0
   13.9686   37.6935    9.9210 N   0  0  0  0  0  0  0  0  0  0  0  0
   13.4432   34.9688    8.6910 N   0  0  0  0  0  0  0  0  0  0  0  0
   12.5436   36.4421    7.1375 O   0  0  0  0  0  0  0  0  0  0  0  0
  1  2  1  0
  3 19  2  0
  3 20  1  0
  4  5  2  0
  6  2  2  0
  8 21  2  0
  9 22  2  0
 10  7  2  0
 11  9  1  0
 12  8  1  6
 12 13  1  0
 13 14  1  0
 14 15  1  0
 15 23  1  0
 16 23  1  0
 16 12  1  0
 17 23  1  0
 17 18  1  0
 18 24  1  0
 20  7  1  0
  2  3  1  0
  4 19  1  0
  5  6  1  0
  7 21  1  0
  8 22  1  0
  9 10  1  0
 18 25  2  0
M  END
>  <rmsd>  (363) 
0.244152382

$$$$
Molport-046-947-246 MCULE-3727816621 MCULE-7545957969 PubChem-110089778
     RDKit          3D

 21 23  0  0  0  0  0  0  0  0999 V2000
   16.7957   46.5308    4.0559 C   0  0  0  0  0  0  0  0  0  0  0  0
   15.4535   45.9091    3.9145 C   0  0  0  0  0  0  0  0  0  0  0  0
   13.8490   44.3222    4.6705 C   0  0  0  0  0  0  0  0  0  0  0  0
   12.9568   44.7307    3.6754 C   0  0  0  0  0  0  0  0  0  0  0  0
   13.3301   45.7452    2.7921 C   0  0  0  0  0  0  0  0  0  0  0  0
   14.5865   46.3412    2.9091 C   0  0  0  0  0  0  0  0  0  0  0  0
   14.2198   42.7233    6.6510 C   0  0  0  0  0  0  0  0  0  0  0  0
   14.3505   41.1685    8.4357 C   0  0  0  0  0  0  0  0  0  0  0  0
   16.1947   42.5858    8.0129 C   0  0  0  0  0  0  0  0  0  0  0  0
   15.5106   43.1723    6.9503 C   0  0  0  0  0  0  0  0  0  0  0  0
   17.5669   43.0413    8.3551 C   0  0  0  0  0  0  0  0  0  0  0  0
   13.7080   40.0823    9.2332 C   0  0  2  0  0  0  0  0  0  0  0  0
   13.5618   40.5035   10.6945 C   0  0  0  0  0  0  0  0  0  0  0  0
   13.0003   39.3518   11.5218 C   0  0  0  0  0  0  0  0  0  0  0  0
   13.8627   38.1083   11.3179 C   0  0  0  0  0  0  0  0  0  0  0  0
   14.5228   38.7912    9.1406 C   0  0  0  0  0  0  0  0  0  0  0  0
   15.0706   44.9192    4.7651 N   0  0  0  0  0  0  0  0  0  0  0  0
   13.4546   43.2792    5.5722 N   0  0  0  0  0  0  0  0  0  0  0  0
   13.6712   41.7316    7.4018 N   0  0  0  0  0  0  0  0  0  0  0  0
   15.6067   41.5982    8.7353 N   0  0  0  0  0  0  0  0  0  0  0  0
   13.8698   37.7302    9.9056 N   0  0  0  0  0  0  0  0  0  0  0  0
  1  2  1  0
  3 17  2  0
  3 18  1  0
  4  5  2  0
  6  2  2  0
  8 19  2  0
  9 20  2  0
 10  7  2  0
 11  9  1  0
 12  8  1  6
 12 13  1  0
 13 14  1  0
 14 15  1  0
 15 21  1  0
 16 21  1  0
 16 12  1  0
 18  7  1  0
  2 17  1  0
  3  4  1  0
  5  6  1  0
  7 19  1  0
  8 20  1  0
  9 10  1  0
M  END
>  <rmsd>  (364) 
0.244126126

$$$$
MolPort-006-579-789 ChemDiv-V020-6693 MCULE-2293517034 PubChem-46040753 ZINC000037544505 ZINC37544505
     RDKit          3D

 31 33  0  0  0  0  0  0  0  0999 V2000
   11.4882   44.1208    2.1238 C   0  0  0  0  0  0  0  0  0  0  0  0
   12.9555   44.8116    3.6195 C   0  0  0  0  0  0  0  0  0  0  0  0
   13.8974   44.3513    4.6752 C   0  0  0  0  0  0  0  0  0  0  0  0
   14.2720   42.7404    6.6343 C   0  0  0  0  0  0  0  0  0  0  0  0
   13.6982   41.7419    7.4272 C   0  0  0  0  0  0  0  0  0  0  0  0
   14.4154   41.1459    8.4778 C   0  0  0  0  0  0  0  0  0  0  0  0
   15.7261   41.5839    8.7303 C   0  0  0  0  0  0  0  0  0  0  0  0
   16.3083   42.5804    7.9440 C   0  0  0  0  0  0  0  0  0  0  0  0
   15.5841   43.1558    6.8985 C   0  0  0  0  0  0  0  0  0  0  0  0
   14.3846   39.8536   10.6269 C   0  0  0  0  0  0  0  0  0  0  0  0
   13.2707   39.6259   11.6352 C   0  0  0  0  0  0  0  0  0  0  0  0
   12.4464   38.4057   11.2341 C   0  0  0  0  0  0  0  0  0  0  0  0
   11.0078   37.5192    9.3946 C   0  0  0  0  0  0  0  0  0  0  0  0
   11.5873   36.3578    8.6577 C   0  0  0  0  0  0  0  0  0  0  0  0
   12.2312   35.3327    9.3593 C   0  0  0  0  0  0  0  0  0  0  0  0
   12.7900   34.2480    8.6751 C   0  0  0  0  0  0  0  0  0  0  0  0
   14.0435   32.0939    8.8327 C   0  0  0  0  0  0  0  0  0  0  0  0
   12.7005   34.1986    7.2741 C   0  0  0  0  0  0  0  0  0  0  0  0
   12.0589   35.2224    6.5717 C   0  0  0  0  0  0  0  0  0  0  0  0
   11.5034   36.3017    7.2633 C   0  0  0  0  0  0  0  0  0  0  0  0
   12.7049   39.3122    8.8793 C   0  0  0  0  0  0  0  0  0  0  0  0
   12.6876   43.7644    2.7381 O   0  0  0  0  0  0  0  0  0  0  0  0
   15.0310   44.8919    4.7682 O   0  0  0  0  0  0  0  0  0  0  0  0
   13.4244   33.2402    9.4124 O   0  0  0  0  0  0  0  0  0  0  0  0
   12.3060   39.3494    7.6830 O   0  0  0  0  0  0  0  0  0  0  0  0
   13.4938   43.3086    5.5725 N   0  0  0  0  0  0  0  0  0  0  0  0
   13.8129   40.1301    9.3101 N   0  0  0  0  0  0  0  0  0  0  0  0
   12.0598   38.4340    9.8220 N   0  0  0  0  0  0  0  0  0  0  0  0
   13.1129   31.3605    8.1188 F   0  0  0  0  0  0  0  0  0  0  0  0
   14.5611   31.3034    9.8404 F   0  0  0  0  0  0  0  0  0  0  0  0
   15.0725   32.4837    7.9943 F   0  0  0  0  0  0  0  0  0  0  0  0
  1 22  1  0
  2 22  1  0
  2  3  1  0
  3 26  1  0
  5  6  2  0
  6 27  1  0
  7  8  2  0
  9  4  2  0
 10 27  1  0
 10 11  1  0
 11 12  1  0
 12 28  1  0
 13 28  1  0
 13 14  1  0
 15 16  2  0
 16 24  1  0
 17 24  1  0
 17 29  1  0
 17 30  1  0
 17 31  1  0
 18 19  2  0
 20 14  2  0
 21 27  1  0
 26  4  1  0
 28 21  1  0
  3 23  2  0
  4  5  1  0
  6  7  1  0
  8  9  1  0
 14 15  1  0
 16 18  1  0
 19 20  1  0
 21 25  2  0
M  END
>  <rmsd>  (365) 
0.244109392

$$$$
MolPort-019-922-109 9206257 CRESQBXCHSKGJZ-UHFFFAOYSA-N CSSS03437093891 MCULE-9939253106 PubChem-16954054 ZINC000009206257
     RDKit          3D

 26 29  0  0  0  0  0  0  0  0999 V2000
   16.4600   41.0492    9.7689 N   0  0  0  0  0  0  0  0  0  0  0  0
   13.4777   43.3147    5.5387 N   0  0  0  0  0  0  0  0  0  0  0  0
   11.5740   44.7394    3.8374 N   0  0  0  0  0  0  0  0  0  0  0  0
   16.4843   39.7301   10.3885 C   0  0  0  0  0  0  0  0  0  0  0  0
   15.3764   39.5985   11.4229 C   0  0  0  0  0  0  0  0  0  0  0  0
   14.0284   39.4482   10.7451 C   0  0  0  0  0  0  0  0  0  0  0  0
   12.9436   39.3488   11.7960 C   0  0  0  0  0  0  0  0  0  0  0  0
   15.7047   41.4433    8.6197 C   0  0  0  0  0  0  0  0  0  0  0  0
   15.0372   40.6489    7.6874 C   0  0  0  0  0  0  0  0  0  0  0  0
   14.3109   41.3050    6.6670 C   0  0  0  0  0  0  0  0  0  0  0  0
   14.2569   42.7215    6.5856 C   0  0  0  0  0  0  0  0  0  0  0  0
   14.9117   43.4937    7.5793 C   0  0  0  0  0  0  0  0  0  0  0  0
   14.8553   44.8962    7.7126 C   0  0  0  0  0  0  0  0  0  0  0  0
   15.5149   45.5345    8.7949 C   0  0  0  0  0  0  0  0  0  0  0  0
   16.2233   44.7836    9.7619 C   0  0  0  0  0  0  0  0  0  0  0  0
   16.2590   43.3994    9.5980 C   0  0  0  0  0  0  0  0  0  0  0  0
   15.6243   42.8048    8.5472 C   0  0  0  0  0  0  0  0  0  0  0  0
   16.7908   42.2979   10.3978 C   0  0  0  0  0  0  0  0  0  0  0  0
   13.8530   44.4700    4.7803 C   0  0  0  0  0  0  0  0  0  0  0  0
   12.8571   45.1368    3.9348 C   0  0  0  0  0  0  0  0  0  0  0  0
   13.0921   46.2464    3.1387 C   0  0  0  0  0  0  0  0  0  0  0  0
   11.8481   46.4549    2.5771 C   0  0  0  0  0  0  0  0  0  0  0  0
   11.5053   47.5370    1.6174 C   0  0  0  0  0  0  0  0  0  0  0  0
   17.4054   42.4056   11.4915 O   0  0  0  0  0  0  0  0  0  0  0  0
   15.0416   44.8904    4.8010 O   0  0  0  0  0  0  0  0  0  0  0  0
   10.9978   45.5574    3.0103 O   0  0  0  0  0  0  0  0  0  0  0  0
  1  8  1  0
  2 19  1  0
  4  1  1  0
  4  5  1  0
  5  6  1  0
  6  7  1  0
  9 10  2  0
 11 12  2  0
 11  2  1  0
 13 14  2  0
 15 16  2  0
 16 18  1  0
 17  8  2  0
 17 12  1  0
 18  1  1  0
 19 20  1  0
 20 21  1  0
 22 26  1  0
 23 22  1  0
 26  3  1  0
  8  9  1  0
 10 11  1  0
 12 13  1  0
 14 15  1  0
 16 17  1  0
 18 24  2  0
 19 25  2  0
 20  3  2  0
 21 22  2  0
M  END
>  <rmsd>  (366) 
0.244093806

$$$$
Molport-046-971-696 MCULE-6999629585 MCULE-7859326811 PubChem-110111646
     RDKit          3D

 28 31  0  0  0  0  0  0  0  0999 V2000
   14.0685   33.7038   13.4790 C   0  0  0  0  0  0  0  0  0  0  0  0
   13.4136   33.9716   12.1725 C   0  0  0  0  0  0  0  0  0  0  0  0
   12.5057   33.0571   11.6382 C   0  0  0  0  0  0  0  0  0  0  0  0
   12.1824   34.4410    9.7363 C   0  0  0  0  0  0  0  0  0  0  0  0
   13.0804   35.3941   10.2373 C   0  0  0  0  0  0  0  0  0  0  0  0
   13.7027   35.1391   11.4660 C   0  0  0  0  0  0  0  0  0  0  0  0
   13.3855   36.6119    9.4506 C   0  0  0  0  0  0  0  0  0  0  0  0
   13.8799   38.0973   11.4423 C   0  0  0  0  0  0  0  0  0  0  0  0
   13.0365   39.3629   11.5666 C   0  0  0  0  0  0  0  0  0  0  0  0
   13.6585   40.4879   10.7413 C   0  0  0  0  0  0  0  0  0  0  0  0
   13.7964   40.0647    9.2760 C   0  0  2  0  0  0  0  0  0  0  0  0
   14.6181   38.7792    9.1641 C   0  0  0  0  0  0  0  0  0  0  0  0
   14.3985   41.1593    8.4538 C   0  0  0  0  0  0  0  0  0  0  0  0
   13.6588   41.7080    7.4039 C   0  0  0  0  0  0  0  0  0  0  0  0
   14.2117   42.7306    6.6287 C   0  0  0  0  0  0  0  0  0  0  0  0
   16.2079   42.6650    7.9212 C   0  0  0  0  0  0  0  0  0  0  0  0
   15.6873   41.6426    8.7157 C   0  0  0  0  0  0  0  0  0  0  0  0
   13.8522   44.3300    4.6671 C   0  0  0  0  0  0  0  0  0  0  0  0
   12.9741   44.7556    3.6667 C   0  0  0  0  0  0  0  0  0  0  0  0
   13.3664   45.7746    2.7968 C   0  0  0  0  0  0  0  0  0  0  0  0
   14.6270   46.3576    2.9326 C   0  0  0  0  0  0  0  0  0  0  0  0
   15.4792   45.9083    3.9430 C   0  0  0  0  0  0  0  0  0  0  0  0
   11.9144   33.3078   10.4398 N   0  0  0  0  0  0  0  0  0  0  0  0
   14.0391   37.7563   10.0305 N   0  0  0  0  0  0  0  0  0  0  0  0
   15.4673   43.1824    6.9049 N   0  0  0  0  0  0  0  0  0  0  0  0
   13.4412   43.2838    5.5551 N   0  0  0  0  0  0  0  0  0  0  0  0
   15.0785   44.9142    4.7806 N   0  0  0  0  0  0  0  0  0  0  0  0
   13.0715   36.6381    8.2285 O   0  0  0  0  0  0  0  0  0  0  0  0
  1  2  1  0
  3 23  2  0
  4  5  2  0
  5  7  1  0
  6  2  2  0
  7 24  1  0
  8 24  1  0
  8  9  1  0
  9 10  1  0
 10 11  1  0
 11 12  1  0
 11 13  1  6
 12 24  1  0
 14 15  2  0
 15 26  1  0
 16 25  2  0
 17 13  2  0
 18 27  2  0
 19 20  2  0
 21 22  2  0
 26 18  1  0
  2  3  1  0
  4 23  1  0
  5  6  1  0
  7 28  2  0
 13 14  1  0
 15 25  1  0
 16 17  1  0
 18 19  1  0
 20 21  1  0
 22 27  1  0
M  END
>  <rmsd>  (367) 
0.244062677

$$$$
MolPort-003-077-992 4328288 CSSS03437148118 MCULE-1950111006 PubChem-7191022 ZINC000004328288 ZINC04328288
     RDKit          3D

 28 30  0  0  0  0  0  0  0  0999 V2000
   12.7947   47.2045    0.8869 F   0  0  0  0  0  0  0  0  0  0  0  0
   12.4334   46.2225    1.7468 C   0  0  0  0  0  0  0  0  0  0  0  0
   11.1732   45.6281    1.6391 C   0  0  0  0  0  0  0  0  0  0  0  0
   10.8009   44.6143    2.5259 C   0  0  0  0  0  0  0  0  0  0  0  0
   11.6891   44.1947    3.5206 C   0  0  0  0  0  0  0  0  0  0  0  0
   12.9560   44.7856    3.6362 C   0  0  0  0  0  0  0  0  0  0  0  0
   13.3215   45.8026    2.7414 C   0  0  0  0  0  0  0  0  0  0  0  0
   13.8920   44.3420    4.6844 C   0  0  0  0  0  0  0  0  0  0  0  0
   14.2939   42.7553    6.6532 C   0  0  0  0  0  0  0  0  0  0  0  0
   15.8829   42.0873    8.3159 C   0  0  0  0  0  0  0  0  0  0  0  0
   18.0835   40.6128    8.3348 C   0  0  0  0  0  0  0  0  0  0  0  0
   17.2956   39.3512    8.2313 C   0  0  0  0  0  0  0  0  0  0  0  0
   16.1072   37.4454    9.3735 C   0  0  0  0  0  0  0  0  0  0  0  0
   15.3546   37.3088   10.6877 C   0  0  0  0  0  0  0  0  0  0  0  0
   14.3450   38.4001   10.8365 C   0  0  0  0  0  0  0  0  0  0  0  0
   13.2354   38.4643    9.9835 C   0  0  0  0  0  0  0  0  0  0  0  0
   12.3020   39.4957   10.1246 C   0  0  0  0  0  0  0  0  0  0  0  0
   12.4749   40.4639   11.1183 C   0  0  0  0  0  0  0  0  0  0  0  0
   13.5796   40.3993   11.9730 C   0  0  0  0  0  0  0  0  0  0  0  0
   14.5129   39.3676   11.8331 C   0  0  0  0  0  0  0  0  0  0  0  0
   15.0276   44.8819    4.7771 O   0  0  0  0  0  0  0  0  0  0  0  0
   16.9176   38.9469    7.1000 O   0  0  0  0  0  0  0  0  0  0  0  0
   13.5029   43.2995    5.5900 N   0  0  0  0  0  0  0  0  0  0  0  0
   13.8404   41.7693    7.4567 N   0  0  0  0  0  0  0  0  0  0  0  0
   14.7233   41.3986    8.3820 N   0  0  0  0  0  0  0  0  0  0  0  0
   16.9506   38.6293    9.4130 N   0  0  0  0  0  0  0  0  0  0  0  0
   17.2581   41.8175    9.4287 S   0  0  0  0  0  0  0  0  0  0  0  0
   15.8617   43.2231    7.0750 S   0  0  0  0  0  0  0  0  0  0  0  0
  2  1  1  0
  3  4  2  0
  5  6  2  0
  6  8  1  0
  7  2  2  0
  8 23  1  0
  9 28  1  0
 10 27  1  0
 10 28  1  0
 11 27  1  0
 11 12  1  0
 12 26  1  0
 13 26  1  0
 13 14  1  0
 14 15  1  0
 16 17  2  0
 18 19  2  0
 20 15  2  0
 23  9  1  0
 24 25  1  0
  2  3  1  0
  4  5  1  0
  6  7  1  0
  8 21  2  0
  9 24  2  0
 10 25  2  0
 12 22  2  0
 15 16  1  0
 17 18  1  0
 19 20  1  0
M  END
>  <rmsd>  (368) 
0.244044706

$$$$
MolPort-020-278-612 MCULE-7584097762 PubChem-110255484
     RDKit          3D

 23 25  0  0  0  0  0  0  0  0999 V2000
   17.5782   43.0450    8.3475 C   0  0  0  0  0  0  0  0  0  0  0  0
   16.2051   42.5892    8.0094 C   0  0  0  0  0  0  0  0  0  0  0  0
   15.5178   43.1751    6.9487 C   0  0  0  0  0  0  0  0  0  0  0  0
   14.2263   42.7255    6.6531 C   0  0  0  0  0  0  0  0  0  0  0  0
   14.3627   41.1717    8.4382 C   0  0  0  0  0  0  0  0  0  0  0  0
   13.7238   40.0841    9.2360 C   0  0  2  0  0  0  0  0  0  0  0  0
   13.5865   40.4975   10.6951 C   0  0  0  0  0  0  0  0  0  0  0  0
   12.9674   39.3585   11.4889 C   0  0  0  0  0  0  0  0  0  0  0  0
   13.8115   38.0917   11.3192 C   0  0  0  0  0  0  0  0  0  0  0  0
   14.5377   38.7888    9.1303 C   0  0  0  0  0  0  0  0  0  0  0  0
   12.6398   37.2764    9.3439 C   0  0  0  0  0  0  0  0  0  0  0  0
   12.0536   36.1087   10.1247 C   0  0  0  0  0  0  0  0  0  0  0  0
   12.7892   36.8293    7.8964 C   0  0  0  0  0  0  0  0  0  0  0  0
   13.8471   44.3229    4.6716 C   0  0  0  0  0  0  0  0  0  0  0  0
   15.4314   45.9063    3.9029 C   0  0  0  0  0  0  0  0  0  0  0  0
   14.5495   46.3234    2.9081 C   0  0  0  0  0  0  0  0  0  0  0  0
   13.3040   45.7036    2.8276 C   0  0  0  0  0  0  0  0  0  0  0  0
   13.6804   41.7338    7.4059 N   0  0  0  0  0  0  0  0  0  0  0  0
   15.6197   41.6015    8.7338 N   0  0  0  0  0  0  0  0  0  0  0  0
   13.9400   37.6873    9.9069 N   0  0  0  0  0  0  0  0  0  0  0  0
   13.4576   43.2804    5.5762 N   0  0  0  0  0  0  0  0  0  0  0  0
   15.0675   44.9193    4.7624 N   0  0  0  0  0  0  0  0  0  0  0  0
   12.9766   44.7199    3.7057 N   0  0  0  0  0  0  0  0  0  0  0  0
  1  2  1  0
  2 19  2  0
  3  4  2  0
  4 21  1  0
  5 18  2  0
  6  5  1  6
  6  7  1  0
  7  8  1  0
  8  9  1  0
  9 20  1  0
 10 20  1  0
 10  6  1  0
 11 20  1  0
 11 12  1  0
 11 13  1  0
 14 23  2  0
 15 22  2  0
 16 17  2  0
 21 14  1  0
  2  3  1  0
  4 18  1  0
  5 19  1  0
 14 22  1  0
 15 16  1  0
 17 23  1  0
M  END
>  <rmsd>  (369) 
0.244024605

$$$$
Molport-052-055-979 MCULE-7130697295 PubChem-110089784
     RDKit          3D

 22 24  0  0  0  0  0  0  0  0999 V2000
   12.3487   46.1242    1.7763 C   0  0  0  0  0  0  0  0  0  0  0  0
   13.3143   45.7068    2.8258 C   0  0  0  0  0  0  0  0  0  0  0  0
   14.5601   46.3254    2.9119 C   0  0  0  0  0  0  0  0  0  0  0  0
   15.4377   45.9060    3.9096 C   0  0  0  0  0  0  0  0  0  0  0  0
   13.8490   44.3232    4.6701 C   0  0  0  0  0  0  0  0  0  0  0  0
   14.2206   42.7240    6.6508 C   0  0  0  0  0  0  0  0  0  0  0  0
   14.3510   41.1687    8.4352 C   0  0  0  0  0  0  0  0  0  0  0  0
   16.1952   42.5860    8.0128 C   0  0  0  0  0  0  0  0  0  0  0  0
   15.5113   43.1728    6.9504 C   0  0  0  0  0  0  0  0  0  0  0  0
   17.5675   43.0413    8.3553 C   0  0  0  0  0  0  0  0  0  0  0  0
   13.7083   40.0824    9.2324 C   0  0  2  0  0  0  0  0  0  0  0  0
   13.5620   40.5032   10.6938 C   0  0  0  0  0  0  0  0  0  0  0  0
   13.0004   39.3515   11.5207 C   0  0  0  0  0  0  0  0  0  0  0  0
   13.8627   38.1079   11.3167 C   0  0  0  0  0  0  0  0  0  0  0  0
   14.5230   38.7912    9.1395 C   0  0  0  0  0  0  0  0  0  0  0  0
   16.7762   46.5388    4.0369 C   0  0  0  0  0  0  0  0  0  0  0  0
   15.0696   44.9184    4.7662 N   0  0  0  0  0  0  0  0  0  0  0  0
   12.9826   44.7223    3.7014 N   0  0  0  0  0  0  0  0  0  0  0  0
   13.4553   43.2801    5.5720 N   0  0  0  0  0  0  0  0  0  0  0  0
   13.6718   41.7322    7.4013 N   0  0  0  0  0  0  0  0  0  0  0  0
   15.6072   41.5982    8.7350 N   0  0  0  0  0  0  0  0  0  0  0  0
   13.8699   37.7301    9.9042 N   0  0  0  0  0  0  0  0  0  0  0  0
  1  2  1  0
  2 18  2  0
  3  4  2  0
  5 17  2  0
  5 19  1  0
  7 20  2  0
  8 21  2  0
  9  6  2  0
 10  8  1  0
 11  7  1  6
 11 12  1  0
 12 13  1  0
 13 14  1  0
 14 22  1  0
 15 22  1  0
 15 11  1  0
 16  4  1  0
 19  6  1  0
  2  3  1  0
  4 17  1  0
  5 18  1  0
  6 20  1  0
  7 21  1  0
  8  9  1  0
M  END
>  <rmsd>  (370) 
0.244012922

$$$$
MolPort-002-019-554 13494384 CSSS00132527814 ChemDiv-Y031-1521 LN00990541 MCULE-9513418977 PubChem-3160787 ZINC000013494384
     RDKit          3D

 30 32  0  0  0  0  0  0  0  0999 V2000
   12.9989   44.8254    3.5882 C   0  0  0  0  0  0  0  0  0  0  0  0
   12.0163   44.0793    2.9621 C   0  0  0  0  0  0  0  0  0  0  0  0
   11.6024   42.6840    3.2797 C   0  0  0  0  0  0  0  0  0  0  0  0
   12.9875   46.0315    2.8897 C   0  0  0  0  0  0  0  0  0  0  0  0
   13.7726   47.2554    3.1487 C   0  0  0  0  0  0  0  0  0  0  0  0
   13.9951   48.1659    2.1054 C   0  0  0  0  0  0  0  0  0  0  0  0
   14.6976   49.3524    2.3371 C   0  0  0  0  0  0  0  0  0  0  0  0
   15.1721   49.6442    3.6184 C   0  0  0  0  0  0  0  0  0  0  0  0
   14.9401   48.7518    4.6681 C   0  0  0  0  0  0  0  0  0  0  0  0
   14.2383   47.5655    4.4346 C   0  0  0  0  0  0  0  0  0  0  0  0
   13.9019   44.3715    4.6647 C   0  0  0  0  0  0  0  0  0  0  0  0
   14.2112   42.7745    6.6498 C   0  0  0  0  0  0  0  0  0  0  0  0
   15.4696   43.2687    7.0254 C   0  0  0  0  0  0  0  0  0  0  0  0
   16.1485   42.7169    8.1155 C   0  0  0  0  0  0  0  0  0  0  0  0
   15.5755   41.6675    8.8414 C   0  0  0  0  0  0  0  0  0  0  0  0
   14.3226   41.1708    8.4675 C   0  0  0  0  0  0  0  0  0  0  0  0
   13.6438   41.7235    7.3781 C   0  0  0  0  0  0  0  0  0  0  0  0
   14.7546   39.1467   10.9464 C   0  0  0  0  0  0  0  0  0  0  0  0
   13.4759   38.8298   11.7033 C   0  0  0  0  0  0  0  0  0  0  0  0
   12.3058   39.6319   11.1552 C   0  0  0  0  0  0  0  0  0  0  0  0
   11.4765   41.6369   10.7546 C   0  0  0  0  0  0  0  0  0  0  0  0
   11.4963   44.7905    1.9919 O   0  0  0  0  0  0  0  0  0  0  0  0
   15.0476   44.8816    4.7819 O   0  0  0  0  0  0  0  0  0  0  0  0
   12.4117   40.9682   11.5431 O   0  0  0  0  0  0  0  0  0  0  0  0
   17.3062   39.8457    9.7442 O   0  0  0  0  0  0  0  0  0  0  0  0
   17.2912   42.0370   10.8390 O   0  0  0  0  0  0  0  0  0  0  0  0
   12.0531   45.9640    1.9183 N   0  0  0  0  0  0  0  0  0  0  0  0
   13.4797   43.3191    5.5433 N   0  0  0  0  0  0  0  0  0  0  0  0
   15.3040   40.4142   11.4020 N   0  0  0  0  0  0  0  0  0  0  0  0
   16.4315   40.9762   10.2114 S   0  0  0  0  0  0  0  0  0  0  0  0
  1 11  1  0
  2 22  1  0
  3  2  1  0
  4  5  1  0
  4  1  1  0
  6  7  2  0
  8  9  2  0
 10  5  2  0
 11 28  1  0
 13 14  2  0
 15 16  2  0
 17 12  2  0
 18 29  1  0
 18 19  1  0
 19 20  1  0
 20 24  1  0
 21 24  1  0
 22 27  1  0
 28 12  1  0
 30 15  1  0
 30 29  1  0
  1  2  2  0
  4 27  2  0
  5  6  1  0
  7  8  1  0
  9 10  1  0
 11 23  2  0
 12 13  1  0
 14 15  1  0
 16 17  1  0
 30 25  2  0
 30 26  2  0
M  END
>  <rmsd>  (371) 
0.244011253

$$$$
MolPort-001-980-258 350703 CHEMBL1569906 CSSS03436650360 MCULE-6472137387 PubChem-650633 ZINC000000350703
     RDKit          3D

 22 24  0  0  0  0  0  0  0  0999 V2000
   15.1934   41.4704    8.5570 C   0  0  0  0  0  0  0  0  0  0  0  0
   14.3213   42.6740    6.5354 C   0  0  0  0  0  0  0  0  0  0  0  0
   15.6388   42.2395    6.3826 C   0  0  0  0  0  0  0  0  0  0  0  0
   16.3876   42.3472    5.1545 C   0  0  0  0  0  0  0  0  0  0  0  0
   16.1329   41.5812    7.5246 C   0  0  0  0  0  0  0  0  0  0  0  0
   17.5108   41.0061    7.5964 C   0  0  0  0  0  0  0  0  0  0  0  0
   13.9479   44.2838    4.6044 C   0  0  0  0  0  0  0  0  0  0  0  0
   13.0817   44.6402    3.4415 C   0  0  0  0  0  0  0  0  0  0  0  0
   12.8025   43.4023    2.6086 C   0  0  0  0  0  0  0  0  0  0  0  0
   13.8358   44.4036    2.1454 C   0  0  0  0  0  0  0  0  0  0  0  0
   15.4184   40.8738    9.8947 C   0  0  0  0  0  0  0  0  0  0  0  0
   13.0969   39.8957   10.0798 C   0  0  0  0  0  0  0  0  0  0  0  0
   12.7816   38.4740   10.5495 C   0  0  0  0  0  0  0  0  0  0  0  0
   12.9833   38.2696   12.0596 C   0  0  0  0  0  0  0  0  0  0  0  0
   13.3218   39.5610   12.8029 C   0  0  0  0  0  0  0  0  0  0  0  0
   14.5217   40.2407   12.1465 C   0  0  0  0  0  0  0  0  0  0  0  0
   13.7635   42.2051    8.0455 S   0  0  0  0  0  0  0  0  0  0  0  0
   16.9890   42.4316    4.1692 N   0  0  0  0  0  0  0  0  0  0  0  0
   13.4966   43.3104    5.5521 N   0  0  0  0  0  0  0  0  0  0  0  0
   14.3346   40.3747   10.6977 N   0  0  0  0  0  0  0  0  0  0  0  0
   15.0283   44.9062    4.7914 O   0  0  0  0  0  0  0  0  0  0  0  0
   16.5942   40.8187   10.3475 O   0  0  0  0  0  0  0  0  0  0  0  0
  1 17  1  0
  1 11  1  0
  2 17  1  0
  2 19  1  0
  3  4  1  0
  3  5  1  0
  6  5  1  0
  8  7  1  0
  8  9  1  0
  9 10  1  0
 10  8  1  0
 11 20  1  0
 12 20  1  0
 12 13  1  0
 13 14  1  0
 14 15  1  0
 15 16  1  0
 16 20  1  0
 19  7  1  0
  2  3  2  0
  5  1  2  0
  7 21  2  0
 11 22  2  0
  4 18  3  0
M  END
>  <rmsd>  (372) 
0.243982688

$$$$
MolPort-019-893-664 67741709 CSSS00159787351 MCULE-4514229187 PubChem-56751291 ZINC000067741709
     RDKit          3D

 22 23  0  0  0  0  0  0  0  0999 V2000
   11.6987   44.0957    3.5093 C   0  0  0  0  0  0  0  0  0  0  0  0
   13.0245   44.8386    3.5313 C   0  0  0  0  0  0  0  0  0  0  0  0
   13.7148   44.6241    2.1976 C   0  0  0  0  0  0  0  0  0  0  0  0
   12.7402   46.3184    3.7057 C   0  0  0  0  0  0  0  0  0  0  0  0
   13.9173   44.3591    4.6470 C   0  0  0  0  0  0  0  0  0  0  0  0
   14.2348   42.7809    6.6284 C   0  0  0  0  0  0  0  0  0  0  0  0
   15.5021   43.1663    7.0236 C   0  0  0  0  0  0  0  0  0  0  0  0
   15.7575   42.3525    8.1219 C   0  0  0  0  0  0  0  0  0  0  0  0
   12.4724   41.1704    7.3532 C   0  0  0  0  0  0  0  0  0  0  0  0
   11.5282   41.7113    8.4344 C   0  0  0  0  0  0  0  0  0  0  0  0
   11.7695   41.0968    9.8265 C   0  0  0  0  0  0  0  0  0  0  0  0
   12.3724   39.1874   11.0420 C   0  0  0  0  0  0  0  0  0  0  0  0
   13.6373   38.4854   11.5159 C   0  0  0  0  0  0  0  0  0  0  0  0
   14.5952   39.4669   12.1710 C   0  0  0  0  0  0  0  0  0  0  0  0
   12.1891   39.0311    8.7100 C   0  0  0  0  0  0  0  0  0  0  0  0
   12.5963   39.6392    7.3676 C   0  0  0  0  0  0  0  0  0  0  0  0
   15.0560   44.8828    4.7947 O   0  0  0  0  0  0  0  0  0  0  0  0
   15.2278   40.2436   11.2005 O   0  0  0  0  0  0  0  0  0  0  0  0
   13.4805   43.3181    5.5339 N   0  0  0  0  0  0  0  0  0  0  0  0
   14.6991   41.5456    8.3471 N   0  0  0  0  0  0  0  0  0  0  0  0
   13.7832   41.8090    7.4327 N   0  0  0  0  0  0  0  0  0  0  0  0
   12.6196   39.9017    9.7997 N   0  0  0  0  0  0  0  0  0  0  0  0
  1  2  1  0
  2  3  1  0
  2  4  1  0
  2  5  1  0
  5 19  1  0
  7  8  1  0
  9 21  1  0
  9 10  1  0
 10 11  1  0
 11 22  1  0
 12 22  1  0
 12 13  1  0
 13 14  1  0
 14 18  1  0
 15 22  1  0
 15 16  1  0
 16  9  1  0
 19  6  1  0
 21 20  1  0
 21  6  1  0
  5 17  2  0
  6  7  2  0
  8 20  2  0
M  END
>  <rmsd>  (373) 
0.243942559

$$$$
MolPort-047-015-607 MCULE-8485505057 PubChem-155985351
     RDKit          3D

 25 28  0  0  0  0  0  0  0  0999 V2000
   14.3535   41.1493    8.4431 C   0  0  0  0  0  0  0  0  0  0  0  0
   13.7106   40.0628    9.2393 C   0  0  2  0  0  0  0  0  0  0  0  0
   13.5690   40.4775   10.6971 C   0  0  0  0  0  0  0  0  0  0  0  0
   12.9293   39.3455   11.4838 C   0  0  0  0  0  0  0  0  0  0  0  0
   13.7689   38.0734   11.3353 C   0  0  0  0  0  0  0  0  0  0  0  0
   12.6646   37.2641    9.3539 C   0  0  0  0  0  0  0  0  0  0  0  0
   12.4465   35.8048    9.5676 C   0  0  0  0  0  0  0  0  0  0  0  0
   12.7027   33.6983    9.4716 C   0  0  0  0  0  0  0  0  0  0  0  0
   11.5842   33.9809   10.2312 C   0  0  0  0  0  0  0  0  0  0  0  0
   14.5217   38.7651    9.1341 C   0  0  0  0  0  0  0  0  0  0  0  0
   16.2015   42.5608    8.0169 C   0  0  0  0  0  0  0  0  0  0  0  0
   17.5768   43.0100    8.3555 C   0  0  0  0  0  0  0  0  0  0  0  0
   15.5160   43.1526    6.9583 C   0  0  0  0  0  0  0  0  0  0  0  0
   14.2225   42.7087    6.6631 C   0  0  0  0  0  0  0  0  0  0  0  0
   13.8733   44.3154    4.6999 C   0  0  0  0  0  0  0  0  0  0  0  0
   14.0794   46.0333    2.9497 C   0  0  0  0  0  0  0  0  0  0  0  0
   15.1894   45.8831    3.7824 C   0  0  0  0  0  0  0  0  0  0  0  0
   13.9437   37.6732    9.9299 N   0  0  0  0  0  0  0  0  0  0  0  0
   13.2466   34.8552    9.0515 N   0  0  0  0  0  0  0  0  0  0  0  0
   11.4236   35.3156   10.2894 N   0  0  0  0  0  0  0  0  0  0  0  0
   15.6126   41.5734    8.7389 N   0  0  0  0  0  0  0  0  0  0  0  0
   13.4580   43.2714    5.5887 N   0  0  0  0  0  0  0  0  0  0  0  0
   15.0710   44.9322    4.7486 N   0  0  0  0  0  0  0  0  0  0  0  0
   13.6724   41.7172    7.4130 N   0  0  0  0  0  0  0  0  0  0  0  0
   12.9223   44.9217    3.4655 S   0  0  0  0  0  0  0  0  0  0  0  0
  1 24  2  0
  2  1  1  6
  2  3  1  0
  3  4  1  0
  4  5  1  0
  5 18  1  0
  6 18  1  0
  6  7  1  0
  7 19  1  0
  9 20  1  0
 10 18  1  0
 10  2  1  0
 11 21  2  0
 12 11  1  0
 13 14  2  0
 14 22  1  0
 15 25  1  0
 16 25  1  0
 17 23  1  0
 19  8  1  0
 22 15  1  0
  1 21  1  0
  7 20  2  0
  8  9  2  0
 11 13  1  0
 14 24  1  0
 15 23  2  0
 16 17  2  0
M  END
>  <rmsd>  (374) 
0.243933767

$$$$
Molport-046-971-704 MCULE-1980427541 PubChem-110111659
     RDKit          3D

 27 30  0  0  0  0  0  0  0  0999 V2000
   13.0312   39.3634   11.5607 C   0  0  0  0  0  0  0  0  0  0  0  0
   13.6609   40.4866   10.7403 C   0  0  0  0  0  0  0  0  0  0  0  0
   13.7992   40.0632    9.2759 C   0  0  2  0  0  0  0  0  0  0  0  0
   14.6204   38.7778    9.1625 C   0  0  0  0  0  0  0  0  0  0  0  0
   13.8744   38.0973   11.4449 C   0  0  0  0  0  0  0  0  0  0  0  0
   13.5502   36.5274    9.4714 C   0  0  0  0  0  0  0  0  0  0  0  0
   13.2260   35.3456   10.3001 C   0  0  0  0  0  0  0  0  0  0  0  0
   13.3333   34.1827   12.3613 C   0  0  0  0  0  0  0  0  0  0  0  0
   12.6458   33.1062   11.8051 C   0  0  0  0  0  0  0  0  0  0  0  0
   12.2636   33.1871   10.4678 C   0  0  0  0  0  0  0  0  0  0  0  0
   14.4009   41.1580    8.4535 C   0  0  0  0  0  0  0  0  0  0  0  0
   13.6607   41.7071    7.4041 C   0  0  0  0  0  0  0  0  0  0  0  0
   14.2132   42.7298    6.6290 C   0  0  0  0  0  0  0  0  0  0  0  0
   16.2102   42.6638    7.9203 C   0  0  0  0  0  0  0  0  0  0  0  0
   15.6898   41.6413    8.7149 C   0  0  0  0  0  0  0  0  0  0  0  0
   13.8529   44.3297    4.6677 C   0  0  0  0  0  0  0  0  0  0  0  0
   12.9742   44.7556    3.6679 C   0  0  0  0  0  0  0  0  0  0  0  0
   13.3661   45.7747    2.7981 C   0  0  0  0  0  0  0  0  0  0  0  0
   14.6268   46.3576    2.9334 C   0  0  0  0  0  0  0  0  0  0  0  0
   15.4796   45.9081    3.9433 C   0  0  0  0  0  0  0  0  0  0  0  0
   14.0507   37.7543   10.0353 N   0  0  0  0  0  0  0  0  0  0  0  0
   13.6122   35.2750   11.6034 N   0  0  0  0  0  0  0  0  0  0  0  0
   12.5608   34.2966    9.7425 N   0  0  0  0  0  0  0  0  0  0  0  0
   15.4690   43.1815    6.9045 N   0  0  0  0  0  0  0  0  0  0  0  0
   13.4421   43.2832    5.5558 N   0  0  0  0  0  0  0  0  0  0  0  0
   15.0792   44.9138    4.7809 N   0  0  0  0  0  0  0  0  0  0  0  0
   13.3863   36.4466    8.2232 O   0  0  0  0  0  0  0  0  0  0  0  0
  1  2  1  0
  2  3  1  0
  3  4  1  0
  3 11  1  6
  4 21  1  0
  5 21  1  0
  5  1  1  0
  6  7  1  0
  7 23  2  0
  8 22  2  0
  9 10  2  0
 12 13  2  0
 13 25  1  0
 14 24  2  0
 15 11  2  0
 16 26  2  0
 17 18  2  0
 19 20  2  0
 21  6  1  0
 25 16  1  0
  6 27  2  0
  7 22  1  0
  8  9  1  0
 10 23  1  0
 11 12  1  0
 13 24  1  0
 14 15  1  0
 16 17  1  0
 18 19  1  0
 20 26  1  0
M  END
>  <rmsd>  (375) 
0.243834287

$$$$
Molport-020-279-144 MCULE-4800752544 PubChem-110255898
     RDKit          3D

 26 28  0  0  0  0  0  0  0  0999 V2000
   11.5934   44.1380    3.5362 C   0  0  0  0  0  0  0  0  0  0  0  0
   12.9449   44.7504    3.6754 C   0  0  0  0  0  0  0  0  0  0  0  0
   13.8422   44.3276    4.6703 C   0  0  0  0  0  0  0  0  0  0  0  0
   15.4530   45.9107    3.9124 C   0  0  0  0  0  0  0  0  0  0  0  0
   14.5858   46.3542    2.9138 C   0  0  0  0  0  0  0  0  0  0  0  0
   13.3257   45.7679    2.7984 C   0  0  0  0  0  0  0  0  0  0  0  0
   14.2301   42.7345    6.6578 C   0  0  0  0  0  0  0  0  0  0  0  0
   14.3821   41.1704    8.4328 C   0  0  0  0  0  0  0  0  0  0  0  0
   16.1943   42.6358    8.0379 C   0  0  0  0  0  0  0  0  0  0  0  0
   15.5065   43.2128    6.9728 C   0  0  0  0  0  0  0  0  0  0  0  0
   17.5521   43.1217    8.3959 C   0  0  0  0  0  0  0  0  0  0  0  0
   13.7608   40.0610    9.2141 C   0  0  2  0  0  0  0  0  0  0  0  0
   13.5830   40.4652   10.6790 C   0  0  0  0  0  0  0  0  0  0  0  0
   12.9441   39.3263   11.4707 C   0  0  0  0  0  0  0  0  0  0  0  0
   13.8074   38.0728   11.3682 C   0  0  0  0  0  0  0  0  0  0  0  0
   14.6026   38.7898    9.1044 C   0  0  0  0  0  0  0  0  0  0  0  0
   13.6877   36.4685    9.4228 C   0  0  0  0  0  0  0  0  0  0  0  0
   13.1185   35.3988   10.2946 C   0  0  0  0  0  0  0  0  0  0  0  0
   13.5749   33.5968   11.6981 C   0  0  0  0  0  0  0  0  0  0  0  0
   15.0673   44.9187    4.7588 N   0  0  0  0  0  0  0  0  0  0  0  0
   13.4597   43.2815    5.5780 N   0  0  0  0  0  0  0  0  0  0  0  0
   13.6988   41.7248    7.3969 N   0  0  0  0  0  0  0  0  0  0  0  0
   15.6245   41.6284    8.7474 N   0  0  0  0  0  0  0  0  0  0  0  0
   14.0344   37.7529    9.9610 N   0  0  0  0  0  0  0  0  0  0  0  0
   14.1942   34.5949   10.8464 N   0  0  0  0  0  0  0  0  0  0  0  0
   13.8882   36.2174    8.2043 O   0  0  0  0  0  0  0  0  0  0  0  0
  1  2  1  0
  3 20  2  0
  3 21  1  0
  4  5  2  0
  6  2  2  0
  8 22  2  0
  9 23  2  0
 10  7  2  0
 11  9  1  0
 12  8  1  6
 12 13  1  0
 13 14  1  0
 14 15  1  0
 15 24  1  0
 16 24  1  0
 16 12  1  0
 18 17  1  0
 18 25  1  0
 19 25  1  0
 21  7  1  0
 24 17  1  0
  2  3  1  0
  4 20  1  0
  5  6  1  0
  7 22  1  0
  8 23  1  0
  9 10  1  0
 17 26  2  0
M  END
>  <rmsd>  (376) 
0.243789032

$$$$
MolPort-020-278-649 MCULE-1929153330 PubChem-110255521
     RDKit          3D

 28 30  0  0  0  0  0  0  0  0999 V2000
   12.3159   46.1403    1.8044 C   0  0  0  0  0  0  0  0  0  0  0  0
   13.2918   45.7183    2.8425 C   0  0  0  0  0  0  0  0  0  0  0  0
   14.5386   46.3358    2.9188 C   0  0  0  0  0  0  0  0  0  0  0  0
   15.4262   45.9116    3.9057 C   0  0  0  0  0  0  0  0  0  0  0  0
   13.8445   44.3258    4.6750 C   0  0  0  0  0  0  0  0  0  0  0  0
   14.2335   42.7216    6.6483 C   0  0  0  0  0  0  0  0  0  0  0  0
   14.3759   41.1684    8.4335 C   0  0  0  0  0  0  0  0  0  0  0  0
   16.2215   42.5771    7.9900 C   0  0  0  0  0  0  0  0  0  0  0  0
   15.5289   43.1657    6.9343 C   0  0  0  0  0  0  0  0  0  0  0  0
   17.5988   43.0278    8.3184 C   0  0  0  0  0  0  0  0  0  0  0  0
   13.7368   40.0861    9.2381 C   0  0  2  0  0  0  0  0  0  0  0  0
   13.6175   40.5000   10.6971 C   0  0  0  0  0  0  0  0  0  0  0  0
   12.9566   39.3801   11.4818 C   0  0  0  0  0  0  0  0  0  0  0  0
   13.7622   38.0877   11.3299 C   0  0  0  0  0  0  0  0  0  0  0  0
   14.5389   38.7867    9.1252 C   0  0  0  0  0  0  0  0  0  0  0  0
   11.5883   35.8087   11.2598 C   0  0  0  0  0  0  0  0  0  0  0  0
   13.2231   34.7422    9.9772 C   0  0  0  0  0  0  0  0  0  0  0  0
   16.7660   46.5434    4.0223 C   0  0  0  0  0  0  0  0  0  0  0  0
   15.0661   44.9205    4.7618 N   0  0  0  0  0  0  0  0  0  0  0  0
   12.9686   44.7298    3.7170 N   0  0  0  0  0  0  0  0  0  0  0  0
   13.4591   43.2799    5.5773 N   0  0  0  0  0  0  0  0  0  0  0  0
   13.6887   41.7326    7.4055 N   0  0  0  0  0  0  0  0  0  0  0  0
   15.6370   41.5928    8.7197 N   0  0  0  0  0  0  0  0  0  0  0  0
   13.9612   37.6969    9.9251 N   0  0  0  0  0  0  0  0  0  0  0  0
   12.0331   35.5714    9.8972 N   0  0  0  0  0  0  0  0  0  0  0  0
   12.4914   37.0936    9.1953 S   0  0  0  0  0  0  0  0  0  0  0  0
   11.3700   38.0822    9.3641 O   0  0  0  0  0  0  0  0  0  0  0  0
   12.7257   36.8848    7.7246 O   0  0  0  0  0  0  0  0  0  0  0  0
  1  2  1  0
  2 20  2  0
  3  4  2  0
  5 19  2  0
  5 21  1  0
  7 22  2  0
  8 23  2  0
  9  6  2  0
 10  8  1  0
 11  7  1  6
 11 12  1  0
 12 13  1  0
 13 14  1  0
 14 24  1  0
 15 24  1  0
 15 11  1  0
 16 25  1  0
 17 25  1  0
 18  4  1  0
 21  6  1  0
 26 24  1  0
 26 25  1  0
  2  3  1  0
  4 19  1  0
  5 20  1  0
  6 22  1  0
  7 23  1  0
  8  9  1  0
 26 27  2  0
 26 28  2  0
M  END
>  <rmsd>  (377) 
0.243770987

$$$$
Molport-047-071-943 MCULE-2569029529 PubChem-132764857
     RDKit          3D

 26 28  0  0  0  0  0  0  0  0999 V2000
   13.8518   44.3287    4.6657 C   0  0  0  0  0  0  0  0  0  0  0  0
   14.2116   42.7245    6.6430 C   0  0  0  0  0  0  0  0  0  0  0  0
   15.5041   43.1672    6.9531 C   0  0  0  0  0  0  0  0  0  0  0  0
   16.1969   42.5844    8.0156 C   0  0  0  0  0  0  0  0  0  0  0  0
   17.5683   43.0479    8.3504 C   0  0  0  0  0  0  0  0  0  0  0  0
   14.3622   41.1437    8.4650 C   0  0  0  0  0  0  0  0  0  0  0  0
   13.7480   40.0506    9.2745 C   0  0  2  0  0  0  0  0  0  0  0  0
   13.6306   40.4631   10.7433 C   0  0  0  0  0  0  0  0  0  0  0  0
   13.0067   39.3363   11.5641 C   0  0  0  0  0  0  0  0  0  0  0  0
   13.8459   38.0698   11.4270 C   0  0  0  0  0  0  0  0  0  0  0  0
   13.6898   36.4051    9.5525 C   0  0  0  0  0  0  0  0  0  0  0  0
   13.4803   36.0667    8.1317 C   0  0  0  0  0  0  0  0  0  0  0  0
   13.3806   36.9637    7.1599 C   0  0  0  0  0  0  0  0  0  0  0  0
   14.5598   38.7623    9.1403 C   0  0  0  0  0  0  0  0  0  0  0  0
   13.6408   41.7042    7.4076 C   0  0  0  0  0  0  0  0  0  0  0  0
   15.4488   45.9086    3.9167 C   0  0  0  0  0  0  0  0  0  0  0  0
   16.7887   46.5368    4.0515 C   0  0  0  0  0  0  0  0  0  0  0  0
   14.5769   46.3334    2.9163 C   0  0  0  0  0  0  0  0  0  0  0  0
   13.3294   45.7192    2.8231 C   0  0  0  0  0  0  0  0  0  0  0  0
   12.3697   46.1425    1.7705 C   0  0  0  0  0  0  0  0  0  0  0  0
   13.4511   43.2843    5.5630 N   0  0  0  0  0  0  0  0  0  0  0  0
   15.6180   41.5929    8.7436 N   0  0  0  0  0  0  0  0  0  0  0  0
   13.9939   37.7362   10.0128 N   0  0  0  0  0  0  0  0  0  0  0  0
   15.0737   44.9197    4.7689 N   0  0  0  0  0  0  0  0  0  0  0  0
   12.9908   44.7333    3.6944 N   0  0  0  0  0  0  0  0  0  0  0  0
   13.5832   35.4724   10.3930 O   0  0  0  0  0  0  0  0  0  0  0  0
  1 21  1  0
  1 25  2  0
  3  4  2  0
  5  4  1  0
  6 22  2  0
  7  6  1  6
  7  8  1  0
  8  9  1  0
  9 10  1  0
 10 23  1  0
 11 12  1  0
 14 23  1  0
 14  7  1  0
 15  2  2  0
 16 24  2  0
 17 16  1  0
 18 19  2  0
 20 19  1  0
 21  2  1  0
 23 11  1  0
  1 24  1  0
  2  3  1  0
  4 22  1  0
  6 15  1  0
 11 26  2  0
 12 13  2  0
 16 18  1  0
 19 25  1  0
M  END
>  <rmsd>  (378) 
0.24374716

$$$$
Molport-046-971-651 MCULE-3715949445 PubChem-110111589
     RDKit          3D

 26 28  0  0  0  0  0  0  0  0999 V2000
   11.9135   35.6882   10.8284 C   0  0  0  0  0  0  0  0  0  0  0  0
   13.3303   35.3053   10.4419 C   0  0  0  0  0  0  0  0  0  0  0  0
   13.2188   33.9704    9.6982 C   0  0  0  0  0  0  0  0  0  0  0  0
   13.8894   36.4089    9.5512 C   0  0  0  0  0  0  0  0  0  0  0  0
   13.8632   38.0964   11.4455 C   0  0  0  0  0  0  0  0  0  0  0  0
   13.0252   39.3666   11.5519 C   0  0  0  0  0  0  0  0  0  0  0  0
   13.6667   40.4866   10.7386 C   0  0  0  0  0  0  0  0  0  0  0  0
   13.8040   40.0633    9.2752 C   0  0  2  0  0  0  0  0  0  0  0  0
   14.6258   38.7789    9.1612 C   0  0  0  0  0  0  0  0  0  0  0  0
   14.4046   41.1584    8.4523 C   0  0  0  0  0  0  0  0  0  0  0  0
   13.6632   41.7073    7.4036 C   0  0  0  0  0  0  0  0  0  0  0  0
   14.2147   42.7303    6.6281 C   0  0  0  0  0  0  0  0  0  0  0  0
   16.2129   42.6648    7.9175 C   0  0  0  0  0  0  0  0  0  0  0  0
   15.6935   41.6420    8.7124 C   0  0  0  0  0  0  0  0  0  0  0  0
   13.8520   44.3301    4.6673 C   0  0  0  0  0  0  0  0  0  0  0  0
   12.9724   44.7558    3.6683 C   0  0  0  0  0  0  0  0  0  0  0  0
   13.3631   45.7752    2.7982 C   0  0  0  0  0  0  0  0  0  0  0  0
   14.6237   46.3585    2.9323 C   0  0  0  0  0  0  0  0  0  0  0  0
   15.4776   45.9090    3.9414 C   0  0  0  0  0  0  0  0  0  0  0  0
   15.4023   34.7823   11.3329 C   0  0  0  0  0  0  0  0  0  0  0  0
   14.2019   36.1429    8.3568 O   0  0  0  0  0  0  0  0  0  0  0  0
   14.0793   35.1555   11.6361 O   0  0  0  0  0  0  0  0  0  0  0  0
   14.0664   37.7529   10.0386 N   0  0  0  0  0  0  0  0  0  0  0  0
   15.4706   43.1823    6.9025 N   0  0  0  0  0  0  0  0  0  0  0  0
   13.4424   43.2835    5.5556 N   0  0  0  0  0  0  0  0  0  0  0  0
   15.0783   44.9146    4.7792 N   0  0  0  0  0  0  0  0  0  0  0  0
  1  2  1  0
  2  3  1  0
  2  4  1  0
  2 22  1  0
  4 23  1  0
  5 23  1  0
  5  6  1  0
  6  7  1  0
  7  8  1  0
  8  9  1  0
  8 10  1  6
  9 23  1  0
 11 12  2  0
 12 25  1  0
 13 24  2  0
 14 10  2  0
 15 26  2  0
 16 17  2  0
 18 19  2  0
 20 22  1  0
 25 15  1  0
  4 21  2  0
 10 11  1  0
 12 24  1  0
 13 14  1  0
 15 16  1  0
 17 18  1  0
 19 26  1  0
M  END
>  <rmsd>  (379) 
0.24374105

$$$$
MolPort-047-015-567 MCULE-9450906358 PubChem-110095388
     RDKit          3D

 24 26  0  0  0  0  0  0  0  0999 V2000
   17.5560   43.0171    8.3732 C   0  0  0  0  0  0  0  0  0  0  0  0
   16.1831   42.5664    8.0273 C   0  0  0  0  0  0  0  0  0  0  0  0
   15.5033   43.1562    6.9639 C   0  0  0  0  0  0  0  0  0  0  0  0
   14.2119   42.7109    6.6617 C   0  0  0  0  0  0  0  0  0  0  0  0
   14.3337   41.1540    8.4447 C   0  0  0  0  0  0  0  0  0  0  0  0
   13.6868   40.0680    9.2387 C   0  0  2  0  0  0  0  0  0  0  0  0
   13.5413   40.4855   10.7013 C   0  0  0  0  0  0  0  0  0  0  0  0
   12.9799   39.3325   11.5272 C   0  0  0  0  0  0  0  0  0  0  0  0
   13.8395   38.0881   11.3171 C   0  0  0  0  0  0  0  0  0  0  0  0
   14.4984   38.7754    9.1437 C   0  0  0  0  0  0  0  0  0  0  0  0
   14.6685   36.5255    9.7863 C   0  0  0  0  0  0  0  0  0  0  0  0
   14.1599   35.6373    8.6633 C   0  0  0  0  0  0  0  0  0  0  0  0
   13.8723   44.3144    4.6937 C   0  0  0  0  0  0  0  0  0  0  0  0
   15.1966   45.8788    3.7872 C   0  0  0  0  0  0  0  0  0  0  0  0
   14.0866   46.0144    2.9588 C   0  0  0  0  0  0  0  0  0  0  0  0
   13.9401   46.9669    1.8236 C   0  0  0  0  0  0  0  0  0  0  0  0
   16.4339   46.6956    3.6481 C   0  0  0  0  0  0  0  0  0  0  0  0
   13.6583   41.7200    7.4098 N   0  0  0  0  0  0  0  0  0  0  0  0
   15.5906   41.5795    8.7472 N   0  0  0  0  0  0  0  0  0  0  0  0
   13.8385   37.7135    9.9038 N   0  0  0  0  0  0  0  0  0  0  0  0
   13.4532   43.2714    5.5819 N   0  0  0  0  0  0  0  0  0  0  0  0
   15.0745   44.9308    4.7532 N   0  0  0  0  0  0  0  0  0  0  0  0
   12.9134   35.1108    9.0020 O   0  0  0  0  0  0  0  0  0  0  0  0
   12.9137   44.9138    3.4489 S   0  0  0  0  0  0  0  0  0  0  0  0
  1  2  1  0
  2 19  2  0
  3  4  2  0
  4 21  1  0
  5 18  2  0
  6  5  1  6
  6  7  1  0
  7  8  1  0
  8  9  1  0
  9 20  1  0
 10 20  1  0
 10  6  1  0
 11 20  1  0
 11 12  1  0
 12 23  1  0
 13 24  1  0
 14 22  1  0
 15 24  1  0
 16 15  1  0
 17 14  1  0
 21 13  1  0
  2  3  1  0
  4 18  1  0
  5 19  1  0
 13 22  2  0
 14 15  2  0
M  END
>  <rmsd>  (380) 
0.243732959

$$$$
MolPort-008-361-976 55060657 CSSS00160015778 MCULE-9327796142 PubChem-46984026 ZINC000055060657 ZINC55060657
     RDKit          3D

 26 27  0  0  0  0  0  0  0  0999 V2000
   16.5258   36.1207   14.6395 C   0  0  0  0  0  0  0  0  0  0  0  0
   16.0026   35.4982   13.3591 C   0  0  0  0  0  0  0  0  0  0  0  0
   14.5076   38.1876   11.5708 C   0  0  0  0  0  0  0  0  0  0  0  0
   13.5135   39.2876   11.4399 C   0  0  0  0  0  0  0  0  0  0  0  0
   15.4674   37.8359   10.6400 C   0  0  0  0  0  0  0  0  0  0  0  0
   15.7613   38.5018    9.3359 C   0  0  0  0  0  0  0  0  0  0  0  0
   17.6667   39.3908    8.2571 C   0  0  0  0  0  0  0  0  0  0  0  0
   19.1406   39.5797    8.5714 C   0  0  0  0  0  0  0  0  0  0  0  0
   20.8873   38.8630    9.7124 C   0  0  0  0  0  0  0  0  0  0  0  0
   16.4034   40.7824    9.7712 C   0  0  0  0  0  0  0  0  0  0  0  0
   15.6419   41.4269    8.6437 C   0  0  0  0  0  0  0  0  0  0  0  0
   16.2288   42.4781    7.9328 C   0  0  0  0  0  0  0  0  0  0  0  0
   15.5252   43.1073    6.9023 C   0  0  0  0  0  0  0  0  0  0  0  0
   14.2233   42.6962    6.5778 C   0  0  0  0  0  0  0  0  0  0  0  0
   13.9037   44.3892    4.6801 C   0  0  0  0  0  0  0  0  0  0  0  0
   12.9810   44.9119    3.6395 C   0  0  0  0  0  0  0  0  0  0  0  0
   13.6346   41.6543    7.3023 C   0  0  0  0  0  0  0  0  0  0  0  0
   14.3375   41.0246    8.3333 C   0  0  0  0  0  0  0  0  0  0  0  0
   16.1461   36.7860   11.2208 C   0  0  0  0  0  0  0  0  0  0  0  0
   17.3051   36.0490   10.6375 C   0  0  0  0  0  0  0  0  0  0  0  0
   15.5967   36.5392   12.4259 N   0  0  0  0  0  0  0  0  0  0  0  0
   14.5982   37.3818   12.6478 N   0  0  0  0  0  0  0  0  0  0  0  0
   16.8834   39.4191    9.4876 N   0  0  0  0  0  0  0  0  0  0  0  0
   13.4706   43.3170    5.5267 N   0  0  0  0  0  0  0  0  0  0  0  0
   19.6184   38.4784    9.2824 O   0  0  0  0  0  0  0  0  0  0  0  0
   15.0498   44.8968    4.8001 O   0  0  0  0  0  0  0  0  0  0  0  0
  1  2  1  0
  2 21  1  0
  3  5  1  0
  4  3  1  0
  6  5  1  0
  6 23  1  0
  7 23  1  0
  7  8  1  0
  8 25  1  0
  9 25  1  0
 10 23  1  0
 10 11  1  0
 12 13  2  0
 14 24  1  0
 14 17  2  0
 16 15  1  0
 18 11  2  0
 19 21  1  0
 20 19  1  0
 21 22  1  0
 24 15  1  0
  3 22  2  0
  5 19  2  0
 11 12  1  0
 13 14  1  0
 15 26  2  0
 17 18  1  0
M  END
>  <rmsd>  (381) 
0.243728831

$$$$
Molport-047-071-916 MCULE-7355664274 PubChem-132948519
     RDKit          3D

 24 26  0  0  0  0  0  0  0  0999 V2000
   14.0751   37.7546   10.0431 N   0  0  0  0  0  0  0  0  0  0  0  0
   15.4711   43.1833    6.9018 N   0  0  0  0  0  0  0  0  0  0  0  0
   13.4423   43.2836    5.5561 N   0  0  0  0  0  0  0  0  0  0  0  0
   15.0781   44.9144    4.7799 N   0  0  0  0  0  0  0  0  0  0  0  0
   13.8603   38.0950   11.4481 C   0  0  0  0  0  0  0  0  0  0  0  0
   13.0245   39.3674   11.5506 C   0  0  0  0  0  0  0  0  0  0  0  0
   13.6706   40.4862   10.7390 C   0  0  0  0  0  0  0  0  0  0  0  0
   13.8072   40.0636    9.2755 C   0  0  2  0  0  0  0  0  0  0  0  0
   14.6292   38.7796    9.1601 C   0  0  0  0  0  0  0  0  0  0  0  0
   14.4068   41.1590    8.4524 C   0  0  0  0  0  0  0  0  0  0  0  0
   15.6956   41.6432    8.7118 C   0  0  0  0  0  0  0  0  0  0  0  0
   16.2141   42.6662    7.9166 C   0  0  0  0  0  0  0  0  0  0  0  0
   14.2152   42.7307    6.6280 C   0  0  0  0  0  0  0  0  0  0  0  0
   13.6646   41.7075    7.4039 C   0  0  0  0  0  0  0  0  0  0  0  0
   13.8518   44.3304    4.6678 C   0  0  0  0  0  0  0  0  0  0  0  0
   12.9724   44.7565    3.6688 C   0  0  0  0  0  0  0  0  0  0  0  0
   13.3635   45.7759    2.7990 C   0  0  0  0  0  0  0  0  0  0  0  0
   14.6244   46.3588    2.9335 C   0  0  0  0  0  0  0  0  0  0  0  0
   15.4780   45.9089    3.9425 C   0  0  0  0  0  0  0  0  0  0  0  0
   16.8246   46.5166    4.1021 C   0  0  0  0  0  0  0  0  0  0  0  0
   13.9202   36.3990    9.5955 C   0  0  0  0  0  0  0  0  0  0  0  0
   14.2083   36.0377    8.1975 C   0  0  0  0  0  0  0  0  0  0  0  0
   14.0725   34.7965    7.7488 C   0  0  0  0  0  0  0  0  0  0  0  0
   13.5271   35.5124   10.4034 O   0  0  0  0  0  0  0  0  0  0  0  0
  1 21  1  0
  3 15  1  0
  5  1  1  0
  5  6  1  0
  6  7  1  0
  7  8  1  0
  8  9  1  0
  8 10  1  6
  9  1  1  0
 11 12  2  0
 13  2  2  0
 13  3  1  0
 14 10  2  0
 15  4  2  0
 16 17  2  0
 18 19  2  0
 20 19  1  0
 21 22  1  0
 10 11  1  0
 12  2  1  0
 13 14  1  0
 15 16  1  0
 17 18  1  0
 19  4  1  0
 21 24  2  0
 22 23  2  0
M  END
>  <rmsd>  (382) 
0.243706092

$$$$
MolPort-021-778-627 72441451 CSSS00160367955 ChemDiv-Y300-3740 MCULE-7894684116 PubChem-56921941 ZINC000072441451 ZINC72441451
     RDKit          3D

 25 27  0  0  0  0  0  0  0  0999 V2000
   13.3250   39.2591   11.2197 C   0  0  0  0  0  0  0  0  0  0  0  0
   13.8878   40.0149    9.2247 C   0  0  0  0  0  0  0  0  0  0  0  0
   14.4822   41.1218    8.4250 C   0  0  0  0  0  0  0  0  0  0  0  0
   15.7805   41.5696    8.6926 C   0  0  0  0  0  0  0  0  0  0  0  0
   16.3342   42.6021    7.9313 C   0  0  0  0  0  0  0  0  0  0  0  0
   15.5915   43.1854    6.9011 C   0  0  0  0  0  0  0  0  0  0  0  0
   14.2901   42.7392    6.6233 C   0  0  0  0  0  0  0  0  0  0  0  0
   13.8846   44.3671    4.6802 C   0  0  0  0  0  0  0  0  0  0  0  0
   12.9375   44.8383    3.6541 C   0  0  0  0  0  0  0  0  0  0  0  0
   11.6571   44.2739    3.5591 C   0  0  0  0  0  0  0  0  0  0  0  0
   10.7582   44.7194    2.5859 C   0  0  0  0  0  0  0  0  0  0  0  0
   11.1346   45.7297    1.6958 C   0  0  0  0  0  0  0  0  0  0  0  0
   10.1674   46.2203    0.6742 C   0  0  0  0  0  0  0  0  0  0  0  0
    7.9994   47.0965    0.8128 C   0  0  0  0  0  0  0  0  0  0  0  0
    7.1625   48.3321    1.1541 C   0  0  0  0  0  0  0  0  0  0  0  0
    8.9463   49.7104    0.9344 C   0  0  0  0  0  0  0  0  0  0  0  0
    9.8773   48.5472    0.5822 C   0  0  0  0  0  0  0  0  0  0  0  0
   12.4063   46.3031    1.7890 C   0  0  0  0  0  0  0  0  0  0  0  0
   13.3048   45.8577    2.7628 C   0  0  0  0  0  0  0  0  0  0  0  0
   13.7433   41.7046    7.3905 C   0  0  0  0  0  0  0  0  0  0  0  0
   13.7479   40.4095   10.5558 O   0  0  0  0  0  0  0  0  0  0  0  0
   15.0273   44.8939    4.7650 O   0  0  0  0  0  0  0  0  0  0  0  0
    7.6517   49.4478    0.4488 O   0  0  0  0  0  0  0  0  0  0  0  0
   13.4982   43.3115    5.5737 N   0  0  0  0  0  0  0  0  0  0  0  0
    9.3880   47.3212    1.2157 N   0  0  0  0  0  0  0  0  0  0  0  0
  1 21  1  0
  2 21  1  0
  2  3  1  0
  4  5  2  0
  6  7  2  0
  7 24  1  0
  8  9  1  0
 10 11  2  0
 12 18  2  0
 13 12  1  0
 13 25  1  0
 14 25  1  0
 14 15  1  0
 15 23  1  0
 16 23  1  0
 16 17  1  0
 17 25  1  0
 19  9  2  0
 20  3  2  0
 24  8  1  0
  3  4  1  0
  5  6  1  0
  7 20  1  0
  8 22  2  0
  9 10  1  0
 11 12  1  0
 18 19  1  0
M  END
>  <rmsd>  (383) 
0.243699878

$$$$
MolPort-002-458-232 2877914 CSSS00159749525 MCULE-9071127759 PubChem-2230166 ZINC000002877914 ZINC02877914
     RDKit          3D

 23 25  0  0  0  0  0  0  0  0999 V2000
   12.8691   39.5471   10.0124 F   0  0  0  0  0  0  0  0  0  0  0  0
   14.4437   38.5229   11.2594 F   0  0  0  0  0  0  0  0  0  0  0  0
   12.4275   38.9779   12.1390 F   0  0  0  0  0  0  0  0  0  0  0  0
   13.4102   39.4418   11.2800 C   0  0  0  0  0  0  0  0  0  0  0  0
   13.9328   40.7858   11.7268 C   0  0  0  0  0  0  0  0  0  0  0  0
   13.3912   41.3876   12.8740 C   0  0  0  0  0  0  0  0  0  0  0  0
   13.8648   42.6202   13.3269 C   0  0  0  0  0  0  0  0  0  0  0  0
   14.8915   43.2672   12.6398 C   0  0  0  0  0  0  0  0  0  0  0  0
   15.4418   42.6840   11.4980 C   0  0  0  0  0  0  0  0  0  0  0  0
   14.9680   41.4516   11.0281 C   0  0  0  0  0  0  0  0  0  0  0  0
   15.5914   40.8640    9.7980 C   0  0  0  0  0  0  0  0  0  0  0  0
   15.2667   41.6770    8.5892 C   0  0  0  0  0  0  0  0  0  0  0  0
   16.0833   42.6603    8.0440 C   0  0  0  0  0  0  0  0  0  0  0  0
   14.3120   42.8216    6.6713 C   0  0  0  0  0  0  0  0  0  0  0  0
   13.8877   44.3419    4.6813 C   0  0  0  0  0  0  0  0  0  0  0  0
   12.9467   44.7543    3.5964 C   0  0  0  0  0  0  0  0  0  0  0  0
   12.6363   46.2356    3.7156 C   0  0  0  0  0  0  0  0  0  0  0  0
   11.6317   45.2149    4.1989 C   0  0  0  0  0  0  0  0  0  0  0  0
   15.4896   44.8102   13.2085 Cl  0  0  0  0  0  0  0  0  0  0  0  0
   15.5435   43.2933    6.9684 N   0  0  0  0  0  0  0  0  0  0  0  0
   13.5042   43.3070    5.5949 N   0  0  0  0  0  0  0  0  0  0  0  0
   15.0263   44.8785    4.7553 O   0  0  0  0  0  0  0  0  0  0  0  0
   13.8270   41.6047    7.7218 S   0  0  0  0  0  0  0  0  0  0  0  0
  4  1  1  0
  4  2  1  0
  4  3  1  0
  4  5  1  0
  6  7  2  0
  8 19  1  0
  8  9  2  0
 10  5  2  0
 11 10  1  0
 11 12  1  0
 12 23  1  0
 13 20  1  0
 14 21  1  0
 14 23  1  0
 16 15  1  0
 16 17  1  0
 17 18  1  0
 18 16  1  0
 21 15  1  0
  5  6  1  0
  7  8  1  0
  9 10  1  0
 12 13  2  0
 14 20  2  0
 15 22  2  0
M  END
>  <rmsd>  (384) 
0.243689939

$$$$
MolPort-046-956-887 MCULE-2700857628 PubChem-110095889
     RDKit          3D

 23 25  0  0  0  0  0  0  0  0999 V2000
   12.9819   39.3386   11.5203 C   0  0  0  0  0  0  0  0  0  0  0  0
   13.5566   40.4925   10.7049 C   0  0  0  0  0  0  0  0  0  0  0  0
   13.7130   40.0810    9.2406 C   0  0  2  0  0  0  0  0  0  0  0  0
   14.5136   38.7808    9.1440 C   0  0  0  0  0  0  0  0  0  0  0  0
   13.8347   38.0896   11.3099 C   0  0  0  0  0  0  0  0  0  0  0  0
   14.6596   36.5266    9.7773 C   0  0  0  0  0  0  0  0  0  0  0  0
   14.1418   35.6531    8.6859 C   0  0  0  0  0  0  0  0  0  0  0  0
   14.3590   41.1692    8.4438 C   0  0  0  0  0  0  0  0  0  0  0  0
   15.6512   41.6217    8.7382 C   0  0  0  0  0  0  0  0  0  0  0  0
   15.5164   43.1716    6.9552 C   0  0  0  0  0  0  0  0  0  0  0  0
   14.2235   42.7246    6.6542 C   0  0  0  0  0  0  0  0  0  0  0  0
   13.8497   44.3207    4.6732 C   0  0  0  0  0  0  0  0  0  0  0  0
   15.4366   45.9068    3.9029 C   0  0  0  0  0  0  0  0  0  0  0  0
   14.5466   46.3161    2.9092 C   0  0  0  0  0  0  0  0  0  0  0  0
   12.9617   44.7330    3.6773 C   0  0  0  0  0  0  0  0  0  0  0  0
   13.8395   37.7213    9.8950 N   0  0  0  0  0  0  0  0  0  0  0  0
   12.8374   35.0915    8.7760 N   0  0  0  0  0  0  0  0  0  0  0  0
   16.1995   42.6119    7.9876 N   0  0  0  0  0  0  0  0  0  0  0  0
   13.6803   41.7330    7.4095 N   0  0  0  0  0  0  0  0  0  0  0  0
   13.4562   43.2787    5.5762 N   0  0  0  0  0  0  0  0  0  0  0  0
   15.0692   44.9197    4.7618 N   0  0  0  0  0  0  0  0  0  0  0  0
   13.3285   45.7202    2.8180 N   0  0  0  0  0  0  0  0  0  0  0  0
   14.8644   35.4039    7.6867 O   0  0  0  0  0  0  0  0  0  0  0  0
  1  2  1  0
  2  3  1  0
  3  4  1  0
  3  8  1  6
  4 16  1  0
  5 16  1  0
  5  1  1  0
  6 16  1  0
  6  7  1  0
  7 17  1  0
  8 19  2  0
  9 18  2  0
 10 11  2  0
 11 20  1  0
 13 21  2  0
 14 22  2  0
 15 12  2  0
 20 12  1  0
  7 23  2  0
  8  9  1  0
 10 18  1  0
 11 19  1  0
 12 21  1  0
 13 14  1  0
 15 22  1  0
M  END
>  <rmsd>  (385) 
0.243658721

$$$$
MolPort-020-292-491 MCULE-8266593195 PubChem-110264959
     RDKit          3D

 30 33  0  0  0  0  0  0  0  0999 V2000
   16.7878   46.5347    4.0470 C   0  0  0  0  0  0  0  0  0  0  0  0
   15.4482   45.9057    3.9131 C   0  0  0  0  0  0  0  0  0  0  0  0
   14.5764   46.3280    2.9115 C   0  0  0  0  0  0  0  0  0  0  0  0
   13.3293   45.7130    2.8192 C   0  0  0  0  0  0  0  0  0  0  0  0
   13.8515   44.3269    4.6653 C   0  0  0  0  0  0  0  0  0  0  0  0
   14.2114   42.7275    6.6463 C   0  0  0  0  0  0  0  0  0  0  0  0
   13.6411   41.7082    7.4125 C   0  0  0  0  0  0  0  0  0  0  0  0
   14.3622   41.1506    8.4715 C   0  0  0  0  0  0  0  0  0  0  0  0
   16.1960   42.5915    8.0205 C   0  0  0  0  0  0  0  0  0  0  0  0
   15.5033   43.1718    6.9566 C   0  0  0  0  0  0  0  0  0  0  0  0
   17.5668   43.0566    8.3551 C   0  0  0  0  0  0  0  0  0  0  0  0
   13.7489   40.0568    9.2800 C   0  0  2  0  0  0  0  0  0  0  0  0
   13.6448   40.4578   10.7529 C   0  0  0  0  0  0  0  0  0  0  0  0
   13.0045   39.3333   11.5651 C   0  0  0  0  0  0  0  0  0  0  0  0
   13.8183   38.0510   11.4158 C   0  0  0  0  0  0  0  0  0  0  0  0
   14.5497   38.7639    9.1317 C   0  0  0  0  0  0  0  0  0  0  0  0
   13.5434   36.4743    9.4740 C   0  0  0  0  0  0  0  0  0  0  0  0
   13.5979   36.1888    8.0003 C   0  0  0  0  0  0  0  0  0  0  0  0
   12.2697   36.4423    7.2814 C   0  0  0  0  0  0  0  0  0  0  0  0
   11.8227   37.8890    7.3826 C   0  0  0  0  0  0  0  0  0  0  0  0
   10.3197   37.8366    7.5261 C   0  0  0  0  0  0  0  0  0  0  0  0
   10.0311   36.5296    8.2307 C   0  0  0  0  0  0  0  0  0  0  0  0
   11.1390   35.5792    7.8199 C   0  0  0  0  0  0  0  0  0  0  0  0
   12.3697   46.1335    1.7655 C   0  0  0  0  0  0  0  0  0  0  0  0
   12.9907   44.7288    3.6928 N   0  0  0  0  0  0  0  0  0  0  0  0
   15.0733   44.9186    4.7675 N   0  0  0  0  0  0  0  0  0  0  0  0
   13.4512   43.2843    5.5647 N   0  0  0  0  0  0  0  0  0  0  0  0
   15.6176   41.6008    8.7498 N   0  0  0  0  0  0  0  0  0  0  0  0
   13.9758   37.7384    9.9982 N   0  0  0  0  0  0  0  0  0  0  0  0
   13.0968   35.5881   10.2513 O   0  0  0  0  0  0  0  0  0  0  0  0
  1  2  1  0
  2 26  2  0
  3  4  2  0
  5 25  2  0
  5 27  1  0
  7  8  2  0
  9 28  2  0
 10  6  2  0
 11  9  1  0
 12  8  1  6
 12 13  1  0
 13 14  1  0
 14 15  1  0
 15 29  1  0
 16 29  1  0
 16 12  1  0
 18 17  1  0
 18 19  1  0
 19 20  1  0
 20 21  1  0
 21 22  1  0
 22 23  1  0
 23 19  1  0
 24  4  1  0
 27  6  1  0
 29 17  1  0
  2  3  1  0
  4 25  1  0
  5 26  1  0
  6  7  1  0
  8 28  1  0
  9 10  1  0
 17 30  2  0
M  END
>  <rmsd>  (386) 
0.243602931

$$$$
MolPort-020-293-056 MCULE-2843781751 PubChem-110265523
     RDKit          3D

 29 32  0  0  0  0  0  0  0  0999 V2000
   12.7744   31.7703    8.1924 C   0  0  0  0  0  0  0  0  0  0  0  0
   11.9340   32.8021    7.4668 C   0  0  0  0  0  0  0  0  0  0  0  0
   12.1975   35.2263    8.0097 C   0  0  0  0  0  0  0  0  0  0  0  0
   11.8048   36.0599    9.0312 C   0  0  0  0  0  0  0  0  0  0  0  0
   11.1341   35.2597    9.9396 C   0  0  0  0  0  0  0  0  0  0  0  0
   12.0628   37.5233    9.1573 C   0  0  0  0  0  0  0  0  0  0  0  0
   13.0646   38.1419   11.2035 C   0  0  0  0  0  0  0  0  0  0  0  0
   13.8926   39.3339   11.6867 C   0  0  0  0  0  0  0  0  0  0  0  0
   13.6109   40.5532   10.8121 C   0  0  0  0  0  0  0  0  0  0  0  0
   13.5422   40.1988    9.3195 C   0  0  2  0  0  0  0  0  0  0  0  0
   14.0579   38.7833    9.0294 C   0  0  0  0  0  0  0  0  0  0  0  0
   14.2601   41.2090    8.4830 C   0  0  0  0  0  0  0  0  0  0  0  0
   14.2014   42.7221    6.6425 C   0  0  0  0  0  0  0  0  0  0  0  0
   15.5432   43.0598    6.8634 C   0  0  0  0  0  0  0  0  0  0  0  0
   16.2425   42.4584    7.9092 C   0  0  0  0  0  0  0  0  0  0  0  0
   15.6035   41.5248    8.7247 C   0  0  0  0  0  0  0  0  0  0  0  0
   13.8792   44.2841    4.6223 C   0  0  0  0  0  0  0  0  0  0  0  0
   13.0552   44.6215    3.5346 C   0  0  0  0  0  0  0  0  0  0  0  0
   13.4845   45.5910    2.6269 C   0  0  0  0  0  0  0  0  0  0  0  0
   14.7169   46.2192    2.8082 C   0  0  0  0  0  0  0  0  0  0  0  0
   15.5068   45.8675    3.9033 C   0  0  0  0  0  0  0  0  0  0  0  0
   11.7332   43.9640    3.3250 C   0  0  0  0  0  0  0  0  0  0  0  0
   12.9472   35.6152    6.7786 C   0  0  0  0  0  0  0  0  0  0  0  0
   11.7656   33.9878    8.2958 N   0  0  0  0  0  0  0  0  0  0  0  0
   11.1224   33.9982    9.4537 N   0  0  0  0  0  0  0  0  0  0  0  0
   13.3448   37.7553    9.8072 N   0  0  0  0  0  0  0  0  0  0  0  0
   13.6010   41.8105    7.4562 N   0  0  0  0  0  0  0  0  0  0  0  0
   13.4482   43.2835    5.5589 N   0  0  0  0  0  0  0  0  0  0  0  0
   15.0761   44.9188    4.7767 N   0  0  0  0  0  0  0  0  0  0  0  0
  1  2  1  0
  2 24  1  0
  4  5  1  0
  6  4  1  0
  6 26  1  0
  7 26  1  0
  7  8  1  0
  8  9  1  0
  9 10  1  0
 10 11  1  0
 10 12  1  6
 11 26  1  0
 13 27  2  0
 13 28  1  0
 14 15  2  0
 16 12  2  0
 17 29  2  0
 18 19  2  0
 20 21  2  0
 22 18  1  0
 23  3  1  0
 24  3  1  0
 24 25  1  0
 28 17  1  0
  3  4  2  0
  5 25  2  0
 12 27  1  0
 13 14  1  0
 15 16  1  0
 17 18  1  0
 19 20  1  0
 21 29  1  0
M  END
>  <rmsd>  (387) 
0.243575573

$$$$
MolPort-039-210-396 CSSS03436989980 MCULE-9187658324 PubChem-121016984
     RDKit          3D

 25 28  0  0  0  0  0  0  0  0999 V2000
   15.0420   44.8888    4.8296 O   0  0  0  0  0  0  0  0  0  0  0  0
   13.4603   41.3539   10.5603 O   0  0  0  0  0  0  0  0  0  0  0  0
   13.8758   44.4168    4.7341 C   0  0  0  0  0  0  0  0  0  0  0  0
   14.3040   42.6422    6.5113 C   0  0  0  0  0  0  0  0  0  0  0  0
   13.9155   41.5643    7.2735 C   0  0  0  0  0  0  0  0  0  0  0  0
   15.0099   40.2015    9.0367 C   0  0  0  0  0  0  0  0  0  0  0  0
   14.7457   40.7685   10.4332 C   0  0  2  0  0  0  0  0  0  0  0  0
   15.0241   39.7441   11.5403 C   0  0  0  0  0  0  0  0  0  0  0  0
   13.9153   38.6989   11.5970 C   0  0  0  0  0  0  0  0  0  0  0  0
   12.5598   39.3872   11.6393 C   0  0  0  0  0  0  0  0  0  0  0  0
   12.4685   40.3526   10.4621 C   0  0  0  0  0  0  0  0  0  0  0  0
   15.6036   42.9613    6.8606 C   0  0  0  0  0  0  0  0  0  0  0  0
   12.9081   45.0361    3.7544 C   0  0  0  0  0  0  0  0  0  0  0  0
   13.4522   44.8437    2.3391 C   0  0  0  0  0  0  0  0  0  0  0  0
   12.3198   44.2852    1.5055 C   0  0  0  0  0  0  0  0  0  0  0  0
   11.4337   43.5563    2.4846 C   0  0  0  0  0  0  0  0  0  0  0  0
   11.5496   44.3337    3.7783 C   0  0  0  0  0  0  0  0  0  0  0  0
   12.7090   46.4975    4.0837 C   0  0  0  0  0  0  0  0  0  0  0  0
   12.1851   46.9863    5.2757 C   0  0  0  0  0  0  0  0  0  0  0  0
   12.1224   48.3872    5.3181 C   0  0  0  0  0  0  0  0  0  0  0  0
   12.5939   49.0210    4.1710 C   0  0  0  0  0  0  0  0  0  0  0  0
   13.4796   43.2999    5.5439 N   0  0  0  0  0  0  0  0  0  0  0  0
   14.9746   41.2630    8.0450 N   0  0  0  0  0  0  0  0  0  0  0  0
   15.9836   42.0884    7.8142 N   0  0  0  0  0  0  0  0  0  0  0  0
   13.0890   47.8151    3.1083 S   0  0  0  0  0  0  0  0  0  0  0  0
  3 22  1  0
  5 23  1  0
  6 23  1  0
  7  6  1  6
  7  8  1  0
  7  2  1  0
  8  9  1  0
  9 10  1  0
 10 11  1  0
 11  2  1  0
 12  4  1  0
 13  3  1  0
 13 14  1  0
 13 18  1  0
 14 15  1  0
 15 16  1  0
 16 17  1  0
 17 13  1  0
 18 25  1  0
 19 20  1  0
 21 25  1  0
 22  4  1  0
 23 24  1  0
  3  1  2  0
  4  5  2  0
 12 24  2  0
 18 19  2  0
 20 21  2  0
M  END
>  <rmsd>  (388) 
0.243573248

$$$$
MolPort-016-948-781 ChemDiv-V027-9388 MCULE-5124427316 PubChem-1029328 ZINC000000697005 ZINC00697005
     RDKit          3D

 29 31  0  0  0  0  0  0  0  0999 V2000
   11.3174   44.2142    2.3997 C   0  0  0  0  0  0  0  0  0  0  0  0
   12.9356   44.9689    3.6955 C   0  0  0  0  0  0  0  0  0  0  0  0
   13.8834   44.4052    4.7042 C   0  0  0  0  0  0  0  0  0  0  0  0
   14.2689   42.6773    6.5614 C   0  0  0  0  0  0  0  0  0  0  0  0
   15.5694   43.1020    6.8672 C   0  0  0  0  0  0  0  0  0  0  0  0
   16.3064   42.4597    7.8655 C   0  0  0  0  0  0  0  0  0  0  0  0
   15.7528   41.3886    8.5805 C   0  0  0  0  0  0  0  0  0  0  0  0
   14.4561   40.9590    8.2624 C   0  0  0  0  0  0  0  0  0  0  0  0
   13.7192   41.6020    7.2650 C   0  0  0  0  0  0  0  0  0  0  0  0
   18.2263   39.9312   10.6099 C   0  0  0  0  0  0  0  0  0  0  0  0
   19.9302   38.7859   11.9752 C   0  0  0  0  0  0  0  0  0  0  0  0
   20.2920   37.4145   11.4134 C   0  0  0  0  0  0  0  0  0  0  0  0
   21.4396   37.5182   10.4272 C   0  0  0  0  0  0  0  0  0  0  0  0
   19.0955   36.7523   10.7571 C   0  0  0  0  0  0  0  0  0  0  0  0
   16.1303   39.9073   10.5910 C   0  0  0  0  0  0  0  0  0  0  0  0
   14.7332   39.6445   10.9822 C   0  0  0  0  0  0  0  0  0  0  0  0
   13.8602   40.6778   11.3878 C   0  0  0  0  0  0  0  0  0  0  0  0
   14.3060   42.0995   11.4682 C   0  0  0  0  0  0  0  0  0  0  0  0
   12.5483   40.3703   11.7625 C   0  0  0  0  0  0  0  0  0  0  0  0
   12.1019   39.0468   11.7496 C   0  0  0  0  0  0  0  0  0  0  0  0
   12.9694   38.0209   11.3696 C   0  0  0  0  0  0  0  0  0  0  0  0
   14.2812   38.3189   10.9925 C   0  0  0  0  0  0  0  0  0  0  0  0
   11.7076   44.3060    3.7350 O   0  0  0  0  0  0  0  0  0  0  0  0
   15.0375   44.9007    4.7926 O   0  0  0  0  0  0  0  0  0  0  0  0
   19.5601   39.6928   10.9416 O   0  0  0  0  0  0  0  0  0  0  0  0
   13.4819   43.3124    5.5445 N   0  0  0  0  0  0  0  0  0  0  0  0
   16.5373   40.7166    9.5837 N   0  0  0  0  0  0  0  0  0  0  0  0
   17.8591   40.7365    9.5974 N   0  0  0  0  0  0  0  0  0  0  0  0
   17.1767   39.3852   11.2617 N   0  0  0  0  0  0  0  0  0  0  0  0
  1 23  1  0
  2 23  1  0
  2  3  1  0
  3 26  1  0
  5  6  2  0
  7  8  2  0
  7 27  1  0
  9  4  2  0
 10 25  1  0
 10 29  1  0
 11 25  1  0
 11 12  1  0
 12 13  1  0
 12 14  1  0
 15 16  1  0
 15 27  1  0
 17 19  2  0
 18 17  1  0
 20 21  2  0
 22 16  2  0
 26  4  1  0
 27 28  1  0
  3 24  2  0
  4  5  1  0
  6  7  1  0
  8  9  1  0
 10 28  2  0
 15 29  2  0
 16 17  1  0
 19 20  1  0
 21 22  1  0
M  END
>  <rmsd>  (389) 
0.24351643

$$$$
MolPort-019-839-885 41070600 CSSS03437762688 MCULE-8219256078 PubChem-52095553 ZINC000041070600 ZINC41070600
     RDKit          3D

 29 31  0  0  0  0  0  0  0  0999 V2000
   15.5414   46.8192    1.4255 C   0  0  0  0  0  0  0  0  0  0  0  0
   13.8186   45.2226    2.2204 C   0  0  0  0  0  0  0  0  0  0  0  0
   13.3297   44.3712    3.2409 C   0  0  0  0  0  0  0  0  0  0  0  0
   12.1452   43.6515    3.0180 C   0  0  0  0  0  0  0  0  0  0  0  0
   11.4499   43.7675    1.8136 C   0  0  0  0  0  0  0  0  0  0  0  0
   11.9308   44.6073    0.8106 C   0  0  0  0  0  0  0  0  0  0  0  0
   13.1071   45.3296    1.0126 C   0  0  0  0  0  0  0  0  0  0  0  0
   14.0231   44.2045    4.5406 C   0  0  0  0  0  0  0  0  0  0  0  0
   14.1669   42.8508    6.6905 C   0  0  0  0  0  0  0  0  0  0  0  0
   13.5716   42.5580    7.8931 C   0  0  0  0  0  0  0  0  0  0  0  0
   14.5909   42.0466    8.6755 C   0  0  0  0  0  0  0  0  0  0  0  0
   16.4336   42.4874    5.6681 C   0  0  0  0  0  0  0  0  0  0  0  0
   14.4792   41.5734   10.0607 C   0  0  0  0  0  0  0  0  0  0  0  0
   15.6485   40.3433   11.9641 C   0  0  0  0  0  0  0  0  0  0  0  0
   14.6505   39.4002   12.2854 C   0  0  0  0  0  0  0  0  0  0  0  0
   14.7176   38.6976   13.4928 C   0  0  0  0  0  0  0  0  0  0  0  0
   15.7742   38.9194   14.3789 C   0  0  0  0  0  0  0  0  0  0  0  0
   16.7806   39.8300   14.0505 C   0  0  0  0  0  0  0  0  0  0  0  0
   16.7194   40.5334   12.8448 C   0  0  0  0  0  0  0  0  0  0  0  0
   15.0001   45.9500    2.4112 O   0  0  0  0  0  0  0  0  0  0  0  0
   15.0620   44.8684    4.8035 O   0  0  0  0  0  0  0  0  0  0  0  0
   13.3766   41.6538   10.6663 O   0  0  0  0  0  0  0  0  0  0  0  0
   13.4751   43.3214    5.5273 N   0  0  0  0  0  0  0  0  0  0  0  0
   15.7342   42.0106    7.9571 N   0  0  0  0  0  0  0  0  0  0  0  0
   15.4690   42.4998    6.7548 N   0  0  0  0  0  0  0  0  0  0  0  0
   15.6423   41.0738   10.7309 N   0  0  0  0  0  0  0  0  0  0  0  0
   12.2671   42.7191    8.2260 F   0  0  0  0  0  0  0  0  0  0  0  0
   13.6509   39.1092   11.4174 F   0  0  0  0  0  0  0  0  0  0  0  0
   15.8325   38.2377   15.5479 F   0  0  0  0  0  0  0  0  0  0  0  0
  1 20  1  0
  2 20  1  0
  3  4  2  0
  3  8  1  0
  5  6  2  0
  7  2  2  0
  8 23  1  0
 10 27  1  0
 10 11  1  0
 11 13  1  0
 12 25  1  0
 13 26  1  0
 15 28  1  0
 15 16  2  0
 17 29  1  0
 17 18  2  0
 19 14  2  0
 23  9  1  0
 25 24  1  0
 25  9  1  0
 26 14  1  0
  2  3  1  0
  4  5  1  0
  6  7  1  0
  8 21  2  0
  9 10  2  0
 11 24  2  0
 13 22  2  0
 14 15  1  0
 16 17  1  0
 18 19  1  0
M  END
>  <rmsd>  (390) 
0.243512988

$$$$
Molport-052-050-200 MCULE-5841702432 PubChem-110093686
     RDKit          3D

 31 35  0  0  0  0  0  0  0  0999 V2000
   12.8938   39.3886   11.4989 C   0  0  0  0  0  0  0  0  0  0  0  0
   13.5960   40.4832   10.6989 C   0  0  0  0  0  0  0  0  0  0  0  0
   13.7252   40.0678    9.2318 C   0  0  2  0  0  0  0  0  0  0  0  0
   14.4756   38.7411    9.1123 C   0  0  0  0  0  0  0  0  0  0  0  0
   13.6655   38.0777   11.3788 C   0  0  0  0  0  0  0  0  0  0  0  0
   13.2376   36.5487    9.4317 C   0  0  0  0  0  0  0  0  0  0  0  0
   13.6465   35.9686    8.1304 C   0  0  0  0  0  0  0  0  0  0  0  0
   14.8875   36.2779    7.5507 C   0  0  0  0  0  0  0  0  0  0  0  0
   15.2649   35.6971    6.3379 C   0  0  0  0  0  0  0  0  0  0  0  0
   14.3982   34.8122    5.6837 C   0  0  0  0  0  0  0  0  0  0  0  0
   13.1740   34.4752    6.2639 C   0  0  0  0  0  0  0  0  0  0  0  0
   12.8033   35.0494    7.4843 C   0  0  0  0  0  0  0  0  0  0  0  0
   15.8792   34.8229    3.7222 C   0  0  0  0  0  0  0  0  0  0  0  0
   17.0124   35.2011    4.6792 C   0  0  0  0  0  0  0  0  0  0  0  0
   14.3926   41.1360    8.4258 C   0  0  0  0  0  0  0  0  0  0  0  0
   14.2532   42.7055    6.6378 C   0  0  0  0  0  0  0  0  0  0  0  0
   15.5656   43.1263    6.8908 C   0  0  0  0  0  0  0  0  0  0  0  0
   16.2915   42.5376    7.9263 C   0  0  0  0  0  0  0  0  0  0  0  0
   15.7068   41.5366    8.7012 C   0  0  0  0  0  0  0  0  0  0  0  0
   13.8397   44.3296    4.6862 C   0  0  0  0  0  0  0  0  0  0  0  0
   15.4112   45.9236    3.9010 C   0  0  0  0  0  0  0  0  0  0  0  0
   14.5012   46.3442    2.9305 C   0  0  0  0  0  0  0  0  0  0  0  0
   12.9317   44.7527    3.7131 C   0  0  0  0  0  0  0  0  0  0  0  0
   13.8415   37.7410    9.9681 N   0  0  0  0  0  0  0  0  0  0  0  0
   13.7072   41.7261    7.4092 N   0  0  0  0  0  0  0  0  0  0  0  0
   13.4637   43.2775    5.5854 N   0  0  0  0  0  0  0  0  0  0  0  0
   15.0611   44.9269    4.7560 N   0  0  0  0  0  0  0  0  0  0  0  0
   13.2813   45.7496    2.8576 N   0  0  0  0  0  0  0  0  0  0  0  0
   12.3310   35.9709   10.0925 O   0  0  0  0  0  0  0  0  0  0  0  0
   14.7790   34.2744    4.4513 O   0  0  0  0  0  0  0  0  0  0  0  0
   16.5056   35.9851    5.7622 O   0  0  0  0  0  0  0  0  0  0  0  0
  1  2  1  0
  2  3  1  0
  3  4  1  0
  3 15  1  6
  4 24  1  0
  5 24  1  0
  5  1  1  0
  6  7  1  0
  8  9  2  0
  9 31  1  0
 10 11  2  0
 10 30  1  0
 12  7  2  0
 13 30  1  0
 13 14  1  0
 14 31  1  0
 16 25  2  0
 16 26  1  0
 17 18  2  0
 19 15  2  0
 21 27  2  0
 22 28  2  0
 23 20  2  0
 24  6  1  0
 26 20  1  0
  6 29  2  0
  7  8  1  0
  9 10  1  0
 11 12  1  0
 15 25  1  0
 16 17  1  0
 18 19  1  0
 20 27  1  0
 21 22  1  0
 23 28  1  0
M  END
>  <rmsd>  (391) 
0.243466005

$$$$
MolPort-019-932-358 35425025 CSSS00159291589 MCULE-9394894356 PubChem-45783427 ZINC000035425025
     RDKit          3D

 32 35  0  0  0  0  0  0  0  0999 V2000
    9.7313   39.0714   16.3121 C   0  0  0  0  0  0  0  0  0  0  0  0
    9.5763   40.7818   14.9276 C   0  0  0  0  0  0  0  0  0  0  0  0
    9.4462   41.2076   13.4778 C   0  0  0  0  0  0  0  0  0  0  0  0
   10.0615   39.6940   11.6286 C   0  0  0  0  0  0  0  0  0  0  0  0
   11.0551   39.0257   10.8812 C   0  0  0  0  0  0  0  0  0  0  0  0
   10.6522   38.1968    9.8267 C   0  0  0  0  0  0  0  0  0  0  0  0
    9.3007   38.0370    9.5264 C   0  0  0  0  0  0  0  0  0  0  0  0
    8.3513   38.7129   10.2901 C   0  0  0  0  0  0  0  0  0  0  0  0
   12.4997   39.1684   11.1659 C   0  0  0  0  0  0  0  0  0  0  0  0
   14.5762   38.9751   11.0727 C   0  0  0  0  0  0  0  0  0  0  0  0
   15.9646   38.5983   10.6424 C   0  0  2  0  0  0  0  0  0  0  0  0
   16.9524   38.5258   11.7805 C   0  0  0  0  0  0  0  0  0  0  0  0
   18.2861   38.7010   11.0984 C   0  0  0  0  0  0  0  0  0  0  0  0
   17.9768   39.2542    9.7123 C   0  0  0  0  0  0  0  0  0  0  0  0
   16.3002   40.8721    9.8661 C   0  0  0  0  0  0  0  0  0  0  0  0
   15.5709   41.5024    8.7283 C   0  0  0  0  0  0  0  0  0  0  0  0
   16.1891   42.5102    7.9833 C   0  0  0  0  0  0  0  0  0  0  0  0
   15.5070   43.1156    6.9236 C   0  0  0  0  0  0  0  0  0  0  0  0
   14.1991   42.7201    6.6029 C   0  0  0  0  0  0  0  0  0  0  0  0
   13.9180   44.3704    4.6622 C   0  0  0  0  0  0  0  0  0  0  0  0
   13.0228   44.8571    3.5808 C   0  0  0  0  0  0  0  0  0  0  0  0
   13.5846   41.7138    7.3560 C   0  0  0  0  0  0  0  0  0  0  0  0
   14.2652   41.1081    8.4156 C   0  0  0  0  0  0  0  0  0  0  0  0
    9.2462   39.4325   15.0559 O   0  0  0  0  0  0  0  0  0  0  0  0
   10.4161   40.5322   12.6893 O   0  0  0  0  0  0  0  0  0  0  0  0
   14.2972   39.8078   12.0447 O   0  0  0  0  0  0  0  0  0  0  0  0
   15.0564   44.8901    4.8022 O   0  0  0  0  0  0  0  0  0  0  0  0
    8.7466   39.5167   11.3116 N   0  0  0  0  0  0  0  0  0  0  0  0
   13.0112   39.9529   12.1366 N   0  0  0  0  0  0  0  0  0  0  0  0
   13.4616   38.5297   10.4643 N   0  0  0  0  0  0  0  0  0  0  0  0
   16.5356   39.4525    9.5935 N   0  0  0  0  0  0  0  0  0  0  0  0
   13.4674   43.3178    5.5243 N   0  0  0  0  0  0  0  0  0  0  0  0
  1 24  1  0
  2 24  1  0
  2  3  1  0
  3 25  1  0
  4 25  1  0
  4 28  2  0
  5  6  2  0
  5  9  1  0
  7  8  2  0
  9 30  1  0
 10 26  1  0
 11 10  1  1
 11 12  1  0
 11 31  1  0
 12 13  1  0
 13 14  1  0
 14 31  1  0
 15 31  1  0
 15 16  1  0
 17 18  2  0
 19 32  1  0
 19 22  2  0
 21 20  1  0
 23 16  2  0
 29 26  1  0
 32 20  1  0
  4  5  1  0
  6  7  1  0
  8 28  1  0
  9 29  2  0
 10 30  2  0
 16 17  1  0
 18 19  1  0
 20 27  2  0
 22 23  1  0
M  END
>  <rmsd>  (392) 
0.243446723

$$$$
MolPort-007-710-788 ChemDiv-D481-2654 MCULE-8647870878 PubChem-46269941 ZINC000033019576 ZINC33019576
     RDKit          3D

 29 31  0  0  0  0  0  0  0  0999 V2000
   20.8778   33.3559   11.8038 C   0  0  0  0  0  0  0  0  0  0  0  0
   21.2343   34.6227   11.0507 C   0  0  0  0  0  0  0  0  0  0  0  0
   21.1262   35.8280   11.9697 C   0  0  0  0  0  0  0  0  0  0  0  0
   18.8293   36.6539   11.2928 C   0  0  0  0  0  0  0  0  0  0  0  0
   17.4065   36.8923   11.6596 C   0  0  0  0  0  0  0  0  0  0  0  0
   17.2083   39.4717   11.2132 C   0  0  0  0  0  0  0  0  0  0  0  0
   16.5531   40.7090    9.6249 C   0  0  0  0  0  0  0  0  0  0  0  0
   14.7309   39.6084   10.9779 C   0  0  0  0  0  0  0  0  0  0  0  0
   13.8539   40.6644   11.2641 C   0  0  0  0  0  0  0  0  0  0  0  0
   12.5377   40.4010   11.6541 C   0  0  0  0  0  0  0  0  0  0  0  0
   12.0926   39.0811   11.7654 C   0  0  0  0  0  0  0  0  0  0  0  0
   12.9633   38.0236   11.4870 C   0  0  0  0  0  0  0  0  0  0  0  0
   14.2792   38.2864   11.0956 C   0  0  0  0  0  0  0  0  0  0  0  0
   15.7474   41.3909    8.5887 C   0  0  0  0  0  0  0  0  0  0  0  0
   16.2899   42.4832    7.8989 C   0  0  0  0  0  0  0  0  0  0  0  0
   15.5564   43.1226    6.8957 C   0  0  0  0  0  0  0  0  0  0  0  0
   14.2713   42.6721    6.5603 C   0  0  0  0  0  0  0  0  0  0  0  0
   13.8802   44.4103    4.7179 C   0  0  0  0  0  0  0  0  0  0  0  0
   12.9087   44.9785    3.7478 C   0  0  0  0  0  0  0  0  0  0  0  0
   13.7357   41.5723    7.2364 C   0  0  0  0  0  0  0  0  0  0  0  0
   14.4697   40.9332    8.2390 C   0  0  0  0  0  0  0  0  0  0  0  0
   19.7321   36.1260   12.2672 N   0  0  0  0  0  0  0  0  0  0  0  0
   18.3072   40.0290   10.6740 N   0  0  0  0  0  0  0  0  0  0  0  0
   17.8982   40.7997    9.6775 N   0  0  0  0  0  0  0  0  0  0  0  0
   16.0853   39.8773   10.5858 N   0  0  0  0  0  0  0  0  0  0  0  0
   13.4830   43.3110    5.5471 N   0  0  0  0  0  0  0  0  0  0  0  0
   19.2328   36.9458   10.1350 O   0  0  0  0  0  0  0  0  0  0  0  0
   15.0373   44.9016    4.7917 O   0  0  0  0  0  0  0  0  0  0  0  0
   17.2569   38.4064   12.6561 S   0  0  0  0  0  0  0  0  0  0  0  0
  1  2  1  0
  2  3  1  0
  3 22  1  0
  5  4  1  0
  5 29  1  0
  6 29  1  0
  7 25  1  0
  7 14  1  0
  9 10  2  0
 11 12  2  0
 13  8  2  0
 15 16  2  0
 17 26  1  0
 17 20  2  0
 19 18  1  0
 21 14  2  0
 22  4  1  0
 23 24  1  0
 25  8  1  0
 25  6  1  0
 26 18  1  0
  4 27  2  0
  6 23  2  0
  7 24  2  0
  8  9  1  0
 10 11  1  0
 12 13  1  0
 14 15  1  0
 16 17  1  0
 18 28  2  0
 20 21  1  0
M  END
>  <rmsd>  (393) 
0.243418917

$$$$
MolPort-006-579-754 ChemDiv-V018-7053 MCULE-7734573866 PubChem-46040718 ZINC000037544477 ZINC37544477
     RDKit          3D

 30 32  0  0  0  0  0  0  0  0999 V2000
   11.9036   44.2754    1.7326 C   0  0  0  0  0  0  0  0  0  0  0  0
   12.9752   44.7879    3.5910 C   0  0  0  0  0  0  0  0  0  0  0  0
   13.9033   44.3438    4.6655 C   0  0  0  0  0  0  0  0  0  0  0  0
   14.2630   42.7537    6.6439 C   0  0  0  0  0  0  0  0  0  0  0  0
   13.6903   41.7517    7.4336 C   0  0  0  0  0  0  0  0  0  0  0  0
   14.4029   41.1630    8.4918 C   0  0  0  0  0  0  0  0  0  0  0  0
   15.7078   41.6127    8.7548 C   0  0  0  0  0  0  0  0  0  0  0  0
   16.2886   42.6132    7.9725 C   0  0  0  0  0  0  0  0  0  0  0  0
   15.5691   43.1807    6.9196 C   0  0  0  0  0  0  0  0  0  0  0  0
   14.3906   39.8451   10.6256 C   0  0  0  0  0  0  0  0  0  0  0  0
   13.2898   39.5965   11.6430 C   0  0  0  0  0  0  0  0  0  0  0  0
   12.4675   38.3789   11.2319 C   0  0  0  0  0  0  0  0  0  0  0  0
   11.0069   37.5182    9.3986 C   0  0  0  0  0  0  0  0  0  0  0  0
   11.5724   36.4000    8.5876 C   0  0  0  0  0  0  0  0  0  0  0  0
   11.3887   36.3811    7.2014 C   0  0  0  0  0  0  0  0  0  0  0  0
   11.9359   35.3486    6.4265 C   0  0  0  0  0  0  0  0  0  0  0  0
   12.6422   34.3160    7.0603 C   0  0  0  0  0  0  0  0  0  0  0  0
   12.8260   34.3326    8.4458 C   0  0  0  0  0  0  0  0  0  0  0  0
   12.2944   35.3755    9.2087 C   0  0  0  0  0  0  0  0  0  0  0  0
   11.6957   35.3029    4.9456 C   0  0  0  0  0  0  0  0  0  0  0  0
   12.6898   39.3284    8.8904 C   0  0  0  0  0  0  0  0  0  0  0  0
   12.7089   43.7251    2.7284 O   0  0  0  0  0  0  0  0  0  0  0  0
   15.0328   44.8907    4.7673 O   0  0  0  0  0  0  0  0  0  0  0  0
   12.2709   39.3878    7.7019 O   0  0  0  0  0  0  0  0  0  0  0  0
   13.4921   43.3109    5.5709 N   0  0  0  0  0  0  0  0  0  0  0  0
   13.8038   40.1402    9.3192 N   0  0  0  0  0  0  0  0  0  0  0  0
   12.0618   38.4302    9.8260 N   0  0  0  0  0  0  0  0  0  0  0  0
   10.5552   34.5649    4.6908 F   0  0  0  0  0  0  0  0  0  0  0  0
   12.7696   34.7125    4.3021 F   0  0  0  0  0  0  0  0  0  0  0  0
   11.5286   36.5816    4.4425 F   0  0  0  0  0  0  0  0  0  0  0  0
  1 22  1  0
  2 22  1  0
  2  3  1  0
  3 25  1  0
  5  6  2  0
  6 26  1  0
  7  8  2  0
  9  4  2  0
 10 26  1  0
 10 11  1  0
 11 12  1  0
 12 27  1  0
 13 27  1  0
 13 14  1  0
 15 16  2  0
 17 18  2  0
 19 14  2  0
 20 16  1  0
 20 28  1  0
 20 29  1  0
 20 30  1  0
 21 26  1  0
 25  4  1  0
 27 21  1  0
  3 23  2  0
  4  5  1  0
  6  7  1  0
  8  9  1  0
 14 15  1  0
 16 17  1  0
 18 19  1  0
 21 24  2  0
M  END
>  <rmsd>  (394) 
0.243412167

$$$$
MolPort-008-385-367 16622831 CHEMBL4952988 CSSS00160349970 MCULE-4295273166 PubChem-27241852 ZINC000016622831 ZINC16622831
     RDKit          3D

 19 20  0  0  0  0  0  0  0  0999 V2000
   12.9001   44.9068    3.7202 C   0  0  0  0  0  0  0  0  0  0  0  0
   13.8778   44.3850    4.7099 C   0  0  0  0  0  0  0  0  0  0  0  0
   14.3424   42.7145    6.5629 C   0  0  0  0  0  0  0  0  0  0  0  0
   16.1792   42.3639    7.7983 C   0  0  0  0  0  0  0  0  0  0  0  0
   17.5842   42.5948    8.2337 C   0  0  0  0  0  0  0  0  0  0  0  0
   15.3474   41.3902    8.3471 C   0  0  0  0  0  0  0  0  0  0  0  0
   14.7244   38.5302   11.2569 C   0  0  0  0  0  0  0  0  0  0  0  0
   13.5524   38.0428   12.1267 C   0  0  0  0  0  0  0  0  0  0  0  0
   12.2093   38.5611   11.6167 C   0  0  0  0  0  0  0  0  0  0  0  0
   12.2296   40.0851   11.4701 C   0  0  0  0  0  0  0  0  0  0  0  0
   13.5841   40.6031   10.9718 C   0  0  0  0  0  0  0  0  0  0  0  0
   15.0258   44.8986    4.7765 O   0  0  0  0  0  0  0  0  0  0  0  0
   16.6255   39.1641    9.0292 O   0  0  0  0  0  0  0  0  0  0  0  0
   16.5247   40.9566   10.7045 O   0  0  0  0  0  0  0  0  0  0  0  0
   13.4984   43.3071    5.5712 N   0  0  0  0  0  0  0  0  0  0  0  0
   15.6150   43.1014    6.8058 N   0  0  0  0  0  0  0  0  0  0  0  0
   14.3200   39.5463   10.2771 N   0  0  0  0  0  0  0  0  0  0  0  0
   13.8626   41.4467    7.5567 S   0  0  0  0  0  0  0  0  0  0  0  0
   15.7646   40.2471    9.6172 S   0  0  0  0  0  0  0  0  0  0  0  0
  1  2  1  0
  2 15  1  0
  3 18  1  0
  4 16  1  0
  5  4  1  0
  6 18  1  0
  7 17  1  0
  7  8  1  0
  8  9  1  0
  9 10  1  0
 10 11  1  0
 11 17  1  0
 15  3  1  0
 19  6  1  0
 19 17  1  0
  2 12  2  0
  3 16  2  0
  4  6  2  0
 19 13  2  0
 19 14  2  0
M  END
>  <rmsd>  (395) 
0.243379191

$$$$
MolPort-015-143-990 169794747 LN00192672 MCULE-4035326371 PubChem-160066243 PubChem-53217247 ZINC000169794747
     RDKit          3D

 21 22  0  0  0  0  0  0  0  0999 V2000
   17.5152   42.0106    4.8237 C   0  0  0  0  0  0  0  0  0  0  0  0
   15.6001   42.2975    6.3698 C   0  0  0  0  0  0  0  0  0  0  0  0
   14.2705   42.7234    6.5821 C   0  0  0  0  0  0  0  0  0  0  0  0
   13.9512   44.2894    4.6006 C   0  0  0  0  0  0  0  0  0  0  0  0
   13.1116   44.6296    3.4230 C   0  0  0  0  0  0  0  0  0  0  0  0
   13.6672   42.5073    7.8256 C   0  0  0  0  0  0  0  0  0  0  0  0
   14.3800   41.9190    8.8740 C   0  0  0  0  0  0  0  0  0  0  0  0
   15.7074   41.5325    8.6770 C   0  0  0  0  0  0  0  0  0  0  0  0
   16.3121   41.7157    7.4324 C   0  0  0  0  0  0  0  0  0  0  0  0
   13.2901   39.7499   11.2341 C   0  0  0  0  0  0  0  0  0  0  0  0
   13.7760   38.5418   10.4307 C   0  0  0  0  0  0  0  0  0  0  0  0
   13.1733   39.2838   12.6826 C   0  0  0  0  0  0  0  0  0  0  0  0
   11.9546   40.3926   10.6718 C   0  0  0  0  0  0  0  0  0  0  0  0
   11.4106   39.6882    9.4269 C   0  0  0  0  0  0  0  0  0  0  0  0
   10.8163   40.4082   11.6881 C   0  0  0  0  0  0  0  0  0  0  0  0
   16.1855   42.4258    5.1050 O   0  0  0  0  0  0  0  0  0  0  0  0
   15.0397   44.8962    4.7829 O   0  0  0  0  0  0  0  0  0  0  0  0
   14.2810   40.7423   11.1891 O   0  0  0  0  0  0  0  0  0  0  0  0
   12.2425   41.7248   10.3391 O   0  0  0  0  0  0  0  0  0  0  0  0
   13.4834   43.3190    5.5425 N   0  0  0  0  0  0  0  0  0  0  0  0
   13.6936   41.6974   10.2644 B   0  0  0  0  0  0  0  0  0  0  0  0
  1 16  1  0
  2 16  1  0
  3 20  1  0
  3  6  2  0
  5  4  1  0
  7  8  2  0
  7 21  1  0
  9  2  2  0
 10 18  1  0
 10 11  1  0
 10 12  1  0
 10 13  1  0
 13 14  1  0
 13 15  1  0
 13 19  1  0
 20  4  1  0
 21 18  1  0
 21 19  1  0
  2  3  1  0
  4 17  2  0
  6  7  1  0
  8  9  1  0
M  END
>  <rmsd>  (396) 
0.243378088

$$$$
MolPort-020-292-515 MCULE-1986421558 PubChem-110264983
     RDKit          3D

 33 36  0  0  0  0  0  0  0  0999 V2000
   16.7861   46.5362    4.0449 C   0  0  0  0  0  0  0  0  0  0  0  0
   15.4441   45.9114    3.9167 C   0  0  0  0  0  0  0  0  0  0  0  0
   14.5670   46.3406    2.9224 C   0  0  0  0  0  0  0  0  0  0  0  0
   13.3184   45.7283    2.8341 C   0  0  0  0  0  0  0  0  0  0  0  0
   13.8490   44.3309    4.6695 C   0  0  0  0  0  0  0  0  0  0  0  0
   14.2154   42.7218    6.6417 C   0  0  0  0  0  0  0  0  0  0  0  0
   13.6477   41.6987    7.4048 C   0  0  0  0  0  0  0  0  0  0  0  0
   14.3718   41.1369    8.4598 C   0  0  0  0  0  0  0  0  0  0  0  0
   16.2024   42.5835    8.0124 C   0  0  0  0  0  0  0  0  0  0  0  0
   15.5075   43.1664    6.9516 C   0  0  0  0  0  0  0  0  0  0  0  0
   17.5734   43.0493    8.3468 C   0  0  0  0  0  0  0  0  0  0  0  0
   13.7590   40.0436    9.2704 C   0  0  2  0  0  0  0  0  0  0  0  0
   13.6304   40.4643   10.7349 C   0  0  0  0  0  0  0  0  0  0  0  0
   12.9991   39.3422   11.5557 C   0  0  0  0  0  0  0  0  0  0  0  0
   13.8331   38.0701   11.4345 C   0  0  0  0  0  0  0  0  0  0  0  0
   14.5832   38.7622    9.1551 C   0  0  0  0  0  0  0  0  0  0  0  0
   13.4901   36.5219    9.4533 C   0  0  0  0  0  0  0  0  0  0  0  0
   13.2700   35.2976   10.2588 C   0  0  0  0  0  0  0  0  0  0  0  0
   12.4481   34.2750    9.7597 C   0  0  0  0  0  0  0  0  0  0  0  0
   12.2491   33.1015   10.4926 C   0  0  0  0  0  0  0  0  0  0  0  0
   12.8810   32.9333   11.7281 C   0  0  0  0  0  0  0  0  0  0  0  0
   13.7041   33.9436   12.2328 C   0  0  0  0  0  0  0  0  0  0  0  0
   13.9019   35.1162   11.4986 C   0  0  0  0  0  0  0  0  0  0  0  0
   12.6486   31.6960   12.5212 C   0  0  0  0  0  0  0  0  0  0  0  0
   11.4980   30.7068   14.1226 C   0  0  0  0  0  0  0  0  0  0  0  0
   12.3527   46.1574    1.7894 C   0  0  0  0  0  0  0  0  0  0  0  0
   12.9834   44.7396    3.7040 N   0  0  0  0  0  0  0  0  0  0  0  0
   15.0726   44.9194    4.7674 N   0  0  0  0  0  0  0  0  0  0  0  0
   13.4524   43.2828    5.5645 N   0  0  0  0  0  0  0  0  0  0  0  0
   15.6264   41.5893    8.7389 N   0  0  0  0  0  0  0  0  0  0  0  0
   14.0146   37.7349   10.0238 N   0  0  0  0  0  0  0  0  0  0  0  0
   13.2131   36.4944    8.2221 O   0  0  0  0  0  0  0  0  0  0  0  0
   11.5549   31.8778   13.3682 O   0  0  0  0  0  0  0  0  0  0  0  0
  1  2  1  0
  2 28  2  0
  3  4  2  0
  5 27  2  0
  5 29  1  0
  7  8  2  0
  9 30  2  0
 10  6  2  0
 11  9  1  0
 12  8  1  6
 12 13  1  0
 13 14  1  0
 14 15  1  0
 15 31  1  0
 16 31  1  0
 16 12  1  0
 17 18  1  0
 19 20  2  0
 21 22  2  0
 23 18  2  0
 24 21  1  0
 24 33  1  0
 25 33  1  0
 26  4  1  0
 29  6  1  0
 31 17  1  0
  2  3  1  0
  4 27  1  0
  5 28  1  0
  6  7  1  0
  8 30  1  0
  9 10  1  0
 17 32  2  0
 18 19  1  0
 20 21  1  0
 22 23  1  0
M  END
>  <rmsd>  (397) 
0.24337256

$$$$
Molport-047-891-363 MCULE-4209140988 PubChem-160480027 PubChem-67268484
     RDKit          3D

 25 26  0  0  0  0  0  0  0  0999 V2000
   13.7081   41.7060   10.2619 B   0  0  0  0  0  0  0  0  0  0  0  0
   12.2574   41.7389   10.3432 O   0  0  0  0  0  0  0  0  0  0  0  0
   14.2963   40.7504   11.1853 O   0  0  0  0  0  0  0  0  0  0  0  0
   16.1784   42.4177    5.0898 O   0  0  0  0  0  0  0  0  0  0  0  0
   15.0398   44.8938    4.7884 O   0  0  0  0  0  0  0  0  0  0  0  0
   13.1577   44.5829    3.4763 O   0  0  0  0  0  0  0  0  0  0  0  0
   11.9663   40.4082   10.6791 C   0  0  0  0  0  0  0  0  0  0  0  0
   13.3021   39.7617   11.2365 C   0  0  0  0  0  0  0  0  0  0  0  0
   13.1901   39.2985   12.6863 C   0  0  0  0  0  0  0  0  0  0  0  0
   13.7799   38.5504   10.4331 C   0  0  0  0  0  0  0  0  0  0  0  0
   11.4145   39.7038    9.4377 C   0  0  0  0  0  0  0  0  0  0  0  0
   10.8325   40.4292   11.7003 C   0  0  0  0  0  0  0  0  0  0  0  0
   14.3889   41.9231    8.8680 C   0  0  0  0  0  0  0  0  0  0  0  0
   13.6732   42.5121    7.8219 C   0  0  0  0  0  0  0  0  0  0  0  0
   14.2716   42.7239    6.5754 C   0  0  0  0  0  0  0  0  0  0  0  0
   15.5987   42.2931    6.3577 C   0  0  0  0  0  0  0  0  0  0  0  0
   16.3135   41.7107    7.4179 C   0  0  0  0  0  0  0  0  0  0  0  0
   15.7141   41.5317    8.6656 C   0  0  0  0  0  0  0  0  0  0  0  0
   17.5059   41.9991    4.8029 C   0  0  0  0  0  0  0  0  0  0  0  0
   13.9505   44.2874    4.5933 C   0  0  0  0  0  0  0  0  0  0  0  0
   13.5029   45.5315    2.4638 C   0  0  0  0  0  0  0  0  0  0  0  0
   13.6351   46.9244    3.0549 C   0  0  0  0  0  0  0  0  0  0  0  0
   12.4013   45.5547    1.4257 C   0  0  0  0  0  0  0  0  0  0  0  0
   14.8003   45.1378    1.7786 C   0  0  0  0  0  0  0  0  0  0  0  0
   13.4824   43.3202    5.5379 N   0  0  0  0  0  0  0  0  0  0  0  0
  1  2  1  0
  1 13  1  0
  1  3  1  0
  7  2  1  0
  7  8  1  0
  7 11  1  0
  7 12  1  0
  8  3  1  0
  8  9  1  0
  8 10  1  0
 14 15  2  0
 15 25  1  0
 16 17  2  0
 16  4  1  0
 18 13  2  0
 19  4  1  0
 20  6  1  0
 21  6  1  0
 21 22  1  0
 21 23  1  0
 21 24  1  0
 25 20  1  0
 13 14  1  0
 15 16  1  0
 17 18  1  0
 20  5  2  0
M  END
>  <rmsd>  (398) 
0.243324593

$$$$
MolPort-047-071-969 PubChem-132767160
     RDKit          3D

 33 36  0  0  0  0  0  0  0  0999 V2000
   16.8075   46.5287    4.0711 C   0  0  0  0  0  0  0  0  0  0  0  0
   15.4630   45.9135    3.9239 C   0  0  0  0  0  0  0  0  0  0  0  0
   13.8504   44.3294    4.6684 C   0  0  0  0  0  0  0  0  0  0  0  0
   12.9617   44.7470    3.6740 C   0  0  0  0  0  0  0  0  0  0  0  0
   13.3410   45.7645    2.7968 C   0  0  0  0  0  0  0  0  0  0  0  0
   14.5996   46.3545    2.9193 C   0  0  0  0  0  0  0  0  0  0  0  0
   14.2129   42.7201    6.6404 C   0  0  0  0  0  0  0  0  0  0  0  0
   13.6428   41.6992    7.4046 C   0  0  0  0  0  0  0  0  0  0  0  0
   14.3665   41.1351    8.4586 C   0  0  0  0  0  0  0  0  0  0  0  0
   16.2017   42.5747    8.0073 C   0  0  0  0  0  0  0  0  0  0  0  0
   15.5068   43.1604    6.9478 C   0  0  0  0  0  0  0  0  0  0  0  0
   17.5744   43.0360    8.3395 C   0  0  0  0  0  0  0  0  0  0  0  0
   13.7517   40.0438    9.2702 C   0  0  2  0  0  0  0  0  0  0  0  0
   13.6218   40.4670   10.7352 C   0  0  0  0  0  0  0  0  0  0  0  0
   12.9999   39.3433   11.5613 C   0  0  0  0  0  0  0  0  0  0  0  0
   13.8496   38.0827   11.4406 C   0  0  0  0  0  0  0  0  0  0  0  0
   14.5707   38.7579    9.1502 C   0  0  0  0  0  0  0  0  0  0  0  0
   13.7339   36.4189    9.5170 C   0  0  0  0  0  0  0  0  0  0  0  0
   12.8496   35.4548   10.1974 C   0  0  0  0  0  0  0  0  0  0  0  0
   12.0857   35.7591   11.2408 C   0  0  0  0  0  0  0  0  0  0  0  0
   11.2111   34.7787   11.9039 C   0  0  0  0  0  0  0  0  0  0  0  0
   11.0038   33.4389   11.6153 C   0  0  0  0  0  0  0  0  0  0  0  0
   10.3929   35.0232   12.9928 C   0  0  0  0  0  0  0  0  0  0  0  0
   10.2384   36.3224   13.7037 C   0  0  0  0  0  0  0  0  0  0  0  0
    9.6124   31.5855   12.5530 C   0  0  0  0  0  0  0  0  0  0  0  0
   11.6403   32.6424   10.5242 C   0  0  0  0  0  0  0  0  0  0  0  0
   15.0743   44.9206    4.7685 N   0  0  0  0  0  0  0  0  0  0  0  0
   13.4502   43.2834    5.5638 N   0  0  0  0  0  0  0  0  0  0  0  0
   15.6233   41.5828    8.7350 N   0  0  0  0  0  0  0  0  0  0  0  0
   14.0076   37.7371   10.0298 N   0  0  0  0  0  0  0  0  0  0  0  0
   10.1116   32.9491   12.4980 N   0  0  0  0  0  0  0  0  0  0  0  0
    9.7339   33.8995   13.3379 N   0  0  0  0  0  0  0  0  0  0  0  0
   14.2581   36.0597    8.4290 O   0  0  0  0  0  0  0  0  0  0  0  0
  1  2  1  0
  3 27  2  0
  3 28  1  0
  4  5  2  0
  6  2  2  0
  8  9  2  0
 10 29  2  0
 11  7  2  0
 12 10  1  0
 13  9  1  6
 13 14  1  0
 14 15  1  0
 15 16  1  0
 16 30  1  0
 17 30  1  0
 17 13  1  0
 18 19  1  0
 20 21  1  0
 22 31  1  0
 23 21  1  0
 24 23  1  0
 25 31  1  0
 26 22  1  0
 28  7  1  0
 30 18  1  0
 31 32  1  0
  2 27  1  0
  3  4  1  0
  5  6  1  0
  7  8  1  0
  9 29  1  0
 10 11  1  0
 18 33  2  0
 19 20  2  0
 21 22  2  0
 23 32  2  0
M  END
>  <rmsd>  (399) 
0.243306816

$$$$
MolPort-016-966-988 ChemDiv-V028-4748 MCULE-1394186303 PubChem-8090288 ZINC000006833642 ZINC06833642
     RDKit          3D

 26 28  0  0  0  0  0  0  0  0999 V2000
   15.0366   44.8991    4.8108 O   0  0  0  0  0  0  0  0  0  0  0  0
   15.4821   41.0078   12.5410 O   0  0  0  0  0  0  0  0  0  0  0  0
   13.8824   44.4020    4.7311 C   0  0  0  0  0  0  0  0  0  0  0  0
   12.9173   44.9506    3.7369 C   0  0  0  0  0  0  0  0  0  0  0  0
   12.9832   44.1769    2.4642 C   0  0  0  0  0  0  0  0  0  0  0  0
   13.8812   44.5549    1.4593 C   0  0  0  0  0  0  0  0  0  0  0  0
   13.9561   43.8176    0.2736 C   0  0  0  0  0  0  0  0  0  0  0  0
   13.1363   42.6993    0.0926 C   0  0  0  0  0  0  0  0  0  0  0  0
   12.2428   42.3169    1.0979 C   0  0  0  0  0  0  0  0  0  0  0  0
   12.1672   43.0539    2.2837 C   0  0  0  0  0  0  0  0  0  0  0  0
   14.3011   42.6352    6.5308 C   0  0  0  0  0  0  0  0  0  0  0  0
   15.9316   41.7666    8.0548 C   0  0  0  0  0  0  0  0  0  0  0  0
   16.8171   42.4845   10.3865 C   0  0  0  0  0  0  0  0  0  0  0  0
   17.4642   42.1060   11.7097 C   0  0  0  0  0  0  0  0  0  0  0  0
   16.8652   40.8220   12.2633 C   0  0  0  0  0  0  0  0  0  0  0  0
   14.4812   40.2687   11.9039 C   0  0  0  0  0  0  0  0  0  0  0  0
   13.1418   40.5513   12.1923 C   0  0  0  0  0  0  0  0  0  0  0  0
   12.1181   39.8355   11.5640 C   0  0  0  0  0  0  0  0  0  0  0  0
   12.4298   38.8312   10.6432 C   0  0  0  0  0  0  0  0  0  0  0  0
   13.7654   38.5410   10.3514 C   0  0  0  0  0  0  0  0  0  0  0  0
   14.7888   39.2565   10.9793 C   0  0  0  0  0  0  0  0  0  0  0  0
   13.4887   43.2988    5.5553 N   0  0  0  0  0  0  0  0  0  0  0  0
   13.8421   41.6014    7.2683 N   0  0  0  0  0  0  0  0  0  0  0  0
   14.7488   41.1181    8.1157 N   0  0  0  0  0  0  0  0  0  0  0  0
   17.3418   41.3483    9.0678 S   0  0  0  0  0  0  0  0  0  0  0  0
   15.9055   43.0021    6.9123 S   0  0  0  0  0  0  0  0  0  0  0  0
  3 22  1  0
  4  3  1  0
  4  5  1  0
  6  7  2  0
  8  9  2  0
 10  5  2  0
 11 26  1  0
 12 25  1  0
 12 26  1  0
 13 25  1  0
 13 14  1  0
 14 15  1  0
 15  2  1  0
 16  2  1  0
 17 18  2  0
 19 20  2  0
 21 16  2  0
 22 11  1  0
 23 24  1  0
  3  1  2  0
  5  6  1  0
  7  8  1  0
  9 10  1  0
 11 23  2  0
 12 24  2  0
 16 17  1  0
 18 19  1  0
 20 21  1  0
M  END
>  <rmsd>  (400) 
0.243304238

$$$$
MolPort-046-971-536 MCULE-6973823244 PubChem-110111462
     RDKit          3D

 27 30  0  0  0  0  0  0  0  0999 V2000
   16.7980   46.5483    4.1206 C   0  0  0  0  0  0  0  0  0  0  0  0
   15.4865   45.8837    3.9190 C   0  0  0  0  0  0  0  0  0  0  0  0
   13.8722   44.2921    4.6370 C   0  0  0  0  0  0  0  0  0  0  0  0
   13.0333   44.6433    3.5759 C   0  0  0  0  0  0  0  0  0  0  0  0
   13.4369   45.6347    2.6792 C   0  0  0  0  0  0  0  0  0  0  0  0
   14.6692   46.2662    2.8526 C   0  0  0  0  0  0  0  0  0  0  0  0
   14.2319   42.7135    6.6120 C   0  0  0  0  0  0  0  0  0  0  0  0
   16.3312   42.4095    7.6925 C   0  0  0  0  0  0  0  0  0  0  0  0
   15.7555   41.5273    8.6095 C   0  0  0  0  0  0  0  0  0  0  0  0
   14.3835   41.2493    8.5272 C   0  0  0  0  0  0  0  0  0  0  0  0
   13.6250   41.8330    7.5105 C   0  0  0  0  0  0  0  0  0  0  0  0
   13.7232   40.2785    9.4546 C   0  0  2  0  0  0  0  0  0  0  0  0
   14.1845   40.4117   10.9032 C   0  0  0  0  0  0  0  0  0  0  0  0
   13.3775   39.4820   11.8055 C   0  0  0  0  0  0  0  0  0  0  0  0
   12.8833   38.2299   11.0688 C   0  0  0  0  0  0  0  0  0  0  0  0
   13.8671   38.8339    8.9492 C   0  0  0  0  0  0  0  0  0  0  0  0
   13.3156   36.6150    9.4245 C   0  0  0  0  0  0  0  0  0  0  0  0
   13.8551   35.4140   10.1302 C   0  0  0  0  0  0  0  0  0  0  0  0
   13.9295   33.6321   11.2977 C   0  0  0  0  0  0  0  0  0  0  0  0
   15.2066   33.8949   10.8247 C   0  0  0  0  0  0  0  0  0  0  0  0
   16.2461   35.6534    9.3997 C   0  0  0  0  0  0  0  0  0  0  0  0
   15.0731   44.9187    4.7835 N   0  0  0  0  0  0  0  0  0  0  0  0
   13.4465   43.2810    5.5588 N   0  0  0  0  0  0  0  0  0  0  0  0
   15.5658   42.9782    6.7225 N   0  0  0  0  0  0  0  0  0  0  0  0
   13.8310   37.8319   10.0246 N   0  0  0  0  0  0  0  0  0  0  0  0
   13.0828   34.5852   10.8559 N   0  0  0  0  0  0  0  0  0  0  0  0
   15.1385   35.0190   10.0966 N   0  0  0  0  0  0  0  0  0  0  0  0
  1  2  1  0
  3 22  2  0
  3 23  1  0
  4  5  2  0
  6  2  2  0
  8 24  2  0
  9 10  2  0
 11  7  2  0
 12 10  1  6
 12 13  1  0
 13 14  1  0
 14 15  1  0
 15 25  1  0
 16 25  1  0
 16 12  1  0
 17 25  1  0
 17 18  1  0
 19 26  1  0
 20 27  1  0
 21 27  1  0
 23  7  1  0
 27 18  1  0
  2 22  1  0
  3  4  1  0
  5  6  1  0
  7 24  1  0
  8  9  1  0
 10 11  1  0
 18 26  2  0
 19 20  2  0
M  END
>  <rmsd>  (401) 
0.243258908

$$$$
MolPort-045-959-764 952873461 CSSS00159691194 MCULE-7349963438 PubChem-131952780 ZINC000952873461
     RDKit          3D

 30 32  0  0  0  0  0  0  0  0999 V2000
   12.5179   37.3151   11.8979 C   0  0  0  0  0  0  0  0  0  0  0  0
   12.3396   38.7915   11.5975 C   0  0  0  0  0  0  0  0  0  0  0  0
   13.6490   39.5342   11.7936 C   0  0  0  0  0  0  0  0  0  0  0  0
   14.5925   39.2603   10.6345 C   0  0  0  0  0  0  0  0  0  0  0  0
   15.8728   40.0065   10.8219 C   0  0  0  0  0  0  0  0  0  0  0  0
   15.5760   41.6138    8.8160 C   0  0  0  0  0  0  0  0  0  0  0  0
   14.2636   41.2243    8.5110 C   0  0  0  0  0  0  0  0  0  0  0  0
   13.5833   41.7921    7.4315 C   0  0  0  0  0  0  0  0  0  0  0  0
   14.2009   42.7625    6.6396 C   0  0  0  0  0  0  0  0  0  0  0  0
   13.9252   44.3424    4.6408 C   0  0  0  0  0  0  0  0  0  0  0  0
   13.0554   44.7521    3.4995 C   0  0  0  0  0  0  0  0  0  0  0  0
   12.4450   42.7514    2.2183 C   0  0  0  0  0  0  0  0  0  0  0  0
   11.3448   42.4561    3.1857 C   0  0  0  0  0  0  0  0  0  0  0  0
   12.6250   41.8700    1.1526 C   0  0  0  0  0  0  0  0  0  0  0  0
   13.6253   42.1028    0.2156 C   0  0  0  0  0  0  0  0  0  0  0  0
   14.4462   43.2294    0.3459 C   0  0  0  0  0  0  0  0  0  0  0  0
   15.4590   43.4944   -0.5881 C   0  0  0  0  0  0  0  0  0  0  0  0
   16.2684   44.6233   -0.4511 C   0  0  0  0  0  0  0  0  0  0  0  0
   16.0731   45.4974    0.6187 C   0  0  0  0  0  0  0  0  0  0  0  0
   15.0688   45.2442    1.5551 C   0  0  0  0  0  0  0  0  0  0  0  0
   14.2430   44.1106    1.4378 C   0  0  0  0  0  0  0  0  0  0  0  0
   15.5111   43.1586    6.9405 C   0  0  0  0  0  0  0  0  0  0  0  0
   16.1968   42.5932    8.0197 C   0  0  0  0  0  0  0  0  0  0  0  0
   17.5878   43.0484    8.3024 C   0  0  0  0  0  0  0  0  0  0  0  0
   16.6232   39.6926   11.7826 O   0  0  0  0  0  0  0  0  0  0  0  0
   15.0519   44.8865    4.7853 O   0  0  0  0  0  0  0  0  0  0  0  0
   13.7765   41.2956   -0.7407 O   0  0  0  0  0  0  0  0  0  0  0  0
   16.2917   41.0486    9.9283 N   0  0  0  0  0  0  0  0  0  0  0  0
   13.4734   43.3190    5.5367 N   0  0  0  0  0  0  0  0  0  0  0  0
   13.2520   43.8536    2.3562 N   0  0  0  0  0  0  0  0  0  0  0  0
  1  2  1  0
  2  3  1  0
  3  4  1  0
  4  5  1  0
  5 28  1  0
  7  8  2  0
  9 29  1  0
  9 22  2  0
 11 10  1  0
 11 30  1  0
 13 12  1  0
 14 15  1  0
 15 16  1  0
 17 18  2  0
 19 20  2  0
 21 30  1  0
 21 16  2  0
 23  6  2  0
 24 23  1  0
 28  6  1  0
 29 10  1  0
 30 12  1  0
  5 25  2  0
  6  7  1  0
  8  9  1  0
 10 26  2  0
 12 14  2  0
 15 27  2  0
 16 17  1  0
 18 19  1  0
 20 21  1  0
 22 23  1  0
M  END
>  <rmsd>  (402) 
0.243188068

$$$$
MolPort-046-958-364 MCULE-2708019974 PubChem-110093584
     RDKit          3D

 31 35  0  0  0  0  0  0  0  0999 V2000
   17.5649   43.0081    8.3583 C   0  0  0  0  0  0  0  0  0  0  0  0
   16.1913   42.5519    8.0224 C   0  0  0  0  0  0  0  0  0  0  0  0
   15.5006   43.1416    6.9623 C   0  0  0  0  0  0  0  0  0  0  0  0
   14.2060   42.7054    6.6523 C   0  0  0  0  0  0  0  0  0  0  0  0
   13.6305   41.6854    7.4134 C   0  0  0  0  0  0  0  0  0  0  0  0
   14.3504   41.1175    8.4679 C   0  0  0  0  0  0  0  0  0  0  0  0
   13.7306   40.0267    9.2766 C   0  0  2  0  0  0  0  0  0  0  0  0
   13.6014   40.4468   10.7423 C   0  0  0  0  0  0  0  0  0  0  0  0
   12.9726   39.3240   11.5644 C   0  0  0  0  0  0  0  0  0  0  0  0
   13.8144   38.0580   11.4413 C   0  0  0  0  0  0  0  0  0  0  0  0
   14.5454   38.7387    9.1556 C   0  0  0  0  0  0  0  0  0  0  0  0
   13.6406   36.4204    9.5001 C   0  0  0  0  0  0  0  0  0  0  0  0
   12.8782   35.4188   10.2812 C   0  0  0  0  0  0  0  0  0  0  0  0
   11.9045   33.5933   10.9623 C   0  0  0  0  0  0  0  0  0  0  0  0
   12.6196   34.1126    9.9163 C   0  0  0  0  0  0  0  0  0  0  0  0
   13.0949   33.3090    8.7451 C   0  0  0  0  0  0  0  0  0  0  0  0
   12.2618   32.0245    8.6178 C   0  0  0  0  0  0  0  0  0  0  0  0
   12.1090   31.3203    9.9761 C   0  0  0  0  0  0  0  0  0  0  0  0
   11.3534   32.2026   10.9823 C   0  0  0  0  0  0  0  0  0  0  0  0
   13.8769   44.3206    4.6946 C   0  0  0  0  0  0  0  0  0  0  0  0
   15.1969   45.8841    3.7920 C   0  0  0  0  0  0  0  0  0  0  0  0
   14.0996   46.0494    2.9472 C   0  0  0  0  0  0  0  0  0  0  0  0
   16.4319   46.6990    3.6531 C   0  0  0  0  0  0  0  0  0  0  0  0
   15.6082   41.5607    8.7474 N   0  0  0  0  0  0  0  0  0  0  0  0
   13.9759   37.7168   10.0301 N   0  0  0  0  0  0  0  0  0  0  0  0
   12.2920   35.6530   11.4769 N   0  0  0  0  0  0  0  0  0  0  0  0
   11.6928   34.5424   11.8902 N   0  0  0  0  0  0  0  0  0  0  0  0
   13.4503   43.2743    5.5750 N   0  0  0  0  0  0  0  0  0  0  0  0
   15.0769   44.9320    4.7558 N   0  0  0  0  0  0  0  0  0  0  0  0
   13.9978   36.1268    8.3266 O   0  0  0  0  0  0  0  0  0  0  0  0
   12.9378   44.9376    3.4538 S   0  0  0  0  0  0  0  0  0  0  0  0
  1  2  1  0
  2 24  2  0
  3  4  2  0
  4 28  1  0
  5  6  2  0
  7  6  1  6
  7  8  1  0
  8  9  1  0
  9 10  1  0
 10 25  1  0
 11 25  1  0
 11  7  1  0
 12 13  1  0
 15 13  1  0
 16 15  1  0
 16 17  1  0
 17 18  1  0
 18 19  1  0
 19 14  1  0
 20 31  1  0
 21 29  1  0
 22 31  1  0
 23 21  1  0
 25 12  1  0
 27 26  1  0
 27 14  1  0
 28 20  1  0
  2  3  1  0
  4  5  1  0
  6 24  1  0
 12 30  2  0
 13 26  2  0
 14 15  2  0
 20 29  2  0
 21 22  2  0
M  END
>  <rmsd>  (403) 
0.24316448

$$$$
MolPort-029-901-089 96161248 CSSS02125485854 MCULE-8330030179 PubChem-72910357 ZINC000096161248
     RDKit          3D

 24 26  0  0  0  0  0  0  0  0999 V2000
   14.7704   43.8012    0.4838 C   0  0  0  0  0  0  0  0  0  0  0  0
   14.5877   45.5302    1.8503 C   0  0  1  0  0  0  0  0  0  0  0  0
   15.3288   46.8418    1.7478 C   0  0  0  0  0  0  0  0  0  0  0  0
   14.8271   49.0100    2.4616 C   0  0  0  0  0  0  0  0  0  0  0  0
   13.6540   47.1856    3.3403 C   0  0  0  0  0  0  0  0  0  0  0  0
   13.3534   45.8687    2.6477 C   0  0  2  0  0  0  0  0  0  0  0  0
   13.9142   44.3672    4.6540 C   0  0  0  0  0  0  0  0  0  0  0  0
   14.1997   42.7443    6.6185 C   0  0  0  0  0  0  0  0  0  0  0  0
   13.5982   41.7257    7.3657 C   0  0  0  0  0  0  0  0  0  0  0  0
   14.2697   41.1356    8.4416 C   0  0  0  0  0  0  0  0  0  0  0  0
   14.2071   39.4961   10.3057 C   0  0  0  0  0  0  0  0  0  0  0  0
   14.0516   40.3936   11.5242 C   0  0  0  0  0  0  0  0  0  0  0  0
   13.0003   39.7476   12.3985 C   0  0  0  0  0  0  0  0  0  0  0  0
   13.0632   38.2766   12.0678 C   0  0  0  0  0  0  0  0  0  0  0  0
   13.4538   38.2128   10.6075 C   0  0  0  0  0  0  0  0  0  0  0  0
   15.5631   41.5717    8.7696 C   0  0  0  0  0  0  0  0  0  0  0  0
   16.1716   42.5875    8.0289 C   0  0  0  0  0  0  0  0  0  0  0  0
   15.4923   43.1719    6.9573 C   0  0  0  0  0  0  0  0  0  0  0  0
   14.2290   45.0843    0.5776 O   0  0  0  0  0  0  0  0  0  0  0  0
   15.0546   44.8863    4.7948 O   0  0  0  0  0  0  0  0  0  0  0  0
   13.6325   40.1193    9.1616 O   0  0  0  0  0  0  0  0  0  0  0  0
   14.9739   47.6384    2.9141 N   0  0  0  0  0  0  0  0  0  0  0  0
   13.0395   44.8174    3.6129 N   0  0  0  0  0  0  0  0  0  0  0  0
   13.4705   43.3206    5.5265 N   0  0  0  0  0  0  0  0  0  0  0  0
  1 19  1  0
  2 19  1  6
  2  3  1  0
  3 22  1  0
  4 22  1  0
  5 22  1  0
  5  6  1  0
  6 23  1  1
  6  2  1  0
  7 24  1  0
  9 10  2  0
 10 21  1  0
 11 21  1  0
 11 12  1  0
 12 13  1  0
 13 14  1  0
 14 15  1  0
 15 11  1  0
 16 17  2  0
 18  8  2  0
 23  7  1  0
 24  8  1  0
  7 20  2  0
  8  9  1  0
 10 16  1  0
 17 18  1  0
M  END
>  <rmsd>  (404) 
0.243157864

$$$$
Molport-047-071-896 PubChem-132766477
     RDKit          3D

 31 34  0  0  0  0  0  0  0  0999 V2000
   16.7870   46.5364    4.0492 C   0  0  0  0  0  0  0  0  0  0  0  0
   15.4460   45.9097    3.9173 C   0  0  0  0  0  0  0  0  0  0  0  0
   14.5712   46.3378    2.9208 C   0  0  0  0  0  0  0  0  0  0  0  0
   13.3229   45.7249    2.8303 C   0  0  0  0  0  0  0  0  0  0  0  0
   12.3601   46.1515    1.7819 C   0  0  0  0  0  0  0  0  0  0  0  0
   13.8499   44.3297    4.6680 C   0  0  0  0  0  0  0  0  0  0  0  0
   14.2148   42.7205    6.6403 C   0  0  0  0  0  0  0  0  0  0  0  0
   15.5089   43.1610    6.9470 C   0  0  0  0  0  0  0  0  0  0  0  0
   16.2044   42.5753    8.0060 C   0  0  0  0  0  0  0  0  0  0  0  0
   17.5774   43.0366    8.3373 C   0  0  0  0  0  0  0  0  0  0  0  0
   14.3696   41.1355    8.4584 C   0  0  0  0  0  0  0  0  0  0  0  0
   13.6453   41.6995    7.4050 C   0  0  0  0  0  0  0  0  0  0  0  0
   13.7556   40.0440    9.2704 C   0  0  2  0  0  0  0  0  0  0  0  0
   13.6288   40.4658   10.7359 C   0  0  0  0  0  0  0  0  0  0  0  0
   12.9976   39.3453   11.5595 C   0  0  0  0  0  0  0  0  0  0  0  0
   13.8371   38.0769   11.4427 C   0  0  0  0  0  0  0  0  0  0  0  0
   14.5744   38.7586    9.1495 C   0  0  0  0  0  0  0  0  0  0  0  0
   13.6275   36.4569    9.5154 C   0  0  0  0  0  0  0  0  0  0  0  0
   13.0463   35.4396   10.4060 C   0  0  0  0  0  0  0  0  0  0  0  0
   12.6750   34.2423    9.9619 C   0  0  0  0  0  0  0  0  0  0  0  0
   12.0957   33.2305   10.8519 C   0  0  0  0  0  0  0  0  0  0  0  0
   11.8634   33.3632   12.2033 C   0  0  0  0  0  0  0  0  0  0  0  0
   11.2461   31.4156   11.5452 C   0  0  0  0  0  0  0  0  0  0  0  0
   12.9861   44.7373    3.7004 N   0  0  0  0  0  0  0  0  0  0  0  0
   13.4513   43.2836    5.5642 N   0  0  0  0  0  0  0  0  0  0  0  0
   15.6267   41.5833    8.7341 N   0  0  0  0  0  0  0  0  0  0  0  0
   14.0142   37.7392   10.0322 N   0  0  0  0  0  0  0  0  0  0  0  0
   11.3249   32.2083   12.6345 N   0  0  0  0  0  0  0  0  0  0  0  0
   11.7124   32.0148   10.4316 N   0  0  0  0  0  0  0  0  0  0  0  0
   15.0728   44.9193    4.7685 N   0  0  0  0  0  0  0  0  0  0  0  0
   13.7858   36.2005    8.2898 O   0  0  0  0  0  0  0  0  0  0  0  0
  1  2  1  0
  2 30  2  0
  3  4  2  0
  5  4  1  0
  6 24  2  0
  6 25  1  0
  8  9  2  0
 10  9  1  0
 11 26  2  0
 12  7  2  0
 13 11  1  6
 13 14  1  0
 14 15  1  0
 15 16  1  0
 16 27  1  0
 17 27  1  0
 17 13  1  0
 18 19  1  0
 20 21  1  0
 22 28  1  0
 23 29  1  0
 25  7  1  0
 27 18  1  0
 29 21  1  0
  2  3  1  0
  4 24  1  0
  6 30  1  0
  7  8  1  0
  9 26  1  0
 11 12  1  0
 18 31  2  0
 19 20  2  0
 21 22  2  0
 23 28  2  0
M  END
>  <rmsd>  (405) 
0.243149057

$$$$
MolPort-019-814-206 CHEMBL3479987 CSSS00159522515 MCULE-2733536941 PubChem-56713837
     RDKit          3D

 26 29  0  0  0  0  0  0  0  0999 V2000
   12.9817   44.9002    3.6328 C   0  0  0  0  0  0  0  0  0  0  0  0
   13.9046   44.3855    4.6773 C   0  0  0  0  0  0  0  0  0  0  0  0
   14.2274   42.7021    6.5829 C   0  0  0  0  0  0  0  0  0  0  0  0
   15.5321   43.1114    6.8998 C   0  0  0  0  0  0  0  0  0  0  0  0
   16.2371   42.4883    7.9334 C   0  0  0  0  0  0  0  0  0  0  0  0
   15.6447   41.4478    8.6549 C   0  0  0  0  0  0  0  0  0  0  0  0
   16.3845   40.8008    9.7735 C   0  0  0  0  0  0  0  0  0  0  0  0
   17.3374   42.2289   11.4448 C   0  0  0  0  0  0  0  0  0  0  0  0
   18.5357   41.2958   11.7474 C   0  0  0  0  0  0  0  0  0  0  0  0
   18.0746   40.0684   12.4632 C   0  0  0  0  0  0  0  0  0  0  0  0
   16.7708   39.7184   12.5875 C   0  0  0  0  0  0  0  0  0  0  0  0
   17.9594   38.2482   13.5402 C   0  0  0  0  0  0  0  0  0  0  0  0
   15.6569   40.5961   12.1006 C   0  0  2  0  0  0  0  0  0  0  0  0
   14.4230   39.8285   11.7267 C   0  0  0  0  0  0  0  0  0  0  0  0
   13.1671   40.0534   12.2562 C   0  0  0  0  0  0  0  0  0  0  0  0
   12.3380   39.1318   11.6353 C   0  0  0  0  0  0  0  0  0  0  0  0
   13.1596   38.4229   10.7817 C   0  0  0  0  0  0  0  0  0  0  0  0
   12.7175   37.3174    9.8918 C   0  0  0  0  0  0  0  0  0  0  0  0
   14.3424   41.0412    8.3493 C   0  0  0  0  0  0  0  0  0  0  0  0
   13.6386   41.6653    7.3153 C   0  0  0  0  0  0  0  0  0  0  0  0
   15.0493   44.8967    4.7957 O   0  0  0  0  0  0  0  0  0  0  0  0
   14.3926   38.8525   10.8537 O   0  0  0  0  0  0  0  0  0  0  0  0
   13.4731   43.3171    5.5295 N   0  0  0  0  0  0  0  0  0  0  0  0
   16.1150   41.5107   11.0269 N   0  0  0  0  0  0  0  0  0  0  0  0
   16.6686   38.5790   13.2890 N   0  0  0  0  0  0  0  0  0  0  0  0
   18.8507   39.1414   13.0428 N   0  0  0  0  0  0  0  0  0  0  0  0
  1  2  1  0
  2 23  1  0
  4  5  2  0
  6 19  2  0
  7  6  1  0
  7 24  1  0
  8 24  1  0
  8  9  1  0
  9 10  1  0
 11 25  1  0
 12 26  1  0
 13 11  1  0
 13 14  1  6
 13 24  1  0
 14 22  1  0
 15 16  1  0
 17 22  1  0
 18 17  1  0
 20  3  2  0
 23  3  1  0
 26 10  1  0
  2 21  2  0
  3  4  1  0
  5  6  1  0
 10 11  2  0
 12 25  2  0
 14 15  2  0
 16 17  2  0
 19 20  1  0
M  END
>  <rmsd>  (406) 
0.243103668

$$$$
Molport-051-666-686 MCULE-6365975377 PubChem-110095411
     RDKit          3D

 26 29  0  0  0  0  0  0  0  0999 V2000
   17.5599   43.0122    8.3708 C   0  0  0  0  0  0  0  0  0  0  0  0
   16.1863   42.5626    8.0259 C   0  0  0  0  0  0  0  0  0  0  0  0
   15.5058   43.1538    6.9638 C   0  0  0  0  0  0  0  0  0  0  0  0
   14.2139   42.7095    6.6625 C   0  0  0  0  0  0  0  0  0  0  0  0
   14.3365   41.1510    8.4438 C   0  0  0  0  0  0  0  0  0  0  0  0
   13.6904   40.0641    9.2370 C   0  0  2  0  0  0  0  0  0  0  0  0
   13.5445   40.4806   10.6994 C   0  0  0  0  0  0  0  0  0  0  0  0
   12.9652   39.3330   11.5198 C   0  0  0  0  0  0  0  0  0  0  0  0
   13.8215   38.0838   11.3290 C   0  0  0  0  0  0  0  0  0  0  0  0
   14.5032   38.7734    9.1395 C   0  0  0  0  0  0  0  0  0  0  0  0
   14.5871   36.4445    9.7787 C   0  0  0  0  0  0  0  0  0  0  0  0
   16.0926   36.5552   10.1079 C   0  0  0  0  0  0  0  0  0  0  0  0
   16.8791   35.3472    9.5798 C   0  0  0  0  0  0  0  0  0  0  0  0
   15.3289   34.6814    8.1041 C   0  0  0  0  0  0  0  0  0  0  0  0
   14.3117   35.7876    8.4192 C   0  0  0  0  0  0  0  0  0  0  0  0
   13.8750   44.3149    4.6970 C   0  0  0  0  0  0  0  0  0  0  0  0
   15.1868   45.8787    3.7826 C   0  0  0  0  0  0  0  0  0  0  0  0
   14.0865   46.0358    2.9403 C   0  0  0  0  0  0  0  0  0  0  0  0
   16.4185   46.6973    3.6362 C   0  0  0  0  0  0  0  0  0  0  0  0
   13.6604   41.7184    7.4102 N   0  0  0  0  0  0  0  0  0  0  0  0
   15.5941   41.5755    8.7456 N   0  0  0  0  0  0  0  0  0  0  0  0
   13.8519   37.7085    9.9134 N   0  0  0  0  0  0  0  0  0  0  0  0
   13.4546   43.2715    5.5839 N   0  0  0  0  0  0  0  0  0  0  0  0
   15.0731   44.9311    4.7517 N   0  0  0  0  0  0  0  0  0  0  0  0
   16.0211   34.2805    9.2601 O   0  0  0  0  0  0  0  0  0  0  0  0
   12.9303   44.9224    3.4559 S   0  0  0  0  0  0  0  0  0  0  0  0
  1  2  1  0
  2 21  2  0
  3  4  2  0
  4 23  1  0
  5 20  2  0
  6  5  1  6
  6  7  1  0
  7  8  1  0
  8  9  1  0
  9 22  1  0
 10 22  1  0
 10  6  1  0
 11 22  1  0
 11 12  1  0
 12 13  1  0
 13 25  1  0
 14 25  1  0
 14 15  1  0
 15 11  1  0
 16 26  1  0
 17 24  1  0
 18 26  1  0
 19 17  1  0
 23 16  1  0
  2  3  1  0
  4 20  1  0
  5 21  1  0
 16 24  2  0
 17 18  2  0
M  END
>  <rmsd>  (407) 
0.243065029

$$$$
Molport-047-891-987 PubChem-165934009
     RDKit          3D

 21 22  0  0  0  0  0  0  0  0999 V2000
   14.4132   45.6253    1.9397 C   0  0  0  0  0  0  0  0  0  0  0  0
   13.2511   45.9726    2.8542 C   0  0  0  0  0  0  0  0  0  0  0  0
   13.5616   47.2479    3.6187 C   0  0  0  0  0  0  0  0  0  0  0  0
   12.0248   46.2132    1.9996 C   0  0  0  0  0  0  0  0  0  0  0  0
   13.8848   44.3967    4.6987 C   0  0  0  0  0  0  0  0  0  0  0  0
   14.2779   42.6880    6.5500 C   0  0  0  0  0  0  0  0  0  0  0  0
   16.3216   42.5110    7.7458 C   0  0  0  0  0  0  0  0  0  0  0  0
   15.8216   41.4562    8.5135 C   0  0  0  0  0  0  0  0  0  0  0  0
   14.4938   41.0177    8.2908 C   0  0  0  0  0  0  0  0  0  0  0  0
   13.7381   41.6376    7.2922 C   0  0  0  0  0  0  0  0  0  0  0  0
   14.1913   39.6196   10.3437 C   0  0  0  0  0  0  0  0  0  0  0  0
   13.5397   38.2917   10.6856 C   0  0  0  0  0  0  0  0  0  0  0  0
   12.6920   38.5205   11.9226 C   0  0  0  0  0  0  0  0  0  0  0  0
   13.1340   39.8481   12.4939 C   0  0  0  0  0  0  0  0  0  0  0  0
   13.6222   40.6430   11.3074 C   0  0  0  0  0  0  0  0  0  0  0  0
   12.9770   44.8966    3.7551 O   0  0  0  0  0  0  0  0  0  0  0  0
   15.0395   44.8936    4.8042 O   0  0  0  0  0  0  0  0  0  0  0  0
   13.8789   39.9785    9.0042 O   0  0  0  0  0  0  0  0  0  0  0  0
   13.4770   43.3122    5.5400 N   0  0  0  0  0  0  0  0  0  0  0  0
   15.5498   43.1023    6.7972 N   0  0  0  0  0  0  0  0  0  0  0  0
   17.0447   40.6313    9.7356 Br  0  0  0  0  0  0  0  0  0  0  0  0
  1  2  1  0
  2  3  1  0
  2  4  1  0
  2 16  1  0
  5 16  1  0
  5 19  1  0
  7 20  2  0
  8  9  2  0
  8 21  1  0
  9 18  1  0
 10  6  2  0
 11 18  1  0
 11 12  1  0
 12 13  1  0
 13 14  1  0
 14 15  1  0
 15 11  1  0
 19  6  1  0
  5 17  2  0
  6 20  1  0
  7  8  1  0
  9 10  1  0
M  END
>  <rmsd>  (408) 
0.243059784

$$$$
Molport-020-292-441 MCULE-1404467033 PubChem-110264909
     RDKit          3D

 31 34  0  0  0  0  0  0  0  0999 V2000
   11.6126   44.1486    3.5013 C   0  0  0  0  0  0  0  0  0  0  0  0
   12.9632   44.7585    3.6593 C   0  0  0  0  0  0  0  0  0  0  0  0
   13.8477   44.3309    4.6637 C   0  0  0  0  0  0  0  0  0  0  0  0
   15.4710   45.9123    3.9296 C   0  0  0  0  0  0  0  0  0  0  0  0
   14.6170   46.3603    2.9217 C   0  0  0  0  0  0  0  0  0  0  0  0
   13.3570   45.7771    2.7896 C   0  0  0  0  0  0  0  0  0  0  0  0
   14.2152   42.7217    6.6404 C   0  0  0  0  0  0  0  0  0  0  0  0
   13.6458   41.7009    7.4053 C   0  0  0  0  0  0  0  0  0  0  0  0
   14.3698   41.1379    8.4596 C   0  0  0  0  0  0  0  0  0  0  0  0
   16.2041   42.5782    8.0072 C   0  0  0  0  0  0  0  0  0  0  0  0
   15.5087   43.1628    6.9475 C   0  0  0  0  0  0  0  0  0  0  0  0
   17.5767   43.0404    8.3391 C   0  0  0  0  0  0  0  0  0  0  0  0
   13.7557   40.0462    9.2715 C   0  0  2  0  0  0  0  0  0  0  0  0
   13.6328   40.4663   10.7370 C   0  0  0  0  0  0  0  0  0  0  0  0
   12.9999   39.3456   11.5584 C   0  0  0  0  0  0  0  0  0  0  0  0
   13.8303   38.0714   11.4341 C   0  0  0  0  0  0  0  0  0  0  0  0
   14.5757   38.7622    9.1525 C   0  0  0  0  0  0  0  0  0  0  0  0
   13.4874   36.5196    9.4535 C   0  0  0  0  0  0  0  0  0  0  0  0
   13.2598   35.2989   10.2627 C   0  0  0  0  0  0  0  0  0  0  0  0
   13.8749   35.1256   11.5112 C   0  0  0  0  0  0  0  0  0  0  0  0
   13.6726   33.9540   12.2579 C   0  0  0  0  0  0  0  0  0  0  0  0
   12.8540   32.9452   11.7425 C   0  0  0  0  0  0  0  0  0  0  0  0
   12.2452   33.1011   10.4950 C   0  0  0  0  0  0  0  0  0  0  0  0
   12.4503   34.2703    9.7581 C   0  0  0  0  0  0  0  0  0  0  0  0
   15.1147   34.7433   14.1057 C   0  0  0  0  0  0  0  0  0  0  0  0
   15.0728   44.9193    4.7689 N   0  0  0  0  0  0  0  0  0  0  0  0
   13.4516   43.2833    5.5638 N   0  0  0  0  0  0  0  0  0  0  0  0
   15.6265   41.5863    8.7356 N   0  0  0  0  0  0  0  0  0  0  0  0
   14.0070   37.7360   10.0224 N   0  0  0  0  0  0  0  0  0  0  0  0
   13.2229   36.4853    8.2198 O   0  0  0  0  0  0  0  0  0  0  0  0
   14.2712   33.7687   13.5071 O   0  0  0  0  0  0  0  0  0  0  0  0
  1  2  1  0
  3 26  2  0
  3 27  1  0
  4  5  2  0
  6  2  2  0
  8  9  2  0
 10 28  2  0
 11  7  2  0
 12 10  1  0
 13  9  1  6
 13 14  1  0
 14 15  1  0
 15 16  1  0
 16 29  1  0
 17 29  1  0
 17 13  1  0
 18 19  1  0
 20 21  2  0
 21 31  1  0
 22 23  2  0
 24 19  2  0
 25 31  1  0
 27  7  1  0
 29 18  1  0
  2  3  1  0
  4 26  1  0
  5  6  1  0
  7  8  1  0
  9 28  1  0
 10 11  1  0
 18 30  2  0
 19 20  1  0
 21 22  1  0
 23 24  1  0
M  END
>  <rmsd>  (409) 
0.243016437

$$$$
MolPort-020-292-534 MCULE-6667989060 PubChem-110265002
     RDKit          3D

 32 35  0  0  0  0  0  0  0  0999 V2000
   16.7857   46.5377    4.0492 C   0  0  0  0  0  0  0  0  0  0  0  0
   15.4451   45.9106    3.9172 C   0  0  0  0  0  0  0  0  0  0  0  0
   14.5701   46.3382    2.9206 C   0  0  0  0  0  0  0  0  0  0  0  0
   13.3222   45.7248    2.8298 C   0  0  0  0  0  0  0  0  0  0  0  0
   13.8495   44.3298    4.6676 C   0  0  0  0  0  0  0  0  0  0  0  0
   14.2148   42.7207    6.6399 C   0  0  0  0  0  0  0  0  0  0  0  0
   13.6457   41.6995    7.4044 C   0  0  0  0  0  0  0  0  0  0  0  0
   14.3701   41.1358    8.4580 C   0  0  0  0  0  0  0  0  0  0  0  0
   16.2043   42.5763    8.0059 C   0  0  0  0  0  0  0  0  0  0  0  0
   15.5087   43.1616    6.9468 C   0  0  0  0  0  0  0  0  0  0  0  0
   17.5771   43.0382    8.3374 C   0  0  0  0  0  0  0  0  0  0  0  0
   13.7563   40.0440    9.2697 C   0  0  2  0  0  0  0  0  0  0  0  0
   13.6294   40.4653   10.7353 C   0  0  0  0  0  0  0  0  0  0  0  0
   12.9967   39.3451   11.5582 C   0  0  0  0  0  0  0  0  0  0  0  0
   13.8333   38.0748   11.4399 C   0  0  0  0  0  0  0  0  0  0  0  0
   14.5752   38.7589    9.1488 C   0  0  0  0  0  0  0  0  0  0  0  0
   13.6382   36.4539    9.5136 C   0  0  0  0  0  0  0  0  0  0  0  0
   12.9565   35.4418   10.3883 C   0  0  0  0  0  0  0  0  0  0  0  0
   11.4461   35.3583   10.1524 C   0  0  0  0  0  0  0  0  0  0  0  0
   10.9027   34.2288   11.0423 C   0  0  0  0  0  0  0  0  0  0  0  0
    9.4431   34.4602   11.4263 C   0  0  0  0  0  0  0  0  0  0  0  0
    9.2809   35.7487   12.2431 C   0  0  0  0  0  0  0  0  0  0  0  0
   10.3254   36.8208   11.9074 C   0  0  0  0  0  0  0  0  0  0  0  0
   10.7773   36.7154   10.4526 C   0  0  0  0  0  0  0  0  0  0  0  0
   12.3593   46.1510    1.7813 C   0  0  0  0  0  0  0  0  0  0  0  0
   12.9858   44.7370    3.6999 N   0  0  0  0  0  0  0  0  0  0  0  0
   15.0722   44.9199    4.7683 N   0  0  0  0  0  0  0  0  0  0  0  0
   13.4512   43.2835    5.5638 N   0  0  0  0  0  0  0  0  0  0  0  0
   15.6269   41.5839    8.7338 N   0  0  0  0  0  0  0  0  0  0  0  0
   14.0124   37.7397   10.0294 N   0  0  0  0  0  0  0  0  0  0  0  0
   13.8705   36.1642    8.3091 O   0  0  0  0  0  0  0  0  0  0  0  0
   11.1999   35.0249    8.8191 O   0  0  0  0  0  0  0  0  0  0  0  0
  1  2  1  0
  2 27  2  0
  3  4  2  0
  5 26  2  0
  5 28  1  0
  7  8  2  0
  9 29  2  0
 10  6  2  0
 11  9  1  0
 12  8  1  6
 12 13  1  0
 13 14  1  0
 14 15  1  0
 15 30  1  0
 16 30  1  0
 16 12  1  0
 18 17  1  0
 18 19  1  0
 19 20  1  0
 19 32  1  0
 20 21  1  0
 21 22  1  0
 22 23  1  0
 23 24  1  0
 24 19  1  0
 25  4  1  0
 28  6  1  0
 30 17  1  0
  2  3  1  0
  4 26  1  0
  5 27  1  0
  6  7  1  0
  8 29  1  0
  9 10  1  0
 17 31  2  0
M  END
>  <rmsd>  (410) 
0.242987022

$$$$
Molport-020-292-498 MCULE-7940027693 PubChem-110264966
     RDKit          3D

 29 32  0  0  0  0  0  0  0  0999 V2000
   17.5756   43.0336    8.3408 C   0  0  0  0  0  0  0  0  0  0  0  0
   16.2027   42.5730    8.0079 C   0  0  0  0  0  0  0  0  0  0  0  0
   15.5083   43.1594    6.9484 C   0  0  0  0  0  0  0  0  0  0  0  0
   14.2144   42.7197    6.6405 C   0  0  0  0  0  0  0  0  0  0  0  0
   13.6438   41.6986    7.4042 C   0  0  0  0  0  0  0  0  0  0  0  0
   14.3669   41.1338    8.4581 C   0  0  0  0  0  0  0  0  0  0  0  0
   13.7517   40.0422    9.2692 C   0  0  2  0  0  0  0  0  0  0  0  0
   13.6214   40.4647   10.7341 C   0  0  0  0  0  0  0  0  0  0  0  0
   12.9960   39.3417   11.5583 C   0  0  0  0  0  0  0  0  0  0  0  0
   13.8444   38.0799   11.4399 C   0  0  0  0  0  0  0  0  0  0  0  0
   14.5700   38.7562    9.1482 C   0  0  0  0  0  0  0  0  0  0  0  0
   13.7879   36.4026    9.5407 C   0  0  0  0  0  0  0  0  0  0  0  0
   12.8683   35.4612   10.2216 C   0  0  0  0  0  0  0  0  0  0  0  0
   12.8521   34.0665   10.0972 C   0  0  0  0  0  0  0  0  0  0  0  0
   11.0793   34.3106   11.4524 C   0  0  0  0  0  0  0  0  0  0  0  0
    9.9175   33.9024   12.2841 C   0  0  0  0  0  0  0  0  0  0  0  0
   13.8390   33.2887    9.2965 C   0  0  0  0  0  0  0  0  0  0  0  0
   13.8506   44.3297    4.6679 C   0  0  0  0  0  0  0  0  0  0  0  0
   13.3232   45.7246    2.8302 C   0  0  0  0  0  0  0  0  0  0  0  0
   14.5711   46.3380    2.9207 C   0  0  0  0  0  0  0  0  0  0  0  0
   15.4461   45.9104    3.9173 C   0  0  0  0  0  0  0  0  0  0  0  0
   15.6238   41.5809    8.7351 N   0  0  0  0  0  0  0  0  0  0  0  0
   14.0093   37.7363   10.0300 N   0  0  0  0  0  0  0  0  0  0  0  0
   11.8629   33.4370   10.7868 N   0  0  0  0  0  0  0  0  0  0  0  0
   13.4518   43.2834    5.5640 N   0  0  0  0  0  0  0  0  0  0  0  0
   12.9868   44.7369    3.7004 N   0  0  0  0  0  0  0  0  0  0  0  0
   15.0733   44.9197    4.7687 N   0  0  0  0  0  0  0  0  0  0  0  0
   14.3780   36.0281    8.4912 O   0  0  0  0  0  0  0  0  0  0  0  0
   11.5753   35.8958   11.2148 S   0  0  0  0  0  0  0  0  0  0  0  0
  1  2  1  0
  2 22  2  0
  3  4  2  0
  4 25  1  0
  5  6  2  0
  7  6  1  6
  7  8  1  0
  8  9  1  0
  9 10  1  0
 10 23  1  0
 11 23  1  0
 11  7  1  0
 12 13  1  0
 13 29  1  0
 14 24  1  0
 15 29  1  0
 16 15  1  0
 17 14  1  0
 18 27  2  0
 19 26  2  0
 20 21  2  0
 23 12  1  0
 25 18  1  0
  2  3  1  0
  4  5  1  0
  6 22  1  0
 12 28  2  0
 13 14  2  0
 15 24  2  0
 18 26  1  0
 19 20  1  0
 21 27  1  0
M  END
>  <rmsd>  (411) 
0.242985576

$$$$
MolPort-019-918-975 13789330 CSSS03437095136 FBLDHJSKAPTCBK-UHFFFAOYSA-N MCULE-1365347121 PubChem-49698053 ZINC000013789330
     RDKit          3D

 30 33  0  0  0  0  0  0  0  0999 V2000
   16.4568   41.0447    9.7705 N   0  0  0  0  0  0  0  0  0  0  0  0
   13.4781   43.3141    5.5403 N   0  0  0  0  0  0  0  0  0  0  0  0
   10.1460   45.2915    2.9039 N   0  0  0  0  0  0  0  0  0  0  0  0
   16.4795   39.7254   10.3896 C   0  0  0  0  0  0  0  0  0  0  0  0
   15.3705   39.5942   11.4228 C   0  0  0  0  0  0  0  0  0  0  0  0
   14.0230   39.4451   10.7437 C   0  0  0  0  0  0  0  0  0  0  0  0
   12.9371   39.3463   11.7934 C   0  0  0  0  0  0  0  0  0  0  0  0
   15.7026   41.4398    8.6209 C   0  0  0  0  0  0  0  0  0  0  0  0
   15.0352   40.6463    7.6876 C   0  0  0  0  0  0  0  0  0  0  0  0
   14.3098   41.3033    6.6672 C   0  0  0  0  0  0  0  0  0  0  0  0
   14.2567   42.7198    6.5868 C   0  0  0  0  0  0  0  0  0  0  0  0
   14.9114   43.4911    7.5811 C   0  0  0  0  0  0  0  0  0  0  0  0
   14.8556   44.8936    7.7149 C   0  0  0  0  0  0  0  0  0  0  0  0
   15.5147   45.5309    8.7979 C   0  0  0  0  0  0  0  0  0  0  0  0
   16.2220   44.7792    9.7652 C   0  0  0  0  0  0  0  0  0  0  0  0
   16.2572   43.3951    9.6006 C   0  0  0  0  0  0  0  0  0  0  0  0
   15.6230   42.8014    8.5490 C   0  0  0  0  0  0  0  0  0  0  0  0
   16.7877   42.2929   10.4002 C   0  0  0  0  0  0  0  0  0  0  0  0
   13.8532   44.4736    4.7861 C   0  0  0  0  0  0  0  0  0  0  0  0
   12.8488   45.1644    3.9270 C   0  0  0  0  0  0  0  0  0  0  0  0
   11.6829   45.6745    4.7720 C   0  0  0  0  0  0  0  0  0  0  0  0
   10.6238   46.2900    3.8614 C   0  0  0  0  0  0  0  0  0  0  0  0
   11.2557   44.9238    2.0231 C   0  0  0  0  0  0  0  0  0  0  0  0
   12.3515   44.2287    2.8268 C   0  0  0  0  0  0  0  0  0  0  0  0
    8.2988   44.8729    0.7430 C   0  0  0  0  0  0  0  0  0  0  0  0
   17.4017   42.3997   11.4944 O   0  0  0  0  0  0  0  0  0  0  0  0
   15.0416   44.8912    4.7990 O   0  0  0  0  0  0  0  0  0  0  0  0
    9.4966   47.2278    1.1985 O   0  0  0  0  0  0  0  0  0  0  0  0
    7.7906   46.4988    2.8023 O   0  0  0  0  0  0  0  0  0  0  0  0
    8.9246   46.0430    1.9274 S   0  0  0  0  0  0  0  0  0  0  0  0
  1  8  1  0
  2 19  1  0
  4  1  1  0
  4  5  1  0
  5  6  1  0
  6  7  1  0
  9 10  2  0
 11 12  2  0
 11  2  1  0
 13 14  2  0
 15 16  2  0
 16 18  1  0
 17  8  2  0
 17 12  1  0
 18  1  1  0
 20 19  1  0
 20 21  1  0
 21 22  1  0
 22  3  1  0
 23  3  1  0
 23 24  1  0
 24 20  1  0
 30  3  1  0
 30 25  1  0
  8  9  1  0
 10 11  1  0
 12 13  1  0
 14 15  1  0
 16 17  1  0
 18 26  2  0
 19 27  2  0
 30 28  2  0
 30 29  2  0
M  END
>  <rmsd>  (412) 
0.242982194

$$$$
MolPort-046-958-385 MCULE-1235616481 PubChem-110093605
     RDKit          3D

 32 36  0  0  0  0  0  0  0  0999 V2000
   17.5673   43.0066    8.3574 C   0  0  0  0  0  0  0  0  0  0  0  0
   16.1935   42.5509    8.0219 C   0  0  0  0  0  0  0  0  0  0  0  0
   15.5023   43.1411    6.9623 C   0  0  0  0  0  0  0  0  0  0  0  0
   14.2075   42.7052    6.6528 C   0  0  0  0  0  0  0  0  0  0  0  0
   13.6323   41.6848    7.4138 C   0  0  0  0  0  0  0  0  0  0  0  0
   14.3525   41.1165    8.4677 C   0  0  0  0  0  0  0  0  0  0  0  0
   13.7331   40.0252    9.2761 C   0  0  2  0  0  0  0  0  0  0  0  0
   13.6055   40.4442   10.7423 C   0  0  0  0  0  0  0  0  0  0  0  0
   12.9684   39.3240   11.5619 C   0  0  0  0  0  0  0  0  0  0  0  0
   13.8032   38.0527   11.4438 C   0  0  0  0  0  0  0  0  0  0  0  0
   14.5481   38.7377    9.1540 C   0  0  0  0  0  0  0  0  0  0  0  0
   13.5793   36.4446    9.5104 C   0  0  0  0  0  0  0  0  0  0  0  0
   13.0546   35.3739   10.4137 C   0  0  0  0  0  0  0  0  0  0  0  0
   14.1001   34.3295   10.6501 C   0  0  0  0  0  0  0  0  0  0  0  0
   15.0191   34.2788   11.6858 C   0  0  0  0  0  0  0  0  0  0  0  0
   15.3939   32.6385   10.3981 C   0  0  0  0  0  0  0  0  0  0  0  0
   13.7499   32.8975    8.6940 C   0  0  0  0  0  0  0  0  0  0  0  0
   14.2373   31.7501    8.0524 C   0  0  0  0  0  0  0  0  0  0  0  0
   15.3235   31.0511    8.6128 C   0  0  0  0  0  0  0  0  0  0  0  0
   15.9198   31.4935    9.8049 C   0  0  0  0  0  0  0  0  0  0  0  0
   15.1202   35.2406   12.8171 C   0  0  0  0  0  0  0  0  0  0  0  0
   13.8768   44.3210    4.6953 C   0  0  0  0  0  0  0  0  0  0  0  0
   15.2055   45.8875    3.7944 C   0  0  0  0  0  0  0  0  0  0  0  0
   14.1021   46.0462    2.9548 C   0  0  0  0  0  0  0  0  0  0  0  0
   15.6105   41.5595    8.7468 N   0  0  0  0  0  0  0  0  0  0  0  0
   13.9837   37.7182   10.0336 N   0  0  0  0  0  0  0  0  0  0  0  0
   15.8390   33.2106   11.5367 N   0  0  0  0  0  0  0  0  0  0  0  0
   14.3553   33.2890    9.8438 N   0  0  0  0  0  0  0  0  0  0  0  0
   13.4513   43.2744    5.5762 N   0  0  0  0  0  0  0  0  0  0  0  0
   15.0766   44.9326    4.7553 N   0  0  0  0  0  0  0  0  0  0  0  0
   13.6745   36.2097    8.2756 O   0  0  0  0  0  0  0  0  0  0  0  0
   12.9369   44.9368    3.4571 S   0  0  0  0  0  0  0  0  0  0  0  0
  1  2  1  0
  2 25  2  0
  3  4  2  0
  4 29  1  0
  5  6  2  0
  7  6  1  6
  7  8  1  0
  8  9  1  0
  9 10  1  0
 10 26  1  0
 11 26  1  0
 11  7  1  0
 13 12  1  0
 13 14  1  0
 15 27  1  0
 16 28  1  0
 18 19  1  0
 20 16  1  0
 21 15  1  0
 22 32  1  0
 23 30  1  0
 24 32  1  0
 26 12  1  0
 28 17  1  0
 28 14  1  0
 29 22  1  0
  2  3  1  0
  4  5  1  0
  6 25  1  0
 12 31  2  0
 14 15  2  0
 16 27  2  0
 17 18  2  0
 19 20  2  0
 22 30  2  0
 23 24  2  0
M  END
>  <rmsd>  (413) 
0.24290894

$$$$
Molport-020-284-131 MCULE-4152218137 PubChem-110258992
     RDKit          3D

 25 28  0  0  0  0  0  0  0  0999 V2000
   13.0291   39.3664   11.5606 C   0  0  0  0  0  0  0  0  0  0  0  0
   13.6657   40.4869   10.7404 C   0  0  0  0  0  0  0  0  0  0  0  0
   13.8017   40.0648    9.2748 C   0  0  2  0  0  0  0  0  0  0  0  0
   14.6237   38.7806    9.1622 C   0  0  0  0  0  0  0  0  0  0  0  0
   13.8609   38.0918   11.4454 C   0  0  0  0  0  0  0  0  0  0  0  0
   13.6482   36.4861    9.5156 C   0  0  0  0  0  0  0  0  0  0  0  0
   12.7089   34.3399    9.8647 C   0  0  0  0  0  0  0  0  0  0  0  0
   12.8705   34.0361    8.5144 C   0  0  0  0  0  0  0  0  0  0  0  0
   13.4349   35.0011    7.6827 C   0  0  0  0  0  0  0  0  0  0  0  0
   14.4029   41.1598    8.4525 C   0  0  0  0  0  0  0  0  0  0  0  0
   13.6623   41.7087    7.4032 C   0  0  0  0  0  0  0  0  0  0  0  0
   14.2142   42.7316    6.6279 C   0  0  0  0  0  0  0  0  0  0  0  0
   16.2116   42.6662    7.9189 C   0  0  0  0  0  0  0  0  0  0  0  0
   15.6917   41.6435    8.7135 C   0  0  0  0  0  0  0  0  0  0  0  0
   13.8521   44.3313    4.6662 C   0  0  0  0  0  0  0  0  0  0  0  0
   13.3478   45.7361    2.8299 C   0  0  0  0  0  0  0  0  0  0  0  0
   14.5983   46.3423    2.9336 C   0  0  0  0  0  0  0  0  0  0  0  0
   15.4626   45.9059    3.9358 C   0  0  0  0  0  0  0  0  0  0  0  0
   14.0515   37.7605   10.0359 N   0  0  0  0  0  0  0  0  0  0  0  0
   13.0979   35.5517   10.3396 N   0  0  0  0  0  0  0  0  0  0  0  0
   13.8118   36.2019    8.1938 N   0  0  0  0  0  0  0  0  0  0  0  0
   15.4700   43.1837    6.9032 N   0  0  0  0  0  0  0  0  0  0  0  0
   13.4426   43.2848    5.5550 N   0  0  0  0  0  0  0  0  0  0  0  0
   12.9985   44.7467    3.6931 N   0  0  0  0  0  0  0  0  0  0  0  0
   15.0772   44.9139    4.7801 N   0  0  0  0  0  0  0  0  0  0  0  0
  1  2  1  0
  2  3  1  0
  3  4  1  0
  3 10  1  6
  4 19  1  0
  5 19  1  0
  5  1  1  0
  6 21  2  0
  7 20  2  0
  8  9  2  0
 11 12  2  0
 12 23  1  0
 13 22  2  0
 14 10  2  0
 15 25  2  0
 16 24  2  0
 17 18  2  0
 19  6  1  0
 23 15  1  0
  6 20  1  0
  7  8  1  0
  9 21  1  0
 10 11  1  0
 12 22  1  0
 13 14  1  0
 15 24  1  0
 16 17  1  0
 18 25  1  0
M  END
>  <rmsd>  (414) 
0.24289453

$$$$
MolPort-020-292-523 MCULE-5655694091 PubChem-110264991
     RDKit          3D

 32 35  0  0  0  0  0  0  0  0999 V2000
   17.5768   43.0314    8.3381 C   0  0  0  0  0  0  0  0  0  0  0  0
   16.2033   42.5715    8.0070 C   0  0  0  0  0  0  0  0  0  0  0  0
   15.5081   43.1575    6.9478 C   0  0  0  0  0  0  0  0  0  0  0  0
   14.2136   42.7183    6.6416 C   0  0  0  0  0  0  0  0  0  0  0  0
   13.6430   41.6982    7.4066 C   0  0  0  0  0  0  0  0  0  0  0  0
   14.3670   41.1338    8.4602 C   0  0  0  0  0  0  0  0  0  0  0  0
   13.7520   40.0428    9.2722 C   0  0  2  0  0  0  0  0  0  0  0  0
   13.6299   40.4630   10.7381 C   0  0  0  0  0  0  0  0  0  0  0  0
   12.9945   39.3439   11.5603 C   0  0  0  0  0  0  0  0  0  0  0  0
   13.8244   38.0694   11.4389 C   0  0  0  0  0  0  0  0  0  0  0  0
   14.5693   38.7572    9.1510 C   0  0  0  0  0  0  0  0  0  0  0  0
   13.5138   36.4996    9.4817 C   0  0  0  0  0  0  0  0  0  0  0  0
   13.1324   35.3662   10.3579 C   0  0  0  0  0  0  0  0  0  0  0  0
   14.0519   34.8053   11.2643 C   0  0  0  0  0  0  0  0  0  0  0  0
   13.6640   33.7402   12.0704 C   0  0  0  0  0  0  0  0  0  0  0  0
   12.3713   33.2300   11.9779 C   0  0  0  0  0  0  0  0  0  0  0  0
   11.8373   34.8138   10.2790 C   0  0  0  0  0  0  0  0  0  0  0  0
   10.1299   33.2169   10.9901 C   0  0  0  0  0  0  0  0  0  0  0  0
   12.0014   32.0879   12.8676 C   0  0  0  0  0  0  0  0  0  0  0  0
   15.4627   35.2826   11.3601 C   0  0  0  0  0  0  0  0  0  0  0  0
   13.8512   44.3279    4.6701 C   0  0  0  0  0  0  0  0  0  0  0  0
   15.4467   45.9128    3.9152 C   0  0  0  0  0  0  0  0  0  0  0  0
   14.5615   46.3317    2.9211 C   0  0  0  0  0  0  0  0  0  0  0  0
   12.9679   44.7500    3.6740 C   0  0  0  0  0  0  0  0  0  0  0  0
   15.6246   41.5802    8.7354 N   0  0  0  0  0  0  0  0  0  0  0  0
   14.0037   37.7355   10.0273 N   0  0  0  0  0  0  0  0  0  0  0  0
   11.4808   33.7652   11.0857 N   0  0  0  0  0  0  0  0  0  0  0  0
   13.4506   43.2820    5.5654 N   0  0  0  0  0  0  0  0  0  0  0  0
   15.0727   44.9217    4.7665 N   0  0  0  0  0  0  0  0  0  0  0  0
   13.3414   45.7413    2.8222 N   0  0  0  0  0  0  0  0  0  0  0  0
   13.3839   36.3754    8.2334 O   0  0  0  0  0  0  0  0  0  0  0  0
   10.9996   35.2985    9.4667 O   0  0  0  0  0  0  0  0  0  0  0  0
  1  2  1  0
  2 25  2  0
  3  4  2  0
  4 28  1  0
  5  6  2  0
  7  6  1  6
  7  8  1  0
  8  9  1  0
  9 10  1  0
 10 26  1  0
 11 26  1  0
 11  7  1  0
 12 13  1  0
 14 15  1  0
 16 27  1  0
 17 13  1  0
 18 27  1  0
 19 16  1  0
 20 14  1  0
 22 29  2  0
 23 30  2  0
 24 21  2  0
 26 12  1  0
 27 17  1  0
 28 21  1  0
  2  3  1  0
  4  5  1  0
  6 25  1  0
 12 31  2  0
 13 14  2  0
 15 16  2  0
 17 32  2  0
 21 29  1  0
 22 23  1  0
 24 30  1  0
M  END
>  <rmsd>  (415) 
0.242873982

$$$$
MolPort-007-723-659 6818404 CHEMBL1525458 ChemDiv-E157-7188 MCULE-3916121415 PubChem-16017544 ZINC000006818404 ZINC06818404
     RDKit          3D

 26 27  0  0  0  0  0  0  0  0999 V2000
   13.1497   38.5445   11.1543 C   0  0  0  0  0  0  0  0  0  0  0  0
   13.8829   39.6287   11.9239 C   0  0  0  0  0  0  0  0  0  0  0  0
   13.6757   42.0601   11.3520 C   0  0  0  0  0  0  0  0  0  0  0  0
   12.2921   42.2834   11.5402 C   0  0  0  0  0  0  0  0  0  0  0  0
   11.2874   41.1939   11.3891 C   0  0  0  0  0  0  0  0  0  0  0  0
   11.8262   43.5702   11.8288 C   0  0  0  0  0  0  0  0  0  0  0  0
   12.7182   44.6390   11.9330 C   0  0  0  0  0  0  0  0  0  0  0  0
   12.2125   46.0016   12.2428 C   0  0  0  0  0  0  0  0  0  0  0  0
   14.0836   44.4292   11.7381 C   0  0  0  0  0  0  0  0  0  0  0  0
   14.5575   43.1483   11.4483 C   0  0  0  0  0  0  0  0  0  0  0  0
   15.1158   41.5862    8.4843 C   0  0  0  0  0  0  0  0  0  0  0  0
   14.2268   42.7739    6.6144 C   0  0  0  0  0  0  0  0  0  0  0  0
   13.9197   44.3601    4.6571 C   0  0  0  0  0  0  0  0  0  0  0  0
   13.0388   44.8130    3.5428 C   0  0  0  0  0  0  0  0  0  0  0  0
   13.3702   44.0744    2.2557 C   0  0  0  0  0  0  0  0  0  0  0  0
   12.7685   44.8186    1.0822 C   0  0  0  0  0  0  0  0  0  0  0  0
   12.8043   42.6666    2.2928 C   0  0  0  0  0  0  0  0  0  0  0  0
   14.1982   40.7537   11.0502 N   0  0  0  0  0  0  0  0  0  0  0  0
   15.9645   42.5183    7.9994 N   0  0  0  0  0  0  0  0  0  0  0  0
   15.4703   43.1798    6.9546 N   0  0  0  0  0  0  0  0  0  0  0  0
   13.4697   43.3188    5.5299 N   0  0  0  0  0  0  0  0  0  0  0  0
   15.4678   40.5794    9.8738 S   0  0  0  0  0  0  0  0  0  0  0  0
   13.6711   41.5448    7.6192 S   0  0  0  0  0  0  0  0  0  0  0  0
   16.7751   40.9972   10.4863 O   0  0  0  0  0  0  0  0  0  0  0  0
   15.5702   39.1505    9.4188 O   0  0  0  0  0  0  0  0  0  0  0  0
   15.0577   44.8815    4.7999 O   0  0  0  0  0  0  0  0  0  0  0  0
  1  2  1  0
  2 18  1  0
  4  6  2  0
  5  4  1  0
  7  9  2  0
  8  7  1  0
 10  3  2  0
 11 23  1  0
 12 21  1  0
 12 23  1  0
 14 13  1  0
 14 15  1  0
 15 16  1  0
 15 17  1  0
 18  3  1  0
 19 20  1  0
 21 13  1  0
 22 18  1  0
 22 11  1  0
  3  4  1  0
  6  7  1  0
  9 10  1  0
 11 19  2  0
 12 20  2  0
 13 26  2  0
 22 24  2  0
 22 25  2  0
M  END
>  <rmsd>  (416) 
0.242868766

$$$$
MolPort-020-292-519 MCULE-7945916672 PubChem-110264987
     RDKit          3D

 32 35  0  0  0  0  0  0  0  0999 V2000
   16.7861   46.5365    4.0490 C   0  0  0  0  0  0  0  0  0  0  0  0
   15.4454   45.9094    3.9169 C   0  0  0  0  0  0  0  0  0  0  0  0
   14.5709   46.3365    2.9197 C   0  0  0  0  0  0  0  0  0  0  0  0
   13.3229   45.7231    2.8288 C   0  0  0  0  0  0  0  0  0  0  0  0
   13.8495   44.3291    4.6676 C   0  0  0  0  0  0  0  0  0  0  0  0
   14.2140   42.7212    6.6410 C   0  0  0  0  0  0  0  0  0  0  0  0
   13.6447   41.7003    7.4059 C   0  0  0  0  0  0  0  0  0  0  0  0
   14.3687   41.1373    8.4600 C   0  0  0  0  0  0  0  0  0  0  0  0
   16.2032   42.5776    8.0077 C   0  0  0  0  0  0  0  0  0  0  0  0
   15.5078   43.1623    6.9481 C   0  0  0  0  0  0  0  0  0  0  0  0
   17.5758   43.0397    8.3396 C   0  0  0  0  0  0  0  0  0  0  0  0
   13.7546   40.0456    9.2719 C   0  0  2  0  0  0  0  0  0  0  0  0
   13.6314   40.4659   10.7374 C   0  0  0  0  0  0  0  0  0  0  0  0
   12.9984   39.3451   11.5588 C   0  0  0  0  0  0  0  0  0  0  0  0
   13.8289   38.0708   11.4347 C   0  0  0  0  0  0  0  0  0  0  0  0
   14.5748   38.7616    9.1532 C   0  0  0  0  0  0  0  0  0  0  0  0
   13.4861   36.5192    9.4543 C   0  0  0  0  0  0  0  0  0  0  0  0
   13.2562   35.2993   10.2638 C   0  0  0  0  0  0  0  0  0  0  0  0
   12.4514   34.2678    9.7622 C   0  0  0  0  0  0  0  0  0  0  0  0
   12.8293   32.9531   11.7037 C   0  0  0  0  0  0  0  0  0  0  0  0
   13.6483   33.9495   12.2369 C   0  0  0  0  0  0  0  0  0  0  0  0
   13.8626   35.1204   11.5116 C   0  0  0  0  0  0  0  0  0  0  0  0
   11.3965   32.0995    9.9020 C   0  0  0  0  0  0  0  0  0  0  0  0
   12.3605   46.1488    1.7798 C   0  0  0  0  0  0  0  0  0  0  0  0
   12.9861   44.7359    3.6995 N   0  0  0  0  0  0  0  0  0  0  0  0
   15.0722   44.9193    4.7684 N   0  0  0  0  0  0  0  0  0  0  0  0
   13.4509   43.2834    5.5642 N   0  0  0  0  0  0  0  0  0  0  0  0
   15.6254   41.5856    8.7361 N   0  0  0  0  0  0  0  0  0  0  0  0
   14.0059   37.7355   10.0231 N   0  0  0  0  0  0  0  0  0  0  0  0
   12.2482   33.1283   10.4784 N   0  0  0  0  0  0  0  0  0  0  0  0
   13.2230   36.4844    8.2204 O   0  0  0  0  0  0  0  0  0  0  0  0
   12.6365   31.8960   12.3631 O   0  0  0  0  0  0  0  0  0  0  0  0
  1  2  1  0
  2 26  2  0
  3  4  2  0
  5 25  2  0
  5 27  1  0
  7  8  2  0
  9 28  2  0
 10  6  2  0
 11  9  1  0
 12  8  1  6
 12 13  1  0
 13 14  1  0
 14 15  1  0
 15 29  1  0
 16 29  1  0
 16 12  1  0
 17 18  1  0
 19 30  1  0
 20 21  1  0
 22 18  1  0
 23 30  1  0
 24  4  1  0
 27  6  1  0
 29 17  1  0
 30 20  1  0
  2  3  1  0
  4 25  1  0
  5 26  1  0
  6  7  1  0
  8 28  1  0
  9 10  1  0
 17 31  2  0
 18 19  2  0
 20 32  2  0
 21 22  2  0
M  END
>  <rmsd>  (417) 
0.242858246

$$$$
MolPort-020-292-520 MCULE-4285768089 PubChem-110264988
     RDKit          3D

 31 34  0  0  0  0  0  0  0  0999 V2000
   17.5777   43.0370    8.3394 C   0  0  0  0  0  0  0  0  0  0  0  0
   16.2046   42.5760    8.0078 C   0  0  0  0  0  0  0  0  0  0  0  0
   15.5093   43.1614    6.9484 C   0  0  0  0  0  0  0  0  0  0  0  0
   14.2152   42.7211    6.6418 C   0  0  0  0  0  0  0  0  0  0  0  0
   13.6455   41.7005    7.4066 C   0  0  0  0  0  0  0  0  0  0  0  0
   14.3694   41.1368    8.4604 C   0  0  0  0  0  0  0  0  0  0  0  0
   13.7550   40.0453    9.2722 C   0  0  2  0  0  0  0  0  0  0  0  0
   13.6331   40.4648   10.7381 C   0  0  0  0  0  0  0  0  0  0  0  0
   12.9959   39.3457   11.5587 C   0  0  0  0  0  0  0  0  0  0  0  0
   13.8222   38.0685   11.4362 C   0  0  0  0  0  0  0  0  0  0  0  0
   14.5740   38.7608    9.1524 C   0  0  0  0  0  0  0  0  0  0  0  0
   13.4600   36.5327    9.4657 C   0  0  0  0  0  0  0  0  0  0  0  0
   13.2466   35.3234   10.2874 C   0  0  0  0  0  0  0  0  0  0  0  0
   14.0405   34.8099   11.2965 C   0  0  0  0  0  0  0  0  0  0  0  0
   12.2303   34.3937   10.1690 C   0  0  0  0  0  0  0  0  0  0  0  0
   11.0759   34.4617    9.2209 C   0  0  0  0  0  0  0  0  0  0  0  0
   11.0238   33.2164    8.3576 C   0  0  0  0  0  0  0  0  0  0  0  0
    9.7749   34.6147    9.9839 C   0  0  0  0  0  0  0  0  0  0  0  0
   15.3266   35.3621   11.8053 C   0  0  0  0  0  0  0  0  0  0  0  0
   13.8498   44.3296    4.6682 C   0  0  0  0  0  0  0  0  0  0  0  0
   13.3209   45.7229    2.8296 C   0  0  0  0  0  0  0  0  0  0  0  0
   14.5687   46.3365    2.9189 C   0  0  0  0  0  0  0  0  0  0  0  0
   15.4445   45.9100    3.9151 C   0  0  0  0  0  0  0  0  0  0  0  0
   15.6265   41.5842    8.7362 N   0  0  0  0  0  0  0  0  0  0  0  0
   14.0068   37.7369   10.0251 N   0  0  0  0  0  0  0  0  0  0  0  0
   12.4092   33.4139   11.0787 N   0  0  0  0  0  0  0  0  0  0  0  0
   13.4519   43.2839    5.5653 N   0  0  0  0  0  0  0  0  0  0  0  0
   12.9852   44.7358    3.7008 N   0  0  0  0  0  0  0  0  0  0  0  0
   15.0726   44.9199    4.7675 N   0  0  0  0  0  0  0  0  0  0  0  0
   13.1392   36.5043    8.2467 O   0  0  0  0  0  0  0  0  0  0  0  0
   13.5013   33.6945   11.7301 O   0  0  0  0  0  0  0  0  0  0  0  0
  1  2  1  0
  2 24  2  0
  3  4  2  0
  4 27  1  0
  5  6  2  0
  7  6  1  6
  7  8  1  0
  8  9  1  0
  9 10  1  0
 10 25  1  0
 11 25  1  0
 11  7  1  0
 12 13  1  0
 14 31  1  0
 15 13  1  0
 16 15  1  0
 16 17  1  0
 16 18  1  0
 19 14  1  0
 20 29  2  0
 21 28  2  0
 22 23  2  0
 25 12  1  0
 27 20  1  0
 31 26  1  0
  2  3  1  0
  4  5  1  0
  6 24  1  0
 12 30  2  0
 13 14  2  0
 15 26  2  0
 20 28  1  0
 21 22  1  0
 23 29  1  0
M  END
>  <rmsd>  (418) 
0.242799357

$$$$
MolPort-020-275-095 MCULE-7977272301 PubChem-110252779
     RDKit          3D

 26 29  0  0  0  0  0  0  0  0999 V2000
   17.5760   43.0374    8.3402 C   0  0  0  0  0  0  0  0  0  0  0  0
   16.2033   42.5760    8.0076 C   0  0  0  0  0  0  0  0  0  0  0  0
   15.5086   43.1615    6.9479 C   0  0  0  0  0  0  0  0  0  0  0  0
   14.2149   42.7210    6.6403 C   0  0  0  0  0  0  0  0  0  0  0  0
   13.6448   41.7000    7.4046 C   0  0  0  0  0  0  0  0  0  0  0  0
   14.3683   41.1363    8.4587 C   0  0  0  0  0  0  0  0  0  0  0  0
   13.7536   40.0443    9.2699 C   0  0  2  0  0  0  0  0  0  0  0  0
   13.6281   40.4643   10.7361 C   0  0  0  0  0  0  0  0  0  0  0  0
   12.9955   39.3435   11.5583 C   0  0  0  0  0  0  0  0  0  0  0  0
   13.8328   38.0737   11.4399 C   0  0  0  0  0  0  0  0  0  0  0  0
   14.5713   38.7586    9.1470 C   0  0  0  0  0  0  0  0  0  0  0  0
   13.6183   36.4575    9.5191 C   0  0  0  0  0  0  0  0  0  0  0  0
   13.4083   34.9602    7.6958 C   0  0  0  0  0  0  0  0  0  0  0  0
   12.8608   33.9936    8.5368 C   0  0  0  0  0  0  0  0  0  0  0  0
   12.7055   34.3029    9.8865 C   0  0  0  0  0  0  0  0  0  0  0  0
   13.8503   44.3296    4.6667 C   0  0  0  0  0  0  0  0  0  0  0  0
   13.3223   45.7232    2.8280 C   0  0  0  0  0  0  0  0  0  0  0  0
   14.5701   46.3370    2.9182 C   0  0  0  0  0  0  0  0  0  0  0  0
   15.4453   45.9105    3.9148 C   0  0  0  0  0  0  0  0  0  0  0  0
   15.6250   41.5840    8.7353 N   0  0  0  0  0  0  0  0  0  0  0  0
   14.0110   37.7392   10.0295 N   0  0  0  0  0  0  0  0  0  0  0  0
   13.7755   36.1680    8.1976 N   0  0  0  0  0  0  0  0  0  0  0  0
   13.0843   35.5217   10.3521 N   0  0  0  0  0  0  0  0  0  0  0  0
   13.4521   43.2837    5.5635 N   0  0  0  0  0  0  0  0  0  0  0  0
   12.9863   44.7360    3.6988 N   0  0  0  0  0  0  0  0  0  0  0  0
   15.0730   44.9201    4.7669 N   0  0  0  0  0  0  0  0  0  0  0  0
  1  2  1  0
  2 20  2  0
  3  4  2  0
  4 24  1  0
  5  6  2  0
  7  6  1  6
  7  8  1  0
  8  9  1  0
  9 10  1  0
 10 21  1  0
 11 21  1  0
 11  7  1  0
 12 23  2  0
 13 22  2  0
 14 15  2  0
 16 26  2  0
 17 25  2  0
 18 19  2  0
 21 12  1  0
 24 16  1  0
  2  3  1  0
  4  5  1  0
  6 20  1  0
 12 22  1  0
 13 14  1  0
 15 23  1  0
 16 25  1  0
 17 18  1  0
 19 26  1  0
M  END
>  <rmsd>  (419) 
0.242642969

$$$$
MolPort-049-666-434 MolPort-051-561-886 CHEMBL5184668 CHEMBL5222013 CSSS06623406600 CSSS06623407334 MCULE-1265556255 MCULE-7926030787 PubChem-145426155 PubChem-160110221 PubChem-161609045 PubChem-163196447 Z5889958807
     RDKit          3D

 34 38  0  0  0  0  0  0  0  0999 V2000
   13.3897   47.0511    3.2486 C   0  0  0  0  0  0  0  0  0  0  0  0
   13.5055   45.6771    2.6139 C   0  0  0  0  0  0  0  0  0  0  0  0
   13.9413   44.3127    4.6319 C   0  0  0  0  0  0  0  0  0  0  0  0
   14.1849   42.8483    6.6953 C   0  0  0  0  0  0  0  0  0  0  0  0
   15.6653   42.6127    8.1687 C   0  0  0  0  0  0  0  0  0  0  0  0
   16.7955   42.6819    8.9750 C   0  0  0  0  0  0  0  0  0  0  0  0
   16.8415   41.8327   10.0952 C   0  0  0  0  0  0  0  0  0  0  0  0
   15.7761   40.9397   10.3926 C   0  0  0  0  0  0  0  0  0  0  0  0
   14.6511   40.9114    9.5366 C   0  0  0  0  0  0  0  0  0  0  0  0
   14.6376   41.7642    8.4372 C   0  0  0  0  0  0  0  0  0  0  0  0
   15.8624   40.0543   11.5891 C   0  0  0  0  0  0  0  0  0  0  0  0
   14.8070   39.1993   11.9899 C   0  0  0  0  0  0  0  0  0  0  0  0
   14.9436   38.3976   13.1279 C   0  0  0  0  0  0  0  0  0  0  0  0
   16.1188   38.4287   13.8791 C   0  0  0  0  0  0  0  0  0  0  0  0
   17.1699   39.2609   13.4932 C   0  0  0  0  0  0  0  0  0  0  0  0
   18.4171   39.3179   14.3089 C   0  0  0  0  0  0  0  0  0  0  0  0
   18.3376   40.4249   15.3150 C   0  0  0  0  0  0  0  0  0  0  0  0
   18.0696   42.3972   17.2362 C   0  0  0  0  0  0  0  0  0  0  0  0
   18.6942   42.7160   16.0238 C   0  0  0  0  0  0  0  0  0  0  0  0
   19.1797   44.0073   15.7699 C   0  0  0  0  0  0  0  0  0  0  0  0
   19.7971   44.3001   14.5512 C   0  0  0  0  0  0  0  0  0  0  0  0
   19.9346   43.3066   13.5788 C   0  0  0  0  0  0  0  0  0  0  0  0
   19.4549   42.0171   13.8222 C   0  0  0  0  0  0  0  0  0  0  0  0
   18.8316   41.7109   15.0418 C   0  0  0  0  0  0  0  0  0  0  0  0
   17.0373   40.0681   12.3607 C   0  0  0  0  0  0  0  0  0  0  0  0
   13.1368   44.6672    3.5461 O   0  0  0  0  0  0  0  0  0  0  0  0
   15.0639   44.8631    4.8012 O   0  0  0  0  0  0  0  0  0  0  0  0
   17.9276   43.2634   18.1407 O   0  0  0  0  0  0  0  0  0  0  0  0
   13.4742   43.3117    5.5421 N   0  0  0  0  0  0  0  0  0  0  0  0
   15.4068   43.3206    7.0606 N   0  0  0  0  0  0  0  0  0  0  0  0
   13.6753   41.8914    7.5130 N   0  0  0  0  0  0  0  0  0  0  0  0
   17.7365   40.1853   16.5104 N   0  0  0  0  0  0  0  0  0  0  0  0
   17.6095   41.1355   17.4381 N   0  0  0  0  0  0  0  0  0  0  0  0
   13.6405   39.1337   11.3018 F   0  0  0  0  0  0  0  0  0  0  0  0
  1  2  1  0
  2 26  1  0
  3 26  1  0
  3 29  1  0
  5 30  1  0
  6  7  2  0
  8  9  2  0
  8 11  1  0
 10 31  1  0
 10  5  2  0
 12 34  1  0
 12 13  2  0
 14 15  2  0
 16 15  1  0
 16 17  1  0
 18 19  1  0
 20 21  2  0
 22 23  2  0
 24 17  1  0
 24 19  2  0
 25 11  2  0
 29  4  1  0
 31  4  1  0
 33 32  1  0
 33 18  1  0
  3 27  2  0
  4 30  2  0
  5  6  1  0
  7  8  1  0
  9 10  1  0
 11 12  1  0
 13 14  1  0
 15 25  1  0
 17 32  2  0
 18 28  2  0
 19 20  1  0
 21 22  1  0
 23 24  1  0
M  END
>  <rmsd>  (420) 
0.242640048

$$$$
MolPort-020-275-093 MCULE-9391947668 PubChem-110252777
     RDKit          3D

 23 25  0  0  0  0  0  0  0  0999 V2000
   17.5764   43.0356    8.3397 C   0  0  0  0  0  0  0  0  0  0  0  0
   16.2035   42.5746    8.0074 C   0  0  0  0  0  0  0  0  0  0  0  0
   15.5086   43.1604    6.9481 C   0  0  0  0  0  0  0  0  0  0  0  0
   14.2146   42.7202    6.6408 C   0  0  0  0  0  0  0  0  0  0  0  0
   13.6446   41.6991    7.4050 C   0  0  0  0  0  0  0  0  0  0  0  0
   14.3684   41.1349    8.4587 C   0  0  0  0  0  0  0  0  0  0  0  0
   13.7537   40.0431    9.2701 C   0  0  2  0  0  0  0  0  0  0  0  0
   13.6273   40.4639   10.7358 C   0  0  0  0  0  0  0  0  0  0  0  0
   12.9950   39.3431   11.5584 C   0  0  0  0  0  0  0  0  0  0  0  0
   13.8337   38.0741   11.4413 C   0  0  0  0  0  0  0  0  0  0  0  0
   14.5719   38.7575    9.1482 C   0  0  0  0  0  0  0  0  0  0  0  0
   13.6254   36.4499    9.5310 C   0  0  0  0  0  0  0  0  0  0  0  0
   13.7910   36.1055    8.0893 C   0  0  0  0  0  0  0  0  0  0  0  0
   13.8496   44.3297    4.6679 C   0  0  0  0  0  0  0  0  0  0  0  0
   15.4444   45.9107    3.9163 C   0  0  0  0  0  0  0  0  0  0  0  0
   14.5690   46.3377    2.9200 C   0  0  0  0  0  0  0  0  0  0  0  0
   13.3211   45.7240    2.8299 C   0  0  0  0  0  0  0  0  0  0  0  0
   15.6253   41.5825    8.7351 N   0  0  0  0  0  0  0  0  0  0  0  0
   14.0122   37.7378   10.0314 N   0  0  0  0  0  0  0  0  0  0  0  0
   13.4515   43.2834    5.5644 N   0  0  0  0  0  0  0  0  0  0  0  0
   15.0723   44.9201    4.7680 N   0  0  0  0  0  0  0  0  0  0  0  0
   12.9854   44.7364    3.7006 N   0  0  0  0  0  0  0  0  0  0  0  0
   13.1370   35.5876   10.3090 O   0  0  0  0  0  0  0  0  0  0  0  0
  1  2  1  0
  2 18  2  0
  3  4  2  0
  4 20  1  0
  5  6  2  0
  7  6  1  6
  7  8  1  0
  8  9  1  0
  9 10  1  0
 10 19  1  0
 11 19  1  0
 11  7  1  0
 13 12  1  0
 14 22  2  0
 15 21  2  0
 16 17  2  0
 19 12  1  0
 20 14  1  0
  2  3  1  0
  4  5  1  0
  6 18  1  0
 12 23  2  0
 14 21  1  0
 15 16  1  0
 17 22  1  0
M  END
>  <rmsd>  (421) 
0.242638707

$$$$
Molport-051-942-616 CSSS20572399210
     RDKit          3D

 24 26  0  0  0  0  0  0  0  0999 V2000
   12.9222   44.8721    3.6744 C   0  0  0  0  0  0  0  0  0  0  0  0
   13.8851   44.3762    4.6916 C   0  0  0  0  0  0  0  0  0  0  0  0
   14.3089   42.7332    6.5938 C   0  0  0  0  0  0  0  0  0  0  0  0
   16.3006   42.5982    7.8032 C   0  0  0  0  0  0  0  0  0  0  0  0
   16.8475   41.2463    9.3212 C   0  0  0  0  0  0  0  0  0  0  0  0
   14.5363   41.1455    8.3427 C   0  0  0  0  0  0  0  0  0  0  0  0
   13.8038   40.2998   10.5966 C   0  0  0  0  0  0  0  0  0  0  0  0
   13.2921   39.1647   11.4070 C   0  0  0  0  0  0  0  0  0  0  0  0
   16.9092   40.0905   10.2323 C   0  0  0  0  0  0  0  0  0  0  0  0
   17.2058   40.3207   11.5818 C   0  0  0  0  0  0  0  0  0  0  0  0
   17.2850   39.2553   12.4817 C   0  0  0  0  0  0  0  0  0  0  0  0
   17.0821   37.9481   12.0355 C   0  0  0  0  0  0  0  0  0  0  0  0
   16.8118   37.7045   10.6869 C   0  0  0  0  0  0  0  0  0  0  0  0
   16.7306   38.7651    9.7789 C   0  0  0  0  0  0  0  0  0  0  0  0
   16.5021   38.4483    8.3390 C   0  0  0  0  0  0  0  0  0  0  0  0
   15.0283   44.8988    4.7673 O   0  0  0  0  0  0  0  0  0  0  0  0
   14.0951   41.3873   11.1617 O   0  0  0  0  0  0  0  0  0  0  0  0
   13.4954   43.3123    5.5671 N   0  0  0  0  0  0  0  0  0  0  0  0
   15.5749   43.1901    6.8272 N   0  0  0  0  0  0  0  0  0  0  0  0
   17.5631   42.9124    8.1370 N   0  0  0  0  0  0  0  0  0  0  0  0
   17.9064   42.0587    9.0964 N   0  0  0  0  0  0  0  0  0  0  0  0
   15.8115   41.5855    8.5233 N   0  0  0  0  0  0  0  0  0  0  0  0
   13.9407   40.1519    9.1815 N   0  0  0  0  0  0  0  0  0  0  0  0
   13.7960   41.7195    7.3547 N   0  0  0  0  0  0  0  0  0  0  0  0
  1  2  1  0
  2 18  1  0
  3 24  1  0
  4 19  1  0
  5 22  1  0
  5  9  1  0
  6 23  1  0
  8  7  1  0
 10 11  2  0
 12 13  2  0
 14  9  2  0
 15 14  1  0
 18  3  1  0
 20 21  1  0
 22  6  1  0
 22  4  1  0
 23  7  1  0
  2 16  2  0
  3 19  2  0
  4 20  2  0
  5 21  2  0
  6 24  2  0
  7 17  2  0
  9 10  1  0
 11 12  1  0
 13 14  1  0
M  END
>  <rmsd>  (422) 
0.242612869

$$$$
MolPort-046-958-371 MCULE-5358002909 PubChem-110093591
     RDKit          3D

 30 33  0  0  0  0  0  0  0  0999 V2000
   17.5690   43.0038    8.3529 C   0  0  0  0  0  0  0  0  0  0  0  0
   16.1944   42.5491    8.0190 C   0  0  0  0  0  0  0  0  0  0  0  0
   15.5028   43.1395    6.9600 C   0  0  0  0  0  0  0  0  0  0  0  0
   14.2073   42.7046    6.6518 C   0  0  0  0  0  0  0  0  0  0  0  0
   13.6318   41.6852    7.4138 C   0  0  0  0  0  0  0  0  0  0  0  0
   14.3526   41.1166    8.4672 C   0  0  0  0  0  0  0  0  0  0  0  0
   13.7327   40.0266    9.2769 C   0  0  2  0  0  0  0  0  0  0  0  0
   13.6094   40.4455   10.7429 C   0  0  0  0  0  0  0  0  0  0  0  0
   12.9677   39.3279   11.5618 C   0  0  0  0  0  0  0  0  0  0  0  0
   13.7922   38.0495   11.4410 C   0  0  0  0  0  0  0  0  0  0  0  0
   14.5470   38.7389    9.1565 C   0  0  0  0  0  0  0  0  0  0  0  0
   13.4592   36.4962    9.4758 C   0  0  0  0  0  0  0  0  0  0  0  0
   13.1633   35.3241   10.3259 C   0  0  0  0  0  0  0  0  0  0  0  0
   11.9329   34.6770   10.1847 C   0  0  0  0  0  0  0  0  0  0  0  0
   12.5222   33.1200   11.8588 C   0  0  0  0  0  0  0  0  0  0  0  0
   14.0799   34.7987   11.2577 C   0  0  0  0  0  0  0  0  0  0  0  0
   15.4543   35.3583   11.4118 C   0  0  0  0  0  0  0  0  0  0  0  0
   12.1743   31.9365   12.6874 C   0  0  0  0  0  0  0  0  0  0  0  0
   13.8766   44.3209    4.6952 C   0  0  0  0  0  0  0  0  0  0  0  0
   15.1962   45.8843    3.7919 C   0  0  0  0  0  0  0  0  0  0  0  0
   14.0978   46.0508    2.9489 C   0  0  0  0  0  0  0  0  0  0  0  0
   16.4315   46.6985    3.6520 C   0  0  0  0  0  0  0  0  0  0  0  0
   15.6113   41.5585    8.7449 N   0  0  0  0  0  0  0  0  0  0  0  0
   13.9766   37.7171   10.0297 N   0  0  0  0  0  0  0  0  0  0  0  0
   11.6335   33.5965   10.9503 N   0  0  0  0  0  0  0  0  0  0  0  0
   13.7351   33.7140   12.0001 N   0  0  0  0  0  0  0  0  0  0  0  0
   13.4505   43.2745    5.5758 N   0  0  0  0  0  0  0  0  0  0  0  0
   15.0771   44.9316    4.7552 N   0  0  0  0  0  0  0  0  0  0  0  0
   13.2190   36.4264    8.2396 O   0  0  0  0  0  0  0  0  0  0  0  0
   12.9361   44.9393    3.4563 S   0  0  0  0  0  0  0  0  0  0  0  0
  1  2  1  0
  2 23  2  0
  3  4  2  0
  4 27  1  0
  5  6  2  0
  7  6  1  6
  7  8  1  0
  8  9  1  0
  9 10  1  0
 10 24  1  0
 11 24  1  0
 11  7  1  0
 12 13  1  0
 14 25  2  0
 15 26  2  0
 16 13  2  0
 17 16  1  0
 18 15  1  0
 19 30  1  0
 20 28  1  0
 21 30  1  0
 22 20  1  0
 24 12  1  0
 27 19  1  0
  2  3  1  0
  4  5  1  0
  6 23  1  0
 12 29  2  0
 13 14  1  0
 15 25  1  0
 16 26  1  0
 19 28  2  0
 20 21  2  0
M  END
>  <rmsd>  (423) 
0.242607221

$$$$
MolPort-047-073-850 MCULE-1850452322 PubChem-132772074
     RDKit          3D

 29 32  0  0  0  0  0  0  0  0999 V2000
   15.2119   45.8787    3.8018 C   0  0  0  0  0  0  0  0  0  0  0  0
   14.1130   46.0436    2.9530 C   0  0  0  0  0  0  0  0  0  0  0  0
   13.8759   44.3169    4.6961 C   0  0  0  0  0  0  0  0  0  0  0  0
   14.2211   42.7235    6.6479 C   0  0  0  0  0  0  0  0  0  0  0  0
   16.2100   42.6583    7.9303 C   0  0  0  0  0  0  0  0  0  0  0  0
   15.6805   41.6404    8.7199 C   0  0  0  0  0  0  0  0  0  0  0  0
   14.3896   41.1800    8.4369 C   0  0  0  0  0  0  0  0  0  0  0  0
   13.7624   40.0890    9.2448 C   0  0  2  0  0  0  0  0  0  0  0  0
   13.6121   40.5024   10.7031 C   0  0  0  0  0  0  0  0  0  0  0  0
   12.9708   39.3683   11.4852 C   0  0  0  0  0  0  0  0  0  0  0  0
   13.8101   38.0953   11.3369 C   0  0  0  0  0  0  0  0  0  0  0  0
   12.7086   37.2853    9.3648 C   0  0  0  0  0  0  0  0  0  0  0  0
   12.9143   36.1976    8.4043 C   0  0  0  0  0  0  0  0  0  0  0  0
   14.5725   38.7900    9.1397 C   0  0  0  0  0  0  0  0  0  0  0  0
   16.4396   46.6804    3.6727 C   0  0  0  0  0  0  0  0  0  0  0  0
   18.8833   47.0500    4.7554 C   0  0  0  0  0  0  0  0  0  0  0  0
   19.2422   46.1928    5.9104 C   0  0  0  0  0  0  0  0  0  0  0  0
   17.8889   45.6243    5.7084 C   0  0  0  0  0  0  0  0  0  0  0  0
   12.9440   44.9360    3.4523 S   0  0  0  0  0  0  0  0  0  0  0  0
   13.4470   43.2730    5.5761 N   0  0  0  0  0  0  0  0  0  0  0  0
   15.4758   43.1795    6.9138 N   0  0  0  0  0  0  0  0  0  0  0  0
   13.9896   37.6968    9.9331 N   0  0  0  0  0  0  0  0  0  0  0  0
   13.0767   35.3390    7.6456 N   0  0  0  0  0  0  0  0  0  0  0  0
   13.6906   41.7306    7.4096 N   0  0  0  0  0  0  0  0  0  0  0  0
   15.0769   44.9243    4.7631 N   0  0  0  0  0  0  0  0  0  0  0  0
   17.5397   46.4801    4.5609 N   0  0  0  0  0  0  0  0  0  0  0  0
   16.5273   47.5551    2.7701 O   0  0  0  0  0  0  0  0  0  0  0  0
   20.2618   45.3002    5.6402 F   0  0  0  0  0  0  0  0  0  0  0  0
   19.3763   46.8906    7.0955 F   0  0  0  0  0  0  0  0  0  0  0  0
  1 15  1  0
  1 25  1  0
  2 19  1  0
  3 19  1  0
  3 20  1  0
  4 24  2  0
  5 21  2  0
  6  7  2  0
  8  7  1  6
  8  9  1  0
  9 10  1  0
 10 11  1  0
 11 22  1  0
 12 22  1  0
 12 13  1  0
 14 22  1  0
 14  8  1  0
 15 26  1  0
 16 26  1  0
 16 17  1  0
 17 18  1  0
 17 28  1  0
 17 29  1  0
 18 26  1  0
 20  4  1  0
  1  2  2  0
  3 25  2  0
  4 21  1  0
  5  6  1  0
  7 24  1  0
 15 27  2  0
 13 23  3  0
M  END
>  <rmsd>  (424) 
0.24255164

$$$$
MolPort-046-958-707 MCULE-9654830527 PubChem-110094058
     RDKit          3D

 22 24  0  0  0  0  0  0  0  0999 V2000
   15.9689   36.4419   10.3462 C   0  0  0  0  0  0  0  0  0  0  0  0
   14.5872   36.4618    9.6926 C   0  0  0  0  0  0  0  0  0  0  0  0
   13.7648   35.2722   10.1558 C   0  0  0  0  0  0  0  0  0  0  0  0
   13.8159   38.0880   11.3212 C   0  0  0  0  0  0  0  0  0  0  0  0
   12.9681   39.3426   11.5123 C   0  0  0  0  0  0  0  0  0  0  0  0
   13.5623   40.4892   10.7016 C   0  0  0  0  0  0  0  0  0  0  0  0
   13.7174   40.0777    9.2377 C   0  0  2  0  0  0  0  0  0  0  0  0
   14.5174   38.7777    9.1375 C   0  0  0  0  0  0  0  0  0  0  0  0
   14.3625   41.1663    8.4406 C   0  0  0  0  0  0  0  0  0  0  0  0
   15.6555   41.6180    8.7335 C   0  0  0  0  0  0  0  0  0  0  0  0
   15.5184   43.1699    6.9522 C   0  0  0  0  0  0  0  0  0  0  0  0
   14.2249   42.7237    6.6529 C   0  0  0  0  0  0  0  0  0  0  0  0
   13.8484   44.3220    4.6743 C   0  0  0  0  0  0  0  0  0  0  0  0
   15.4345   45.9087    3.9033 C   0  0  0  0  0  0  0  0  0  0  0  0
   14.5430   46.3193    2.9114 C   0  0  0  0  0  0  0  0  0  0  0  0
   12.9589   44.7358    3.6803 C   0  0  0  0  0  0  0  0  0  0  0  0
   13.8521   37.7180    9.8991 N   0  0  0  0  0  0  0  0  0  0  0  0
   16.2029   42.6087    7.9829 N   0  0  0  0  0  0  0  0  0  0  0  0
   13.6824   41.7315    7.4081 N   0  0  0  0  0  0  0  0  0  0  0  0
   13.4560   43.2792    5.5768 N   0  0  0  0  0  0  0  0  0  0  0  0
   15.0682   44.9206    4.7617 N   0  0  0  0  0  0  0  0  0  0  0  0
   13.3247   45.7239    2.8215 N   0  0  0  0  0  0  0  0  0  0  0  0
  1  2  1  0
  2  3  1  0
  2 17  1  0
  4 17  1  0
  4  5  1  0
  5  6  1  0
  6  7  1  0
  7  8  1  0
  7  9  1  6
  8 17  1  0
  9 19  2  0
 10 18  2  0
 11 12  2  0
 12 20  1  0
 14 21  2  0
 15 22  2  0
 16 13  2  0
 20 13  1  0
  9 10  1  0
 11 18  1  0
 12 19  1  0
 13 21  1  0
 14 15  1  0
 16 22  1  0
M  END
>  <rmsd>  (425) 
0.242535457

$$$$
MolPort-007-807-850 ChemDiv-F689-0640 MCULE-7230852670 PubChem-46325690 ZINC000033007958
     RDKit          3D

 27 29  0  0  0  0  0  0  0  0999 V2000
   19.3727   44.2015    8.6212 C   0  0  0  0  0  0  0  0  0  0  0  0
   17.2473   42.9382    8.6633 C   0  0  0  0  0  0  0  0  0  0  0  0
   15.9961   42.6819    8.0957 C   0  0  0  0  0  0  0  0  0  0  0  0
   14.2708   42.8447    6.6886 C   0  0  0  0  0  0  0  0  0  0  0  0
   13.9132   44.3164    4.6519 C   0  0  0  0  0  0  0  0  0  0  0  0
   13.0058   44.7069    3.5421 C   0  0  0  0  0  0  0  0  0  0  0  0
   15.1526   41.7341    8.6546 C   0  0  0  0  0  0  0  0  0  0  0  0
   15.5019   41.0058    9.7858 C   0  0  0  0  0  0  0  0  0  0  0  0
   16.7559   41.2495   10.3748 C   0  0  0  0  0  0  0  0  0  0  0  0
   14.7153   40.1060   12.9341 C   0  0  0  0  0  0  0  0  0  0  0  0
   14.7831   40.9656   14.0368 C   0  0  0  0  0  0  0  0  0  0  0  0
   13.6305   41.5921   14.5175 C   0  0  0  0  0  0  0  0  0  0  0  0
   12.4013   41.3655   13.8945 C   0  0  0  0  0  0  0  0  0  0  0  0
   12.3249   40.5125   12.7909 C   0  0  0  0  0  0  0  0  0  0  0  0
   13.4754   39.8818   12.3069 C   0  0  0  0  0  0  0  0  0  0  0  0
   17.6193   42.2097    9.8128 C   0  0  0  0  0  0  0  0  0  0  0  0
   18.0905   43.8957    8.0910 O   0  0  0  0  0  0  0  0  0  0  0  0
   15.0363   44.8759    4.7597 O   0  0  0  0  0  0  0  0  0  0  0  0
   15.9107   38.2190   11.4174 O   0  0  0  0  0  0  0  0  0  0  0  0
   16.9637   38.8195   13.5323 O   0  0  0  0  0  0  0  0  0  0  0  0
   15.5083   43.3077    6.9939 N   0  0  0  0  0  0  0  0  0  0  0  0
   13.4955   43.3105    5.5800 N   0  0  0  0  0  0  0  0  0  0  0  0
   17.1755   40.5404   11.5434 N   0  0  0  0  0  0  0  0  0  0  0  0
   13.7347   41.6517    7.7614 S   0  0  0  0  0  0  0  0  0  0  0  0
   16.2016   39.3578   12.3545 S   0  0  0  0  0  0  0  0  0  0  0  0
   13.7057   42.4206   15.5862 F   0  0  0  0  0  0  0  0  0  0  0  0
   13.3706   39.0668   11.2288 F   0  0  0  0  0  0  0  0  0  0  0  0
  1 17  1  0
  2 17  1  0
  3 21  1  0
  4 22  1  0
  4 24  1  0
  6  5  1  0
  7 24  1  0
  7  3  2  0
  8  9  2  0
  9 23  1  0
 11 12  2  0
 12 26  1  0
 13 14  2  0
 15 27  1  0
 15 10  2  0
 16  2  2  0
 22  5  1  0
 25 23  1  0
 25 10  1  0
  2  3  1  0
  4 21  2  0
  5 18  2  0
  7  8  1  0
  9 16  1  0
 10 11  1  0
 12 13  1  0
 14 15  1  0
 25 19  2  0
 25 20  2  0
M  END
>  <rmsd>  (426) 
0.242307812

$$$$
MolPort-020-292-513 MCULE-4185244807 PubChem-110264981
     RDKit          3D

 31 34  0  0  0  0  0  0  0  0999 V2000
   16.7866   46.5445    4.0669 C   0  0  0  0  0  0  0  0  0  0  0  0
   15.4474   45.9157    3.9273 C   0  0  0  0  0  0  0  0  0  0  0  0
   14.5753   46.3468    2.9301 C   0  0  0  0  0  0  0  0  0  0  0  0
   13.3279   45.7327    2.8331 C   0  0  0  0  0  0  0  0  0  0  0  0
   13.8510   44.3303    4.6663 C   0  0  0  0  0  0  0  0  0  0  0  0
   14.2188   42.7011    6.6215 C   0  0  0  0  0  0  0  0  0  0  0  0
   13.6324   41.7078    7.4092 C   0  0  0  0  0  0  0  0  0  0  0  0
   14.3631   41.1245    8.4479 C   0  0  0  0  0  0  0  0  0  0  0  0
   16.2379   42.4904    7.9352 C   0  0  0  0  0  0  0  0  0  0  0  0
   15.5366   43.0939    6.8897 C   0  0  0  0  0  0  0  0  0  0  0  0
   17.6358   42.9024    8.2270 C   0  0  0  0  0  0  0  0  0  0  0  0
   13.7309   40.0608    9.2827 C   0  0  2  0  0  0  0  0  0  0  0  0
   13.6610   40.4936   10.7490 C   0  0  0  0  0  0  0  0  0  0  0  0
   13.0107   39.4014   11.5956 C   0  0  0  0  0  0  0  0  0  0  0  0
   13.7967   38.1011   11.4617 C   0  0  0  0  0  0  0  0  0  0  0  0
   14.4966   38.7448    9.1460 C   0  0  0  0  0  0  0  0  0  0  0  0
   13.4693   36.4848    9.5495 C   0  0  0  0  0  0  0  0  0  0  0  0
   12.9112   35.4490   10.4721 C   0  0  0  0  0  0  0  0  0  0  0  0
   13.9956   34.5499   10.9576 C   0  0  0  0  0  0  0  0  0  0  0  0
   14.3093   33.3515   10.3163 C   0  0  0  0  0  0  0  0  0  0  0  0
   15.6990   33.9367   12.2742 C   0  0  0  0  0  0  0  0  0  0  0  0
   16.6848   34.0200   13.3832 C   0  0  0  0  0  0  0  0  0  0  0  0
   12.3680   46.1624    1.7833 C   0  0  0  0  0  0  0  0  0  0  0  0
   12.9896   44.7411    3.6982 N   0  0  0  0  0  0  0  0  0  0  0  0
   15.0725   44.9221    4.7742 N   0  0  0  0  0  0  0  0  0  0  0  0
   13.4492   43.2831    5.5597 N   0  0  0  0  0  0  0  0  0  0  0  0
   15.6432   41.5256    8.6859 N   0  0  0  0  0  0  0  0  0  0  0  0
   13.9221   37.7520   10.0490 N   0  0  0  0  0  0  0  0  0  0  0  0
   14.7651   34.8762   12.0318 N   0  0  0  0  0  0  0  0  0  0  0  0
   13.5627   36.2188    8.3210 O   0  0  0  0  0  0  0  0  0  0  0  0
   15.6042   32.6863   11.1646 S   0  0  0  0  0  0  0  0  0  0  0  0
  1  2  1  0
  2 25  2  0
  3  4  2  0
  5 24  2  0
  5 26  1  0
  7  8  2  0
  9 27  2  0
 10  6  2  0
 11  9  1  0
 12  8  1  6
 12 13  1  0
 13 14  1  0
 14 15  1  0
 15 28  1  0
 16 28  1  0
 16 12  1  0
 18 17  1  0
 18 19  1  0
 19 29  1  0
 20 31  1  0
 21 31  1  0
 22 21  1  0
 23  4  1  0
 26  6  1  0
 28 17  1  0
  2  3  1  0
  4 24  1  0
  5 25  1  0
  6  7  1  0
  8 27  1  0
  9 10  1  0
 17 30  2  0
 19 20  2  0
 21 29  2  0
M  END
>  <rmsd>  (427) 
0.242304146

$$$$
Molport-047-859-626 PubChem-165938361
     RDKit          3D

 18 18  0  0  0  0  0  0  0  0999 V2000
   13.4536   39.5171   11.1241 C   0  0  0  0  0  0  0  0  0  0  0  0
   14.5306   40.1591    9.3098 C   0  0  0  0  0  0  0  0  0  0  0  0
   14.7979   41.2474    8.3238 C   0  0  0  0  0  0  0  0  0  0  0  0
   16.0205   41.9159    8.2020 C   0  0  0  0  0  0  0  0  0  0  0  0
   14.2828   42.6883    6.5844 C   0  0  0  0  0  0  0  0  0  0  0  0
   13.8212   41.6773    7.4133 C   0  0  0  0  0  0  0  0  0  0  0  0
   13.8978   44.3586    4.6874 C   0  0  0  0  0  0  0  0  0  0  0  0
   12.9366   44.8857    3.6703 C   0  0  0  0  0  0  0  0  0  0  0  0
   17.2422   41.7041    8.9964 C   0  0  0  0  0  0  0  0  0  0  0  0
   13.5371   40.5602   10.2033 O   0  0  0  0  0  0  0  0  0  0  0  0
   15.0355   44.8884    4.8020 O   0  0  0  0  0  0  0  0  0  0  0  0
   17.2741   40.8426    9.9138 O   0  0  0  0  0  0  0  0  0  0  0  0
   18.3770   42.4618    8.7356 O   0  0  0  0  0  0  0  0  0  0  0  0
   15.8843   43.0471    6.9634 S   0  0  0  0  0  0  0  0  0  0  0  0
   13.4871   43.3005    5.5628 N   0  0  0  0  0  0  0  0  0  0  0  0
   13.6243   45.4277    2.5991 F   0  0  0  0  0  0  0  0  0  0  0  0
   12.1263   43.8632    3.2113 F   0  0  0  0  0  0  0  0  0  0  0  0
   12.1503   45.8644    4.2480 F   0  0  0  0  0  0  0  0  0  0  0  0
  1 10  1  0
  2 10  1  0
  2  3  1  0
  4 14  1  0
  4  9  1  0
  5 14  1  0
  5 15  1  0
  6  3  1  0
  8  7  1  0
  8 16  1  0
  8 17  1  0
  8 18  1  0
  9 13  1  0
 15  7  1  0
  3  4  2  0
  5  6  2  0
  7 11  2  0
  9 12  2  0
M  END
>  <rmsd>  (428) 
0.242231578

$$$$
Molport-051-996-551 MCULE-9800697149 PubChem-118351748 PubChem-129158233 PubChem-145420292 PubChem-157092727 PubChem-157831666 PubChem-158370418 PubChem-159068665 PubChem-159124835 PubChem-160433104 PubChem-165060170 PubChem-165086823
     RDKit          3D

 26 26  0  0  0  0  0  0  0  0999 V2000
   12.1839   45.9672    1.7399 C   0  0  0  0  0  0  0  0  0  0  0  0
   13.3620   45.8049    2.6769 C   0  0  0  0  0  0  0  0  0  0  0  0
   13.6058   47.1313    3.3759 C   0  0  0  0  0  0  0  0  0  0  0  0
   14.5811   45.4252    1.8541 C   0  0  0  0  0  0  0  0  0  0  0  0
   13.9129   44.3595    4.6502 C   0  0  0  0  0  0  0  0  0  0  0  0
   14.2038   42.7514    6.6310 C   0  0  0  0  0  0  0  0  0  0  0  0
   15.5015   43.1762    6.9434 C   0  0  0  0  0  0  0  0  0  0  0  0
   16.2170   42.6189    8.0125 C   0  0  0  0  0  0  0  0  0  0  0  0
   15.6010   41.6239    8.8087 C   0  0  0  0  0  0  0  0  0  0  0  0
   14.3117   41.1882    8.4769 C   0  0  0  0  0  0  0  0  0  0  0  0
   13.6108   41.7377    7.3948 C   0  0  0  0  0  0  0  0  0  0  0  0
   11.6525   40.2765    7.7988 C   0  0  0  0  0  0  0  0  0  0  0  0
   16.7703   41.9838   10.9996 C   0  0  0  0  0  0  0  0  0  0  0  0
   16.2247   39.6520   10.2354 C   0  0  0  0  0  0  0  0  0  0  0  0
   15.3251   39.3062   11.4177 C   0  0  0  0  0  0  0  0  0  0  0  0
   13.2478   39.8881   12.2987 C   0  0  0  0  0  0  0  0  0  0  0  0
   13.3910   38.2173   10.6846 C   0  0  0  0  0  0  0  0  0  0  0  0
   13.0538   44.7816    3.6266 O   0  0  0  0  0  0  0  0  0  0  0  0
   15.0506   44.8863    4.7895 O   0  0  0  0  0  0  0  0  0  0  0  0
   12.3230   41.2959    7.0699 O   0  0  0  0  0  0  0  0  0  0  0  0
   17.9591   44.1515    7.8324 O   0  0  0  0  0  0  0  0  0  0  0  0
   18.5171   42.1250    8.6612 O   0  0  0  0  0  0  0  0  0  0  0  0
   13.4724   43.3204    5.5336 N   0  0  0  0  0  0  0  0  0  0  0  0
   16.2351   41.0894    9.9818 N   0  0  0  0  0  0  0  0  0  0  0  0
   13.9273   39.5097   11.0737 N   0  0  0  0  0  0  0  0  0  0  0  0
   17.5762   43.0311    8.2289 N   0  0  0  0  0  0  0  0  0  0  0  0
  1  2  1  0
  2  3  1  0
  2  4  1  0
  2 18  1  0
  5 18  1  0
  5 23  1  0
  7  8  2  0
  8 26  1  0
  9 10  2  0
  9 24  1  0
 11 20  1  0
 11  6  2  0
 12 20  1  0
 13 24  1  0
 14 24  1  0
 14 15  1  0
 15 25  1  0
 16 25  1  0
 17 25  1  0
 23  6  1  0
 26 22  1  0
  5 19  2  0
  6  7  1  0
  8  9  1  0
 10 11  1  0
 26 21  2  0
M  CHG  2  22  -1  26   1
M  END
>  <rmsd>  (429) 
0.242217973

$$$$
MolPort-001-980-042 350815 CHEMBL1365918 MCULE-1846993666 PubChem-829078 ZINC000000350815
     RDKit          3D

 24 26  0  0  0  0  0  0  0  0999 V2000
   14.3215   42.6777    6.5366 C   0  0  0  0  0  0  0  0  0  0  0  0
   13.9384   44.2999    4.6156 C   0  0  0  0  0  0  0  0  0  0  0  0
   13.0927   44.6530    3.4714 C   0  0  0  0  0  0  0  0  0  0  0  0
   11.8707   44.0878    3.1740 C   0  0  0  0  0  0  0  0  0  0  0  0
   11.4563   44.7293    2.0198 C   0  0  0  0  0  0  0  0  0  0  0  0
   12.4491   45.6376    1.6934 C   0  0  0  0  0  0  0  0  0  0  0  0
   15.1935   41.4765    8.5597 C   0  0  0  0  0  0  0  0  0  0  0  0
   16.1351   41.5919    7.5298 C   0  0  0  0  0  0  0  0  0  0  0  0
   17.5151   41.0222    7.6050 C   0  0  0  0  0  0  0  0  0  0  0  0
   15.6412   42.2486    6.3869 C   0  0  0  0  0  0  0  0  0  0  0  0
   16.3927   42.3591    5.1607 C   0  0  0  0  0  0  0  0  0  0  0  0
   15.4174   40.8800    9.8977 C   0  0  0  0  0  0  0  0  0  0  0  0
   13.0994   39.8923   10.0762 C   0  0  0  0  0  0  0  0  0  0  0  0
   12.7888   38.4691   10.5444 C   0  0  0  0  0  0  0  0  0  0  0  0
   12.9871   38.2650   12.0551 C   0  0  0  0  0  0  0  0  0  0  0  0
   13.3183   39.5573   12.7998 C   0  0  0  0  0  0  0  0  0  0  0  0
   14.5173   40.2423   12.1468 C   0  0  0  0  0  0  0  0  0  0  0  0
   13.4961   43.3110    5.5517 N   0  0  0  0  0  0  0  0  0  0  0  0
   16.9965   42.4452    4.1771 N   0  0  0  0  0  0  0  0  0  0  0  0
   14.3334   40.3761   10.6975 N   0  0  0  0  0  0  0  0  0  0  0  0
   15.0291   44.9059    4.7922 O   0  0  0  0  0  0  0  0  0  0  0  0
   13.4084   45.5614    2.5839 O   0  0  0  0  0  0  0  0  0  0  0  0
   16.5921   40.8294   10.3535 O   0  0  0  0  0  0  0  0  0  0  0  0
   13.7617   42.2054    8.0448 S   0  0  0  0  0  0  0  0  0  0  0  0
  1 18  1  0
  1 24  1  0
  2  3  1  0
  3 22  1  0
  4  5  1  0
  6 22  1  0
  7 24  1  0
  7 12  1  0
  8 10  1  0
  9  8  1  0
 10 11  1  0
 12 20  1  0
 13 20  1  0
 13 14  1  0
 14 15  1  0
 15 16  1  0
 16 17  1  0
 17 20  1  0
 18  2  1  0
  2 21  2  0
  3  4  2  0
  5  6  2  0
  7  8  2  0
 10  1  2  0
 12 23  2  0
 11 19  3  0
M  END
>  <rmsd>  (430) 
0.242171869

$$$$
MolPort-029-902-000 96162757 CSSS00159880895 MCULE-9601715621 PubChem-72915617 ZINC000096162757 ZINC96162757
     RDKit          3D

 28 30  0  0  0  0  0  0  0  0999 V2000
   12.7296   49.0890    1.9777 N   0  0  0  0  0  0  0  0  0  0  0  0
   13.0542   44.8189    3.5878 N   0  0  0  0  0  0  0  0  0  0  0  0
   13.4716   43.3212    5.5271 N   0  0  0  0  0  0  0  0  0  0  0  0
   13.7226   48.4082    2.7354 C   0  0  0  0  0  0  0  0  0  0  0  0
   13.3448   47.2456    3.5826 C   0  0  0  0  0  0  0  0  0  0  0  0
   13.4153   45.9664    2.7654 C   0  0  0  0  0  0  0  0  0  0  0  0
   11.7856   44.1552    3.3083 C   0  0  0  0  0  0  0  0  0  0  0  0
   12.0119   42.8274    2.6641 C   0  0  0  0  0  0  0  0  0  0  0  0
   12.4951   42.7537    1.3520 C   0  0  0  0  0  0  0  0  0  0  0  0
   12.7099   41.5084    0.7536 C   0  0  0  0  0  0  0  0  0  0  0  0
   12.4398   40.3355    1.4647 C   0  0  0  0  0  0  0  0  0  0  0  0
   11.9550   40.4075    2.7742 C   0  0  0  0  0  0  0  0  0  0  0  0
   11.7410   41.6525    3.3733 C   0  0  0  0  0  0  0  0  0  0  0  0
   13.9148   44.3641    4.6461 C   0  0  0  0  0  0  0  0  0  0  0  0
   14.2019   42.7458    6.6184 C   0  0  0  0  0  0  0  0  0  0  0  0
   13.6006   41.7280    7.3664 C   0  0  0  0  0  0  0  0  0  0  0  0
   14.2721   41.1397    8.4432 C   0  0  0  0  0  0  0  0  0  0  0  0
   14.2094   39.5067   10.3117 C   0  0  0  0  0  0  0  0  0  0  0  0
   13.4791   38.2089   10.6068 C   0  0  0  0  0  0  0  0  0  0  0  0
   12.6566   38.4542   11.8521 C   0  0  0  0  0  0  0  0  0  0  0  0
   13.3869   39.5433   12.5992 C   0  0  0  0  0  0  0  0  0  0  0  0
   14.0244   40.4009   11.5285 C   0  0  0  0  0  0  0  0  0  0  0  0
   15.5657   41.5761    8.7700 C   0  0  0  0  0  0  0  0  0  0  0  0
   16.1741   42.5906    8.0276 C   0  0  0  0  0  0  0  0  0  0  0  0
   15.4944   43.1736    6.9556 C   0  0  0  0  0  0  0  0  0  0  0  0
   14.9252   48.7715    2.6652 O   0  0  0  0  0  0  0  0  0  0  0  0
   15.0535   44.8858    4.7948 O   0  0  0  0  0  0  0  0  0  0  0  0
   13.6350   40.1247    9.1651 O   0  0  0  0  0  0  0  0  0  0  0  0
  1  4  1  0
  2 14  1  0
  3 15  1  0
  5  4  1  0
  5  6  1  0
  6  2  1  0
  7  2  1  0
  7  8  1  0
  9 10  2  0
 11 12  2  0
 13  8  2  0
 14  3  1  0
 16 17  2  0
 17 28  1  0
 18 28  1  0
 18 19  1  0
 19 20  1  0
 20 21  1  0
 21 22  1  0
 22 18  1  0
 23 24  2  0
 25 15  2  0
  4 26  2  0
  8  9  1  0
 10 11  1  0
 12 13  1  0
 14 27  2  0
 15 16  1  0
 17 23  1  0
 24 25  1  0
M  END
>  <rmsd>  (431) 
0.242090374

$$$$
MolPort-016-617-167 65451904 CSSS00159537219 MCULE-6098239325 PubChem-50972509 ZINC000065451904 ZINC65451904
     RDKit          3D

 23 24  0  0  0  0  0  0  0  0999 V2000
   12.9089   44.8112    3.6827 C   0  0  0  0  0  0  0  0  0  0  0  0
   13.8822   44.3479    4.7051 C   0  0  0  0  0  0  0  0  0  0  0  0
   14.3257   42.7409    6.6440 C   0  0  0  0  0  0  0  0  0  0  0  0
   13.8788   41.7174    7.4762 C   0  0  0  0  0  0  0  0  0  0  0  0
   16.2390   42.5028    7.9824 C   0  0  0  0  0  0  0  0  0  0  0  0
   15.6293   43.1807    6.9311 C   0  0  0  0  0  0  0  0  0  0  0  0
   12.5820   41.0067    7.3730 C   0  0  0  0  0  0  0  0  0  0  0  0
   12.4165   40.5725    9.8661 C   0  0  0  0  0  0  0  0  0  0  0  0
   13.0248   39.3318   10.4326 C   0  0  0  0  0  0  0  0  0  0  0  0
   13.5078   39.3350   11.6703 C   0  0  0  0  0  0  0  0  0  0  0  0
   10.8151   39.4644    8.3017 C   0  0  0  0  0  0  0  0  0  0  0  0
    9.5749   40.2593    8.0204 C   0  0  0  0  0  0  0  0  0  0  0  0
    8.8804   40.1245    6.8022 C   0  0  0  0  0  0  0  0  0  0  0  0
    9.3448   39.1882    5.7382 C   0  0  0  0  0  0  0  0  0  0  0  0
    7.7231   40.8766    6.5754 C   0  0  0  0  0  0  0  0  0  0  0  0
    7.2502   41.7556    7.5531 C   0  0  0  0  0  0  0  0  0  0  0  0
    7.9318   41.8843    8.7653 C   0  0  0  0  0  0  0  0  0  0  0  0
    9.0888   41.1366    8.9987 C   0  0  0  0  0  0  0  0  0  0  0  0
   15.0194   44.8856    4.7643 O   0  0  0  0  0  0  0  0  0  0  0  0
   11.9992   40.9878    6.2550 O   0  0  0  0  0  0  0  0  0  0  0  0
   13.5085   43.2975    5.6039 N   0  0  0  0  0  0  0  0  0  0  0  0
   11.9696   40.3403    8.4976 N   0  0  0  0  0  0  0  0  0  0  0  0
   15.1339   41.3624    8.5359 S   0  0  0  0  0  0  0  0  0  0  0  0
  1  2  1  0
  2 21  1  0
  4 23  1  0
  4  7  1  0
  5 23  1  0
  6  3  1  0
  7 22  1  0
  8 22  1  0
  8  9  1  0
 11 22  1  0
 11 12  1  0
 13 15  2  0
 14 13  1  0
 16 17  2  0
 18 12  2  0
 21  3  1  0
  2 19  2  0
  3  4  2  0
  5  6  2  0
  7 20  2  0
  9 10  2  0
 12 13  1  0
 15 16  1  0
 17 18  1  0
M  END
>  <rmsd>  (432) 
0.242088541

$$$$
MolPort-005-066-391 12445768 CHEMBL1727965 CSSS00159486971 MCULE-5230718867 ZINC000012445768
     RDKit          3D

 26 29  0  0  0  0  0  0  0  0999 V2000
   15.0369   44.8996    4.8199 O   0  0  0  0  0  0  0  0  0  0  0  0
   13.8725   44.4218    4.7373 C   0  0  0  0  0  0  0  0  0  0  0  0
   14.3270   42.6279    6.4933 C   0  0  0  0  0  0  0  0  0  0  0  0
   15.6418   42.9317    6.7932 C   0  0  0  0  0  0  0  0  0  0  0  0
   15.9778   41.9883    7.7587 C   0  0  0  0  0  0  0  0  0  0  0  0
   12.6024   40.9681    7.1993 C   0  0  0  0  0  0  0  0  0  0  0  0
   12.6970   39.5217    6.6991 C   0  0  0  0  0  0  0  0  0  0  0  0
   12.7299   38.5431    7.8700 C   0  0  0  0  0  0  0  0  0  0  0  0
   11.7415   38.0598   10.0148 C   0  0  0  0  0  0  0  0  0  0  0  0
   12.7000   38.8629   10.8495 C   0  0  0  0  0  0  0  0  0  0  0  0
   13.5710   40.0921   12.4063 C   0  0  0  0  0  0  0  0  0  0  0  0
   12.3701   39.5270   12.0115 C   0  0  0  0  0  0  0  0  0  0  0  0
   10.9112   39.9750    8.7888 C   0  0  0  0  0  0  0  0  0  0  0  0
   11.9353   41.0910    8.5735 C   0  0  0  0  0  0  0  0  0  0  0  0
   12.9008   45.0172    3.8032 C   0  0  0  0  0  0  0  0  0  0  0  0
   13.2622   46.1128    3.0046 C   0  0  0  0  0  0  0  0  0  0  0  0
   12.3393   46.6769    2.1188 C   0  0  0  0  0  0  0  0  0  0  0  0
   11.0485   46.1498    2.0250 C   0  0  0  0  0  0  0  0  0  0  0  0
   10.6803   45.0587    2.8168 C   0  0  0  0  0  0  0  0  0  0  0  0
   11.6030   44.4946    3.7025 C   0  0  0  0  0  0  0  0  0  0  0  0
   13.4877   43.3022    5.5468 N   0  0  0  0  0  0  0  0  0  0  0  0
   14.9188   41.1872    8.0019 N   0  0  0  0  0  0  0  0  0  0  0  0
   13.9234   41.5840    7.2294 N   0  0  0  0  0  0  0  0  0  0  0  0
   11.5030   38.6255    8.6812 N   0  0  0  0  0  0  0  0  0  0  0  0
   14.0049   39.0108   10.5727 N   0  0  0  0  0  0  0  0  0  0  0  0
   14.5329   39.7634   11.5213 N   0  0  0  0  0  0  0  0  0  0  0  0
  2 21  1  0
  2 15  1  0
  4  5  1  0
  6 23  1  0
  6  7  1  0
  7  8  1  0
  8 24  1  0
  9 24  1  0
  9 10  1  0
 12 10  1  0
 13 24  1  0
 13 14  1  0
 14  6  1  0
 16 17  2  0
 18 19  2  0
 20 15  2  0
 21  3  1  0
 23 22  1  0
 23  3  1  0
 26 25  1  0
 26 11  1  0
  2  1  2  0
  3  4  2  0
  5 22  2  0
 10 25  2  0
 11 12  2  0
 15 16  1  0
 17 18  1  0
 19 20  1  0
M  END
>  <rmsd>  (433) 
0.242060587

$$$$
MolPort-046-673-186 MCULE-6479049078 PubChem-146048598
     RDKit          3D

 30 33  0  0  0  0  0  0  0  0999 V2000
   13.5200   39.3701   11.3511 C   0  0  0  0  0  0  0  0  0  0  0  0
   14.3589   39.2706   10.0913 C   0  0  1  0  0  0  0  0  0  0  0  0
   14.5615   37.8431    9.7082 C   0  0  0  0  0  0  0  0  0  0  0  0
   14.3438   41.0101    8.3306 C   0  0  0  0  0  0  0  0  0  0  0  0
   13.6428   41.6488    7.3024 C   0  0  0  0  0  0  0  0  0  0  0  0
   14.2302   42.6902    6.5756 C   0  0  0  0  0  0  0  0  0  0  0  0
   13.8985   44.3881    4.6827 C   0  0  0  0  0  0  0  0  0  0  0  0
   13.3727   45.9333    2.8371 C   0  0  0  0  0  0  0  0  0  0  0  0
   12.2285   46.2622    1.8776 C   0  0  0  0  0  0  0  0  0  0  0  0
   10.9580   46.5808    2.6202 C   0  0  0  0  0  0  0  0  0  0  0  0
    9.9525   45.6817    2.3125 C   0  0  0  0  0  0  0  0  0  0  0  0
    8.6803   45.7769    2.8741 C   0  0  0  0  0  0  0  0  0  0  0  0
    8.4363   46.8260    3.7746 C   0  0  0  0  0  0  0  0  0  0  0  0
    9.4533   47.7486    4.0896 C   0  0  0  0  0  0  0  0  0  0  0  0
   10.7273   47.6318    3.5093 C   0  0  0  0  0  0  0  0  0  0  0  0
   10.4734   44.7255    1.3635 C   0  0  0  0  0  0  0  0  0  0  0  0
   11.7925   45.0488    1.1000 C   0  0  0  0  0  0  0  0  0  0  0  0
   12.5451   44.2948    0.1980 C   0  0  0  0  0  0  0  0  0  0  0  0
   11.9332   43.1960   -0.4279 C   0  0  0  0  0  0  0  0  0  0  0  0
   10.5909   42.8706   -0.1504 C   0  0  0  0  0  0  0  0  0  0  0  0
    9.8438   43.6411    0.7547 C   0  0  0  0  0  0  0  0  0  0  0  0
   15.5375   43.0924    6.8874 C   0  0  0  0  0  0  0  0  0  0  0  0
   16.2456   42.4604    7.9124 C   0  0  0  0  0  0  0  0  0  0  0  0
   15.6515   41.4218    8.6329 C   0  0  0  0  0  0  0  0  0  0  0  0
   15.8441   37.3129    9.6876 O   0  0  0  0  0  0  0  0  0  0  0  0
   13.5796   37.1186    9.3957 O   0  0  0  0  0  0  0  0  0  0  0  0
   13.7212   39.9737    9.0321 O   0  0  0  0  0  0  0  0  0  0  0  0
   13.0188   44.8698    3.7147 O   0  0  0  0  0  0  0  0  0  0  0  0
   15.0481   44.8927    4.8051 O   0  0  0  0  0  0  0  0  0  0  0  0
   13.4719   43.3144    5.5305 N   0  0  0  0  0  0  0  0  0  0  0  0
  2  1  1  1
  2  3  1  0
  2 27  1  0
  3 25  1  0
  4 27  1  0
  5  6  2  0
  6 30  1  0
  7 28  1  0
  8 28  1  0
  8  9  1  0
  9 10  1  0
  9 17  1  0
 10 11  2  0
 11 16  1  0
 12 13  2  0
 14 15  2  0
 17 18  2  0
 19 20  2  0
 21 16  2  0
 22 23  2  0
 24  4  2  0
 30  7  1  0
  3 26  2  0
  4  5  1  0
  6 22  1  0
  7 29  2  0
 11 12  1  0
 13 14  1  0
 15 10  1  0
 16 17  1  0
 18 19  1  0
 20 21  1  0
 23 24  1  0
M  END
>  <rmsd>  (434) 
0.242049977

$$$$
Molport-020-292-510 MCULE-9265781753
     RDKit          3D

 33 37  0  0  0  0  0  0  0  0999 V2000
   13.8005   35.9793    8.1902 C   0  0  0  0  0  0  0  0  0  0  0  0
   13.8120   34.6860    7.6940 C   0  0  0  0  0  0  0  0  0  0  0  0
   13.9315   33.4059    8.4731 C   0  0  0  0  0  0  0  0  0  0  0  0
   13.3270   32.2319    7.7109 C   0  0  0  0  0  0  0  0  0  0  0  0
   14.2876   31.6473    6.6677 C   0  0  0  0  0  0  0  0  0  0  0  0
   14.9437   32.6771    5.7387 C   0  0  0  0  0  0  0  0  0  0  0  0
   13.9688   33.7628    5.2942 C   0  0  0  0  0  0  0  0  0  0  0  0
   13.9003   34.8491    6.3222 C   0  0  0  0  0  0  0  0  0  0  0  0
   13.7463   36.3797    9.6175 C   0  0  0  0  0  0  0  0  0  0  0  0
   13.7673   38.0937   11.4493 C   0  0  0  0  0  0  0  0  0  0  0  0
   13.0040   39.4081   11.5912 C   0  0  0  0  0  0  0  0  0  0  0  0
   13.6723   40.4991   10.7581 C   0  0  0  0  0  0  0  0  0  0  0  0
   13.7329   40.0725    9.2925 C   0  0  2  0  0  0  0  0  0  0  0  0
   14.4971   38.7570    9.1546 C   0  0  0  0  0  0  0  0  0  0  0  0
   14.3651   41.1350    8.4558 C   0  0  0  0  0  0  0  0  0  0  0  0
   13.6330   41.7177    7.4185 C   0  0  0  0  0  0  0  0  0  0  0  0
   14.2232   42.7015    6.6211 C   0  0  0  0  0  0  0  0  0  0  0  0
   15.5491   43.0809    6.8743 C   0  0  0  0  0  0  0  0  0  0  0  0
   16.2519   42.4783    7.9191 C   0  0  0  0  0  0  0  0  0  0  0  0
   17.6577   42.8760    8.1948 C   0  0  0  0  0  0  0  0  0  0  0  0
   13.8511   44.3278    4.6591 C   0  0  0  0  0  0  0  0  0  0  0  0
   12.9723   44.7503    3.6471 C   0  0  0  0  0  0  0  0  0  0  0  0
   13.3681   45.7701    2.7782 C   0  0  0  0  0  0  0  0  0  0  0  0
   14.6249   46.3598    2.9192 C   0  0  0  0  0  0  0  0  0  0  0  0
   15.4731   45.9173    3.9353 C   0  0  0  0  0  0  0  0  0  0  0  0
   11.6263   44.1323    3.4789 C   0  0  0  0  0  0  0  0  0  0  0  0
   13.9092   36.1609    6.0233 N   0  0  0  0  0  0  0  0  0  0  0  0
   13.8443   36.8464    7.1562 N   0  0  0  0  0  0  0  0  0  0  0  0
   13.9104   37.7490   10.0357 N   0  0  0  0  0  0  0  0  0  0  0  0
   15.6520   41.5256    8.6821 N   0  0  0  0  0  0  0  0  0  0  0  0
   13.4505   43.2831    5.5609 N   0  0  0  0  0  0  0  0  0  0  0  0
   15.0725   44.9232    4.7735 N   0  0  0  0  0  0  0  0  0  0  0  0
   13.5341   35.4920   10.4893 O   0  0  0  0  0  0  0  0  0  0  0  0
  1  9  1  0
  3  2  1  0
  3  4  1  0
  4  5  1  0
  5  6  1  0
  6  7  1  0
  7  8  1  0
  8  2  1  0
  9 29  1  0
 10 29  1  0
 10 11  1  0
 11 12  1  0
 12 13  1  0
 13 14  1  0
 13 15  1  6
 14 29  1  0
 15 30  2  0
 16 17  2  0
 17 31  1  0
 18 19  2  0
 20 19  1  0
 21 32  2  0
 22 23  2  0
 24 25  2  0
 26 22  1  0
 28 27  1  0
 28  1  1  0
 31 21  1  0
  1  2  2  0
  8 27  2  0
  9 33  2  0
 15 16  1  0
 17 18  1  0
 19 30  1  0
 21 22  1  0
 23 24  1  0
 25 32  1  0
M  END
>  <rmsd>  (435) 
0.242043048

$$$$
MolPort-028-743-856 CSSS00160083590 MCULE-8390611716 PubChem-72939668
     RDKit          3D

 28 31  0  0  0  0  0  0  0  0999 V2000
   15.0536   44.8889    4.7963 O   0  0  0  0  0  0  0  0  0  0  0  0
   12.6277   49.0323   -0.2566 O   0  0  0  0  0  0  0  0  0  0  0  0
   15.0324   50.0500   -1.5334 O   0  0  0  0  0  0  0  0  0  0  0  0
   13.6230   40.1284    9.1707 O   0  0  0  0  0  0  0  0  0  0  0  0
   13.9151   44.3657    4.6534 C   0  0  0  0  0  0  0  0  0  0  0  0
   13.4320   45.8710    2.6925 C   0  0  0  0  0  0  0  0  0  0  0  0
   12.3091   46.1120    1.7029 C   0  0  0  0  0  0  0  0  0  0  0  0
   12.6827   47.2027    0.7602 C   0  0  0  0  0  0  0  0  0  0  0  0
   13.6254   48.3199   -0.7202 C   0  0  0  0  0  0  0  0  0  0  0  0
   14.5458   48.7630   -1.8059 C   0  0  1  0  0  0  0  0  0  0  0  0
   13.8174   48.7928   -3.1300 C   0  0  0  0  0  0  0  0  0  0  0  0
   14.3117   50.0470   -3.7846 C   0  0  0  0  0  0  0  0  0  0  0  0
   15.2969   50.6140   -2.7896 C   0  0  0  0  0  0  0  0  0  0  0  0
   14.2011   42.7384    6.6146 C   0  0  0  0  0  0  0  0  0  0  0  0
   13.5930   41.7306    7.3709 C   0  0  0  0  0  0  0  0  0  0  0  0
   14.2671   41.1337    8.4413 C   0  0  0  0  0  0  0  0  0  0  0  0
   14.2037   39.4938   10.3051 C   0  0  0  0  0  0  0  0  0  0  0  0
   14.0834   40.3929   11.5262 C   0  0  0  0  0  0  0  0  0  0  0  0
   13.0150   39.7792   12.4026 C   0  0  0  0  0  0  0  0  0  0  0  0
   13.0375   38.3059   12.0767 C   0  0  0  0  0  0  0  0  0  0  0  0
   13.4306   38.2248   10.6176 C   0  0  0  0  0  0  0  0  0  0  0  0
   15.5702   41.5517    8.7542 C   0  0  0  0  0  0  0  0  0  0  0  0
   16.1854   42.5565    8.0043 C   0  0  0  0  0  0  0  0  0  0  0  0
   15.5032   43.1479    6.9382 C   0  0  0  0  0  0  0  0  0  0  0  0
   13.0484   44.8132    3.6117 N   0  0  0  0  0  0  0  0  0  0  0  0
   12.0121   48.3668    0.6721 N   0  0  0  0  0  0  0  0  0  0  0  0
   13.7128   47.1241   -0.1080 N   0  0  0  0  0  0  0  0  0  0  0  0
   13.4696   43.3201    5.5267 N   0  0  0  0  0  0  0  0  0  0  0  0
  5 25  1  0
  5 28  1  0
  6 25  1  0
  6  7  1  0
  7  8  1  0
  8 27  1  0
  9  2  1  0
 10  9  1  1
 10 11  1  0
 10  3  1  0
 11 12  1  0
 12 13  1  0
 13  3  1  0
 15 16  2  0
 16  4  1  0
 17  4  1  0
 17 18  1  0
 18 19  1  0
 19 20  1  0
 20 21  1  0
 21 17  1  0
 22 23  2  0
 24 14  2  0
 26  2  1  0
 28 14  1  0
  5  1  2  0
  8 26  2  0
  9 27  2  0
 14 15  1  0
 16 22  1  0
 23 24  1  0
M  END
>  <rmsd>  (436) 
0.242025301

$$$$
MolPort-051-736-026
     RDKit          3D

 35 39  0  0  0  0  0  0  0  0999 V2000
   18.0775   45.3122   -4.8129 C   0  0  0  0  0  0  0  0  0  0  0  0
   17.0688   45.2809   -3.7227 C   0  0  0  0  0  0  0  0  0  0  0  0
   15.8543   46.5010   -1.8645 C   0  0  1  0  0  0  0  0  0  0  0  0
   16.3732   45.7662   -0.6589 C   0  0  0  0  0  0  0  0  0  0  0  0
   16.0194   44.2789    1.3302 C   0  0  0  0  0  0  0  0  0  0  0  0
   14.9577   43.4290    2.0299 C   0  0  0  0  0  0  0  0  0  0  0  0
   13.6380   44.2022    2.1126 C   0  0  0  0  0  0  0  0  0  0  0  0
   12.5277   43.4128    2.7610 C   0  0  0  0  0  0  0  0  0  0  0  0
   13.0746   44.6563    3.4578 C   0  0  1  0  0  0  0  0  0  0  0  0
   13.9421   44.2809    4.6218 C   0  0  0  0  0  0  0  0  0  0  0  0
   14.2281   42.8657    6.7081 C   0  0  0  0  0  0  0  0  0  0  0  0
   14.8434   41.8491    8.5120 C   0  0  0  0  0  0  0  0  0  0  0  0
   14.7985   41.0001    9.6141 C   0  0  0  0  0  0  0  0  0  0  0  0
   13.6313   40.2306    9.7882 C   0  0  0  0  0  0  0  0  0  0  0  0
   12.5594   40.3288    8.8694 C   0  0  0  0  0  0  0  0  0  0  0  0
   12.6373   41.1980    7.7645 C   0  0  0  0  0  0  0  0  0  0  0  0
   13.8059   41.9423    7.6296 C   0  0  0  0  0  0  0  0  0  0  0  0
   13.1751   45.0033    0.8993 C   0  0  0  0  0  0  0  0  0  0  0  0
   14.1035   44.7540   -0.2852 C   0  0  0  0  0  0  0  0  0  0  0  0
   15.4968   47.9130   -1.5212 C   0  0  0  0  0  0  0  0  0  0  0  0
   14.1487   48.2879   -1.4974 C   0  0  0  0  0  0  0  0  0  0  0  0
   13.7886   49.5967   -1.1634 C   0  0  0  0  0  0  0  0  0  0  0  0
   14.7762   50.5356   -0.8511 C   0  0  0  0  0  0  0  0  0  0  0  0
   16.1243   50.1658   -0.8695 C   0  0  0  0  0  0  0  0  0  0  0  0
   16.4852   48.8572   -1.2032 C   0  0  0  0  0  0  0  0  0  0  0  0
   16.4437   44.2143   -3.4817 O   0  0  0  0  0  0  0  0  0  0  0  0
   17.5754   45.9214   -0.3085 O   0  0  0  0  0  0  0  0  0  0  0  0
   15.0487   44.8629    4.7815 O   0  0  0  0  0  0  0  0  0  0  0  0
   15.8074   42.6573    8.1383 O   0  0  0  0  0  0  0  0  0  0  0  0
   16.8134   46.4636   -2.9633 N   0  0  0  0  0  0  0  0  0  0  0  0
   15.4998   44.9357    0.1221 N   0  0  0  0  0  0  0  0  0  0  0  0
   13.4840   43.3084    5.5682 N   0  0  0  0  0  0  0  0  0  0  0  0
   15.4692   43.2915    7.0448 N   0  0  0  0  0  0  0  0  0  0  0  0
   13.5055   39.1433   11.1537 Cl  0  0  0  0  0  0  0  0  0  0  0  0
   14.4264   51.8028   -0.5254 F   0  0  0  0  0  0  0  0  0  0  0  0
  1  2  1  0
  2 30  1  0
  3 30  1  6
  3  4  1  0
  3 20  1  0
  4 31  1  0
  5 31  1  0
  5  6  1  0
  6  7  1  0
  7  8  1  0
  7 18  1  0
  8  9  1  0
  9 10  1  1
  9  7  1  0
 10 32  1  0
 12 29  1  0
 13 14  2  0
 14 34  1  0
 15 16  2  0
 17 11  1  0
 17 12  2  0
 18 19  1  0
 19 31  1  0
 21 22  2  0
 23 35  1  0
 23 24  2  0
 25 20  2  0
 32 11  1  0
 33 29  1  0
  2 26  2  0
  4 27  2  0
 10 28  2  0
 11 33  2  0
 12 13  1  0
 14 15  1  0
 16 17  1  0
 20 21  1  0
 22 23  1  0
 24 25  1  0
M  END
>  <rmsd>  (437) 
0.242012709

$$$$
Molport-008-272-750 MCULE-6633283457 PubChem-46951643
     RDKit          3D

 25 28  0  0  0  0  0  0  0  0999 V2000
   13.0410   39.5116   11.8405 C   0  0  0  0  0  0  0  0  0  0  0  0
   13.2735   38.8191   10.5103 C   0  0  0  0  0  0  0  0  0  0  0  0
   14.7386   40.4737    9.3723 C   0  0  0  0  0  0  0  0  0  0  0  0
   14.8893   41.4478    8.3805 C   0  0  0  0  0  0  0  0  0  0  0  0
   16.0849   42.1394    8.2508 C   0  0  0  0  0  0  0  0  0  0  0  0
   17.1748   41.9036    9.0832 C   0  0  0  0  0  0  0  0  0  0  0  0
   17.0390   40.9280   10.0818 C   0  0  0  0  0  0  0  0  0  0  0  0
   15.8323   40.2176   10.2262 C   0  0  0  0  0  0  0  0  0  0  0  0
   14.3596   42.7662    6.6539 C   0  0  0  0  0  0  0  0  0  0  0  0
   13.8816   44.3346    4.6892 C   0  0  0  0  0  0  0  0  0  0  0  0
   12.9031   44.7522    3.6379 C   0  0  1  0  0  0  0  0  0  0  0  0
   12.6395   43.6474    2.6303 C   0  0  0  0  0  0  0  0  0  0  0  0
   13.6609   42.7911    2.1912 C   0  0  0  0  0  0  0  0  0  0  0  0
   13.3985   41.8263    1.2145 C   0  0  0  0  0  0  0  0  0  0  0  0
   12.1206   41.7230    0.6577 C   0  0  0  0  0  0  0  0  0  0  0  0
   11.1054   42.5919    1.0674 C   0  0  0  0  0  0  0  0  0  0  0  0
   11.3642   43.5644    2.0379 C   0  0  0  0  0  0  0  0  0  0  0  0
   10.2700   44.4955    2.4686 C   0  0  0  0  0  0  0  0  0  0  0  0
   10.8617   45.6698    3.2492 C   0  0  0  0  0  0  0  0  0  0  0  0
   13.5280   39.7795    9.4906 O   0  0  0  0  0  0  0  0  0  0  0  0
   15.0071   44.8967    4.7361 O   0  0  0  0  0  0  0  0  0  0  0  0
   11.7094   45.1810    4.2591 O   0  0  0  0  0  0  0  0  0  0  0  0
   15.9591   43.2312    6.9842 S   0  0  0  0  0  0  0  0  0  0  0  0
   13.9236   41.7942    7.4905 N   0  0  0  0  0  0  0  0  0  0  0  0
   13.5276   43.3016    5.6181 N   0  0  0  0  0  0  0  0  0  0  0  0
  1  2  1  0
  2 20  1  0
  3 20  1  0
  4  5  2  0
  4 24  1  0
  5 23  1  0
  6  7  2  0
  8  3  2  0
  9 23  1  0
  9 25  1  0
 11 10  1  1
 11 12  1  0
 11 22  1  0
 13 14  2  0
 15 16  2  0
 17 12  2  0
 18 17  1  0
 18 19  1  0
 19 22  1  0
 25 10  1  0
  3  4  1  0
  5  6  1  0
  7  8  1  0
  9 24  2  0
 10 21  2  0
 12 13  1  0
 14 15  1  0
 16 17  1  0
M  END
>  <rmsd>  (438) 
0.241997495

$$$$
MolPort-010-777-188 MolPort-047-912-736 ChemDiv-G889-0544 MCULE-1618328952 MCULE-8804797512 PubChem-163337550 PubChem-50807320 ZINC000046053479
     RDKit          3D

 26 27  0  0  0  0  0  0  0  0999 V2000
   12.9485   39.7060   11.5398 C   0  0  0  0  0  0  0  0  0  0  0  0
   14.1666   38.9789   11.0025 C   0  0  0  0  0  0  0  0  0  0  0  0
   15.4318   39.5000   11.6653 C   0  0  0  0  0  0  0  0  0  0  0  0
   15.8080   40.8830   11.1436 C   0  0  0  0  0  0  0  0  0  0  0  0
   17.5361   40.0881    9.4872 C   0  0  0  0  0  0  0  0  0  0  0  0
   17.2481   38.8801    8.6147 C   0  0  0  0  0  0  0  0  0  0  0  0
   15.6063   41.5177    8.7343 C   0  0  0  0  0  0  0  0  0  0  0  0
   16.2060   42.5800    8.0104 C   0  0  0  0  0  0  0  0  0  0  0  0
   15.4975   43.1626    6.9502 C   0  0  0  0  0  0  0  0  0  0  0  0
   14.2100   42.7295    6.6092 C   0  0  0  0  0  0  0  0  0  0  0  0
   13.9048   44.3747    4.6610 C   0  0  0  0  0  0  0  0  0  0  0  0
   13.0147   44.8791    3.5892 C   0  0  0  0  0  0  0  0  0  0  0  0
   11.7199   44.3569    3.3735 C   0  0  0  0  0  0  0  0  0  0  0  0
   10.9193   44.8686    2.3472 C   0  0  0  0  0  0  0  0  0  0  0  0
   11.3907   45.8968    1.5292 C   0  0  0  0  0  0  0  0  0  0  0  0
   12.6680   46.4195    1.7340 C   0  0  0  0  0  0  0  0  0  0  0  0
   13.4731   45.9134    2.7569 C   0  0  0  0  0  0  0  0  0  0  0  0
   13.6191   41.7037    7.3469 C   0  0  0  0  0  0  0  0  0  0  0  0
   14.3116   41.1019    8.3972 C   0  0  0  0  0  0  0  0  0  0  0  0
   17.5282   43.1506    8.3490 C   0  0  0  0  0  0  0  0  0  0  0  0
   16.3020   40.8134    9.7731 N   0  0  0  0  0  0  0  0  0  0  0  0
   13.4706   43.3178    5.5305 N   0  0  0  0  0  0  0  0  0  0  0  0
   15.0507   44.8827    4.8030 O   0  0  0  0  0  0  0  0  0  0  0  0
   18.1940   43.9508    7.4274 O   0  0  0  0  0  0  0  0  0  0  0  0
   18.0473   42.9637    9.4807 O   0  0  0  0  0  0  0  0  0  0  0  0
   11.2200   43.3584    4.1428 F   0  0  0  0  0  0  0  0  0  0  0  0
  1  2  1  0
  2  3  1  0
  3  4  1  0
  4 21  1  0
  5 21  1  0
  5  6  1  0
  8  9  2  0
  8 20  1  0
 10 22  1  0
 10 18  2  0
 11 12  1  0
 13 26  1  0
 13 14  2  0
 15 16  2  0
 17 12  2  0
 19  7  2  0
 20 24  1  0
 21  7  1  0
 22 11  1  0
  7  8  1  0
  9 10  1  0
 11 23  2  0
 12 13  1  0
 14 15  1  0
 16 17  1  0
 18 19  1  0
 20 25  2  0
M  END
>  <rmsd>  (439) 
0.241996333

$$$$
Molport-052-054-894
     RDKit          3D

 25 27  0  0  0  0  0  0  0  0999 V2000
   12.3770   42.0243   10.3089 C   0  0  0  0  0  0  0  0  0  0  0  0
   13.7066   41.2848   10.0451 C   0  0  2  0  0  0  0  0  0  0  0  0
   13.3999   39.2465   11.3804 C   0  0  0  0  0  0  0  0  0  0  0  0
   12.5373   39.3022    9.0988 C   0  0  0  0  0  0  0  0  0  0  0  0
   12.9023   37.9305    8.6213 C   0  0  0  0  0  0  0  0  0  0  0  0
   12.2363   36.7765    9.0281 C   0  0  0  0  0  0  0  0  0  0  0  0
   14.1218   36.4178    7.4975 C   0  0  0  0  0  0  0  0  0  0  0  0
   15.1460   35.9061    6.5436 C   0  0  0  0  0  0  0  0  0  0  0  0
   14.3825   41.7507    8.7792 C   0  0  0  0  0  0  0  0  0  0  0  0
   14.2588   42.7057    6.6085 C   0  0  0  0  0  0  0  0  0  0  0  0
   13.9083   44.2618    4.6373 C   0  0  0  0  0  0  0  0  0  0  0  0
   15.2335   45.8508    3.7694 C   0  0  0  0  0  0  0  0  0  0  0  0
   14.1798   45.9152    2.8650 C   0  0  0  0  0  0  0  0  0  0  0  0
   14.1070   46.8136    1.6765 C   0  0  0  0  0  0  0  0  0  0  0  0
   15.6302   42.4752    6.4298 C   0  0  0  0  0  0  0  0  0  0  0  0
   16.3542   41.8908    7.4733 C   0  0  0  0  0  0  0  0  0  0  0  0
   17.8115   41.5952    7.3131 C   0  0  0  0  0  0  0  0  0  0  0  0
   13.5741   39.8047   10.0267 N   0  0  0  0  0  0  0  0  0  0  0  0
   13.9445   37.7280    7.7698 N   0  0  0  0  0  0  0  0  0  0  0  0
   13.6676   42.3189    7.7696 N   0  0  0  0  0  0  0  0  0  0  0  0
   13.4483   43.2758    5.5704 N   0  0  0  0  0  0  0  0  0  0  0  0
   15.0738   44.9361    4.7619 N   0  0  0  0  0  0  0  0  0  0  0  0
   15.7143   41.5316    8.6168 N   0  0  0  0  0  0  0  0  0  0  0  0
   12.9800   35.4659    8.2821 S   0  0  0  0  0  0  0  0  0  0  0  0
   13.0143   44.7862    3.3118 S   0  0  0  0  0  0  0  0  0  0  0  0
  2  1  1  6
  2 18  1  0
  2  9  1  0
  3 18  1  0
  4 18  1  0
  4  5  1  0
  5 19  1  0
  6 24  1  0
  7 24  1  0
  8  7  1  0
  9 23  2  0
 10 20  2  0
 10 21  1  0
 11 25  1  0
 12 22  1  0
 13 25  1  0
 14 13  1  0
 15 16  2  0
 17 16  1  0
 21 11  1  0
  5  6  2  0
  7 19  2  0
  9 20  1  0
 10 15  1  0
 11 22  2  0
 12 13  2  0
 16 23  1  0
M  END
>  <rmsd>  (440) 
0.241975456

$$$$
Molport-047-879-298 PubChem-165936795
     RDKit          3D

 29 31  0  0  0  0  0  0  0  0999 V2000
   15.0388   45.3075   11.8788 C   0  0  0  0  0  0  0  0  0  0  0  0
   16.1484   44.3390   12.2528 C   0  0  0  0  0  0  0  0  0  0  0  0
   17.3852   45.1102   12.6805 C   0  0  0  0  0  0  0  0  0  0  0  0
   15.6771   43.5017   13.4227 C   0  0  0  0  0  0  0  0  0  0  0  0
   16.9100   43.8905    9.9071 C   0  0  0  0  0  0  0  0  0  0  0  0
   17.1079   42.8845    8.8278 C   0  0  0  0  0  0  0  0  0  0  0  0
   14.8599   41.8246    8.5067 C   0  0  0  0  0  0  0  0  0  0  0  0
   13.8268   41.9285    7.6182 C   0  0  0  0  0  0  0  0  0  0  0  0
   12.6492   41.1986    7.7527 C   0  0  0  0  0  0  0  0  0  0  0  0
   12.5563   40.3318    8.8582 C   0  0  0  0  0  0  0  0  0  0  0  0
   13.6215   40.2225    9.7827 C   0  0  0  0  0  0  0  0  0  0  0  0
   14.7979   40.9784    9.6136 C   0  0  0  0  0  0  0  0  0  0  0  0
   14.2460   42.8613    6.6967 C   0  0  0  0  0  0  0  0  0  0  0  0
   13.9282   44.3015    4.6329 C   0  0  0  0  0  0  0  0  0  0  0  0
   13.4698   45.5796    2.5654 C   0  0  0  0  0  0  0  0  0  0  0  0
   14.3931   44.9510    1.5776 C   0  0  0  0  0  0  0  0  0  0  0  0
   13.8974   44.0511    0.6273 C   0  0  0  0  0  0  0  0  0  0  0  0
   14.7652   43.4569   -0.2935 C   0  0  0  0  0  0  0  0  0  0  0  0
   16.1300   43.7596   -0.2629 C   0  0  0  0  0  0  0  0  0  0  0  0
   16.6270   44.6559    0.6885 C   0  0  0  0  0  0  0  0  0  0  0  0
   15.7592   45.2506    1.6087 C   0  0  0  0  0  0  0  0  0  0  0  0
   16.4475   43.4676   11.1604 O   0  0  0  0  0  0  0  0  0  0  0  0
   17.1224   45.1089    9.6663 O   0  0  0  0  0  0  0  0  0  0  0  0
   15.0469   44.8674    4.7742 O   0  0  0  0  0  0  0  0  0  0  0  0
   13.0942   44.6387    3.5644 O   0  0  0  0  0  0  0  0  0  0  0  0
   15.8520   42.6528    8.1301 N   0  0  0  0  0  0  0  0  0  0  0  0
   15.4852   43.2990    7.0282 N   0  0  0  0  0  0  0  0  0  0  0  0
   13.4892   43.3120    5.5681 N   0  0  0  0  0  0  0  0  0  0  0  0
   13.4594   39.0469   11.2740 Br  0  0  0  0  0  0  0  0  0  0  0  0
  1  2  1  0
  2  3  1  0
  2  4  1  0
  2 22  1  0
  5 22  1  0
  6  5  1  0
  6 26  1  0
  8  9  2  0
  8 13  1  0
 10 11  2  0
 11 29  1  0
 12  7  2  0
 13 28  1  0
 14 25  1  0
 15 25  1  0
 15 16  1  0
 17 18  2  0
 19 20  2  0
 21 16  2  0
 26  7  1  0
 26 27  1  0
 28 14  1  0
  5 23  2  0
  7  8  1  0
  9 10  1  0
 11 12  1  0
 13 27  2  0
 14 24  2  0
 16 17  1  0
 18 19  1  0
 20 21  1  0
M  END
>  <rmsd>  (441) 
0.241923824

$$$$
MolPort-039-225-444 299801012 CSSS00159918082 MCULE-9136281289 PubChem-118789576 ZINC000299801012
     RDKit          3D

 28 31  0  0  0  0  0  0  0  0999 V2000
   14.6150   50.4552    5.2211 O   0  0  0  0  0  0  0  0  0  0  0  0
   10.4937   46.2665    2.8556 O   0  0  0  0  0  0  0  0  0  0  0  0
   15.0534   44.8856    4.7943 O   0  0  0  0  0  0  0  0  0  0  0  0
   13.6544   40.1084    9.1531 O   0  0  0  0  0  0  0  0  0  0  0  0
   13.8564   50.7095    4.0780 C   0  0  0  0  0  0  0  0  0  0  0  0
   13.0026   49.5314    3.7606 C   0  0  0  0  0  0  0  0  0  0  0  0
   13.5844   48.3095    3.4114 C   0  0  0  0  0  0  0  0  0  0  0  0
   12.7856   47.2032    3.1043 C   0  0  0  0  0  0  0  0  0  0  0  0
   11.3731   47.3247    3.1394 C   0  0  0  0  0  0  0  0  0  0  0  0
   10.8819   44.9723    2.4032 C   0  0  0  0  0  0  0  0  0  0  0  0
   11.7071   44.2549    3.4665 C   0  0  0  0  0  0  0  0  0  0  0  0
   13.4782   45.9299    2.7415 C   0  0  0  0  0  0  0  0  0  0  0  0
   13.9093   44.3731    4.6551 C   0  0  0  0  0  0  0  0  0  0  0  0
   14.2018   42.7511    6.6243 C   0  0  0  0  0  0  0  0  0  0  0  0
   13.6100   41.7208    7.3629 C   0  0  0  0  0  0  0  0  0  0  0  0
   14.2815   41.1373    8.4421 C   0  0  0  0  0  0  0  0  0  0  0  0
   14.2279   39.4911   10.3007 C   0  0  0  0  0  0  0  0  0  0  0  0
   13.4867   38.1984   10.5946 C   0  0  0  0  0  0  0  0  0  0  0  0
   13.0239   38.2798   12.0334 C   0  0  0  0  0  0  0  0  0  0  0  0
   12.9554   39.7539   12.3494 C   0  0  0  0  0  0  0  0  0  0  0  0
   14.0491   40.3846   11.5182 C   0  0  0  0  0  0  0  0  0  0  0  0
   15.5652   41.5926    8.7827 C   0  0  0  0  0  0  0  0  0  0  0  0
   16.1636   42.6207    8.0509 C   0  0  0  0  0  0  0  0  0  0  0  0
   15.4842   43.1982    6.9758 C   0  0  0  0  0  0  0  0  0  0  0  0
   10.8064   48.5559    3.4888 C   0  0  0  0  0  0  0  0  0  0  0  0
   11.6132   49.6535    3.7958 C   0  0  0  0  0  0  0  0  0  0  0  0
   13.0391   44.8446    3.6163 N   0  0  0  0  0  0  0  0  0  0  0  0
   13.4716   43.3212    5.5295 N   0  0  0  0  0  0  0  0  0  0  0  0
  5  1  1  0
  5  6  1  0
  7  8  2  0
  9  2  1  0
  9 25  2  0
 10  2  1  0
 10 11  1  0
 11 27  1  0
 12 27  1  0
 12  8  1  0
 13 28  1  0
 15 16  2  0
 16  4  1  0
 17  4  1  0
 17 18  1  0
 18 19  1  0
 19 20  1  0
 20 21  1  0
 21 17  1  0
 22 23  2  0
 24 14  2  0
 26  6  2  0
 27 13  1  0
 28 14  1  0
  6  7  1  0
  8  9  1  0
 13  3  2  0
 14 15  1  0
 16 22  1  0
 23 24  1  0
 25 26  1  0
M  END
>  <rmsd>  (442) 
0.241863549

$$$$
MolPort-010-722-898 21721278 ChemDiv-J015-0289 MCULE-1637542318 PubChem-22587065 ZINC000021721278 ZINC21721278
     RDKit          3D

 24 26  0  0  0  0  0  0  0  0999 V2000
   13.3412   39.2413   11.2157 C   0  0  0  0  0  0  0  0  0  0  0  0
   13.8764   40.0191    9.2220 C   0  0  0  0  0  0  0  0  0  0  0  0
   14.4680   41.1352    8.4331 C   0  0  0  0  0  0  0  0  0  0  0  0
   15.7559   41.6003    8.7212 C   0  0  0  0  0  0  0  0  0  0  0  0
   16.3074   42.6410    7.9697 C   0  0  0  0  0  0  0  0  0  0  0  0
   15.5732   43.2150    6.9281 C   0  0  0  0  0  0  0  0  0  0  0  0
   14.2826   42.7511    6.6294 C   0  0  0  0  0  0  0  0  0  0  0  0
   13.8832   44.3705    4.6761 C   0  0  0  0  0  0  0  0  0  0  0  0
   12.9119   44.8310    3.6564 C   0  0  0  0  0  0  0  0  0  0  0  0
   10.7078   44.5740    2.7575 C   0  0  0  0  0  0  0  0  0  0  0  0
   10.9543   45.5714    1.8108 C   0  0  0  0  0  0  0  0  0  0  0  0
   12.1953   46.2016    1.7908 C   0  0  0  0  0  0  0  0  0  0  0  0
   13.1877   45.8453    2.7057 C   0  0  0  0  0  0  0  0  0  0  0  0
    9.0717   42.9251    3.6424 C   0  0  0  0  0  0  0  0  0  0  0  0
    8.3682   44.1245    2.0182 C   0  0  0  0  0  0  0  0  0  0  0  0
   13.7376   41.7089    7.3876 C   0  0  0  0  0  0  0  0  0  0  0  0
   13.7066   40.4108   10.5505 O   0  0  0  0  0  0  0  0  0  0  0  0
   15.0267   44.8895    4.7665 O   0  0  0  0  0  0  0  0  0  0  0  0
   13.4978   43.3148    5.5698 N   0  0  0  0  0  0  0  0  0  0  0  0
   11.6848   44.2369    3.6430 N   0  0  0  0  0  0  0  0  0  0  0  0
    9.4404   43.9067    2.8010 N   0  0  0  0  0  0  0  0  0  0  0  0
    7.8053   42.5519    3.3800 N   0  0  0  0  0  0  0  0  0  0  0  0
    7.3693   43.2953    2.3735 N   0  0  0  0  0  0  0  0  0  0  0  0
   14.8513   46.7878    2.5655 Br  0  0  0  0  0  0  0  0  0  0  0  0
  1 17  1  0
  2 17  1  0
  2  3  1  0
  4  5  2  0
  6  7  2  0
  7 19  1  0
  8  9  1  0
 10 20  2  0
 10 21  1  0
 11 12  2  0
 13 24  1  0
 13  9  2  0
 15 21  1  0
 16  3  2  0
 19  8  1  0
 21 14  1  0
 22 23  1  0
  3  4  1  0
  5  6  1  0
  7 16  1  0
  8 18  2  0
  9 20  1  0
 10 11  1  0
 12 13  1  0
 14 22  2  0
 15 23  2  0
M  END
>  <rmsd>  (443) 
0.241809919

$$$$
MolPort-045-962-912 952985915 CSSS00160227687 MCULE-2269726237 PubChem-131937921 ZINC000952985915
     RDKit          3D

 28 30  0  0  0  0  0  0  0  0999 V2000
   12.8528   45.5971    1.4709 C   0  0  0  0  0  0  0  0  0  0  0  0
   13.1238   44.5169    3.3761 C   0  0  0  0  0  0  0  0  0  0  0  0
   13.9580   44.2544    4.5880 C   0  0  0  0  0  0  0  0  0  0  0  0
   14.2665   42.7735    6.6355 C   0  0  0  0  0  0  0  0  0  0  0  0
   13.6488   42.6050    7.8787 C   0  0  0  0  0  0  0  0  0  0  0  0
   14.3554   42.0696    8.9562 C   0  0  0  0  0  0  0  0  0  0  0  0
   15.6894   41.6734    8.7990 C   0  0  0  0  0  0  0  0  0  0  0  0
   15.9249   40.6454   11.1284 C   0  0  0  0  0  0  0  0  0  0  0  0
   14.6242   39.9368   11.1867 C   0  0  0  0  0  0  0  0  0  0  0  0
   14.2498   39.1273   10.1023 C   0  0  0  0  0  0  0  0  0  0  0  0
   13.0427   38.4287   10.1222 C   0  0  0  0  0  0  0  0  0  0  0  0
   12.2073   38.5046   11.2419 C   0  0  0  0  0  0  0  0  0  0  0  0
   10.7909   36.7313   10.2972 C   0  0  0  0  0  0  0  0  0  0  0  0
   11.3111   37.1597    8.9231 C   0  0  0  0  0  0  0  0  0  0  0  0
   12.5600   39.3114   12.3238 C   0  0  0  0  0  0  0  0  0  0  0  0
   13.7625   40.0272   12.3071 C   0  0  0  0  0  0  0  0  0  0  0  0
   14.0738   40.8952   13.4796 C   0  0  0  0  0  0  0  0  0  0  0  0
   16.3062   41.8249    7.5554 C   0  0  0  0  0  0  0  0  0  0  0  0
   15.6038   42.3561    6.4603 C   0  0  0  0  0  0  0  0  0  0  0  0
   17.5461   42.0334    4.9558 C   0  0  0  0  0  0  0  0  0  0  0  0
   13.7260   45.4681    2.5498 O   0  0  0  0  0  0  0  0  0  0  0  0
   15.0355   44.8839    4.7722 O   0  0  0  0  0  0  0  0  0  0  0  0
   16.6269   40.7428   12.1695 O   0  0  0  0  0  0  0  0  0  0  0  0
   11.0216   37.7649   11.2572 O   0  0  0  0  0  0  0  0  0  0  0  0
   12.6505   37.6476    9.0316 O   0  0  0  0  0  0  0  0  0  0  0  0
   16.2073   42.4427    5.2005 O   0  0  0  0  0  0  0  0  0  0  0  0
   13.4883   43.3158    5.5606 N   0  0  0  0  0  0  0  0  0  0  0  0
   16.4532   41.1569    9.8963 N   0  0  0  0  0  0  0  0  0  0  0  0
  1 21  1  0
  2 21  1  0
  2  3  1  0
  3 27  1  0
  5  6  2  0
  7 28  1  0
  7 18  2  0
  8  9  1  0
 10 11  2  0
 11 25  1  0
 12 24  1  0
 12 15  2  0
 13 24  1  0
 13 14  1  0
 14 25  1  0
 16  9  2  0
 17 16  1  0
 19 26  1  0
 19  4  2  0
 20 26  1  0
 27  4  1  0
 28  8  1  0
  3 22  2  0
  4  5  1  0
  6  7  1  0
  8 23  2  0
  9 10  1  0
 11 12  1  0
 15 16  1  0
 18 19  1  0
M  END
>  <rmsd>  (444) 
0.241809025

$$$$
MolPort-003-131-707 4496623 CSSS03437127437 MCULE-1324457230 PubChem-7254686 ZINC000004496623
     RDKit          3D

 23 25  0  0  0  0  0  0  0  0999 V2000
   14.3673   42.7535    6.6412 C   0  0  0  0  0  0  0  0  0  0  0  0
   13.8827   44.3325    4.6892 C   0  0  0  0  0  0  0  0  0  0  0  0
   12.9090   44.7368    3.6379 C   0  0  0  0  0  0  0  0  0  0  0  0
   14.2492   44.0090    1.4909 C   0  0  0  0  0  0  0  0  0  0  0  0
   15.4947   43.4421    1.7829 C   0  0  0  0  0  0  0  0  0  0  0  0
   16.6370   43.8738    1.1022 C   0  0  0  0  0  0  0  0  0  0  0  0
   16.5344   44.8698    0.1260 C   0  0  0  0  0  0  0  0  0  0  0  0
   15.2892   45.4327   -0.1708 C   0  0  0  0  0  0  0  0  0  0  0  0
   14.1465   45.0014    0.5100 C   0  0  0  0  0  0  0  0  0  0  0  0
   16.1113   42.0918    8.2033 C   0  0  0  0  0  0  0  0  0  0  0  0
   14.9028   41.4293    8.3615 C   0  0  0  0  0  0  0  0  0  0  0  0
   14.7506   40.4627    9.3604 C   0  0  0  0  0  0  0  0  0  0  0  0
   15.8557   40.1844   10.1923 C   0  0  0  0  0  0  0  0  0  0  0  0
   17.0754   40.8653   10.0190 C   0  0  0  0  0  0  0  0  0  0  0  0
   17.2130   41.8334    9.0133 C   0  0  0  0  0  0  0  0  0  0  0  0
   13.2803   38.8386   10.5298 C   0  0  0  0  0  0  0  0  0  0  0  0
   13.0135   39.5366   11.8502 C   0  0  0  0  0  0  0  0  0  0  0  0
   13.5280   43.3011    5.6174 N   0  0  0  0  0  0  0  0  0  0  0  0
   13.9267   41.7947    7.4905 N   0  0  0  0  0  0  0  0  0  0  0  0
   12.7854   43.4502    2.3555 S   0  0  0  0  0  0  0  0  0  0  0  0
   15.9845   43.1810    6.9346 S   0  0  0  0  0  0  0  0  0  0  0  0
   15.0063   44.8985    4.7380 O   0  0  0  0  0  0  0  0  0  0  0  0
   13.5268   39.7984    9.5084 O   0  0  0  0  0  0  0  0  0  0  0  0
  1 18  1  0
  1 21  1  0
  3  2  1  0
  3 20  1  0
  4 20  1  0
  5  6  2  0
  7  8  2  0
  9  4  2  0
 10 21  1  0
 11 12  2  0
 11 19  1  0
 12 23  1  0
 13 14  2  0
 15 10  2  0
 16 23  1  0
 16 17  1  0
 18  2  1  0
  1 19  2  0
  2 22  2  0
  4  5  1  0
  6  7  1  0
  8  9  1  0
 10 11  1  0
 12 13  1  0
 14 15  1  0
M  END
>  <rmsd>  (445) 
0.241799742

$$$$
MolPort-006-735-194 ChemDiv-D411-0149 MCULE-2748102922 PubChem-46740137
     RDKit          3D

 31 34  0  0  0  0  0  0  0  0999 V2000
   10.4829   41.1772   13.3851 C   0  0  0  0  0  0  0  0  0  0  0  0
   11.1279   41.3505   10.9961 C   0  0  0  0  0  0  0  0  0  0  0  0
   10.2017   42.3858   10.7905 C   0  0  0  0  0  0  0  0  0  0  0  0
   10.0576   42.9780    9.5389 C   0  0  0  0  0  0  0  0  0  0  0  0
   10.8377   42.5426    8.4721 C   0  0  0  0  0  0  0  0  0  0  0  0
   11.7646   41.5113    8.6428 C   0  0  0  0  0  0  0  0  0  0  0  0
   12.5860   41.1170    7.4381 C   0  0  1  0  0  0  0  0  0  0  0  0
   11.2532   39.1246    7.0750 C   0  0  0  0  0  0  0  0  0  0  0  0
   10.6620   39.3190    5.6675 C   0  0  0  0  0  0  0  0  0  0  0  0
   12.6624   39.5492    4.6914 C   0  0  0  0  0  0  0  0  0  0  0  0
   13.4297   39.3398    6.0097 C   0  0  0  0  0  0  0  0  0  0  0  0
   13.9563   41.7413    7.4979 C   0  0  0  0  0  0  0  0  0  0  0  0
   14.3528   42.7565    6.6369 C   0  0  0  0  0  0  0  0  0  0  0  0
   13.8784   44.3477    4.6902 C   0  0  0  0  0  0  0  0  0  0  0  0
   12.9132   44.7818    3.6756 C   0  0  0  0  0  0  0  0  0  0  0  0
   11.6459   44.2659    3.5043 C   0  0  0  0  0  0  0  0  0  0  0  0
   11.1162   44.9765    2.4414 C   0  0  0  0  0  0  0  0  0  0  0  0
   12.0916   45.8729    2.0390 C   0  0  0  0  0  0  0  0  0  0  0  0
   16.1207   42.0938    8.2482 C   0  0  0  0  0  0  0  0  0  0  0  0
   17.3526   41.9257    9.0615 C   0  0  0  0  0  0  0  0  0  0  0  0
   14.9526   41.3615    8.4111 C   0  0  0  0  0  0  0  0  0  0  0  0
   11.9262   40.9034    9.9104 C   0  0  0  0  0  0  0  0  0  0  0  0
   13.1759   39.1738   11.2323 C   0  0  0  0  0  0  0  0  0  0  0  0
   11.2554   40.7697   12.2633 O   0  0  0  0  0  0  0  0  0  0  0  0
   11.4430   40.2075    4.9133 O   0  0  0  0  0  0  0  0  0  0  0  0
   15.0105   44.8977    4.7430 O   0  0  0  0  0  0  0  0  0  0  0  0
   13.1489   45.7255    2.8002 O   0  0  0  0  0  0  0  0  0  0  0  0
   12.8750   39.8731   10.0334 O   0  0  0  0  0  0  0  0  0  0  0  0
   12.6241   39.6575    7.2063 N   0  0  0  0  0  0  0  0  0  0  0  0
   13.5215   43.3060    5.6066 N   0  0  0  0  0  0  0  0  0  0  0  0
   15.9388   43.1975    6.9929 S   0  0  0  0  0  0  0  0  0  0  0  0
  1 24  1  0
  2 24  1  0
  3  4  2  0
  5  6  2  0
  7  6  1  0
  7 29  1  1
  7 12  1  0
  8 29  1  0
  8  9  1  0
  9 25  1  0
 10 25  1  0
 10 11  1  0
 11 29  1  0
 13 30  1  0
 13 31  1  0
 14 15  1  0
 15 27  1  0
 16 17  1  0
 18 27  1  0
 19 31  1  0
 20 19  1  0
 21 12  1  0
 22 28  1  0
 22  2  2  0
 23 28  1  0
 30 14  1  0
  2  3  1  0
  4  5  1  0
  6 22  1  0
 12 13  2  0
 14 26  2  0
 15 16  2  0
 17 18  2  0
 19 21  2  0
M  END
>  <rmsd>  (446) 
0.241768181

$$$$
MolPort-010-777-046 MolPort-047-128-844 ChemDiv-G889-0087 MCULE-3695965441 MCULE-9086515972 PubChem-146060485 PubChem-50807345 ZINC000046053313
     RDKit          3D

 24 25  0  0  0  0  0  0  0  0999 V2000
   12.9423   39.7135   11.5374 C   0  0  0  0  0  0  0  0  0  0  0  0
   14.1472   38.9852   10.9726 C   0  0  0  0  0  0  0  0  0  0  0  0
   15.4239   39.4765   11.6361 C   0  0  0  0  0  0  0  0  0  0  0  0
   15.8129   40.8666   11.1425 C   0  0  0  0  0  0  0  0  0  0  0  0
   17.5097   40.0508    9.4622 C   0  0  0  0  0  0  0  0  0  0  0  0
   15.6170   41.5170    8.7328 C   0  0  0  0  0  0  0  0  0  0  0  0
   16.2151   42.5775    8.0048 C   0  0  0  0  0  0  0  0  0  0  0  0
   15.5027   43.1597    6.9468 C   0  0  0  0  0  0  0  0  0  0  0  0
   14.2136   42.7270    6.6112 C   0  0  0  0  0  0  0  0  0  0  0  0
   13.9051   44.3725    4.6653 C   0  0  0  0  0  0  0  0  0  0  0  0
   13.0053   44.8623    3.6059 C   0  0  0  0  0  0  0  0  0  0  0  0
   11.7298   44.3017    3.4442 C   0  0  0  0  0  0  0  0  0  0  0  0
   10.8754   44.7657    2.4397 C   0  0  0  0  0  0  0  0  0  0  0  0
   11.2903   45.7940    1.5892 C   0  0  0  0  0  0  0  0  0  0  0  0
   12.5593   46.3585    1.7430 C   0  0  0  0  0  0  0  0  0  0  0  0
   13.4137   45.8945    2.7476 C   0  0  0  0  0  0  0  0  0  0  0  0
   13.6251   41.7016    7.3514 C   0  0  0  0  0  0  0  0  0  0  0  0
   14.3211   41.1009    8.4002 C   0  0  0  0  0  0  0  0  0  0  0  0
   17.5414   43.1444    8.3353 C   0  0  0  0  0  0  0  0  0  0  0  0
   16.3136   40.8211    9.7734 N   0  0  0  0  0  0  0  0  0  0  0  0
   13.4710   43.3151    5.5346 N   0  0  0  0  0  0  0  0  0  0  0  0
   15.0496   44.8851    4.7996 O   0  0  0  0  0  0  0  0  0  0  0  0
   18.1919   43.9644    7.4200 O   0  0  0  0  0  0  0  0  0  0  0  0
   18.0797   42.9338    9.4538 O   0  0  0  0  0  0  0  0  0  0  0  0
  1  2  1  0
  2  3  1  0
  3  4  1  0
  4 20  1  0
  5 20  1  0
  7  8  2  0
  7 19  1  0
  9 21  1  0
  9 17  2  0
 10 11  1  0
 12 13  2  0
 14 15  2  0
 16 11  2  0
 18  6  2  0
 19 23  1  0
 20  6  1  0
 21 10  1  0
  6  7  1  0
  8  9  1  0
 10 22  2  0
 11 12  1  0
 13 14  1  0
 15 16  1  0
 17 18  1  0
 19 24  2  0
M  END
>  <rmsd>  (447) 
0.241696745

$$$$
Molport-053-274-375
     RDKit          3D

 19 19  0  0  0  0  0  0  0  0999 V2000
   13.3962   39.4646   11.9797 C   0  0  0  0  0  0  0  0  0  0  0  0
   13.8302   38.7933   10.6820 C   0  0  0  0  0  0  0  0  0  0  0  0
   14.8878   40.6828    9.4538 C   0  0  0  0  0  0  0  0  0  0  0  0
   14.8246   41.6749    8.3615 C   0  0  0  0  0  0  0  0  0  0  0  0
   15.6627   42.7634    8.2337 C   0  0  0  0  0  0  0  0  0  0  0  0
   14.2289   42.8317    6.6582 C   0  0  0  0  0  0  0  0  0  0  0  0
   13.9097   44.3700    4.6736 C   0  0  0  0  0  0  0  0  0  0  0  0
   13.3125   45.8734    2.7237 C   0  0  0  0  0  0  0  0  0  0  0  0
   12.0621   46.0233    1.8437 C   0  0  0  0  0  0  0  0  0  0  0  0
   13.5775   47.2101    3.4429 C   0  0  0  0  0  0  0  0  0  0  0  0
   14.5073   45.4919    1.8287 C   0  0  0  0  0  0  0  0  0  0  0  0
   12.8535   40.7490    7.0796 C   0  0  0  0  0  0  0  0  0  0  0  0
   13.8677   39.7386    9.6149 O   0  0  0  0  0  0  0  0  0  0  0  0
   15.8642   40.7039   10.2525 O   0  0  0  0  0  0  0  0  0  0  0  0
   15.0633   44.8615    4.8053 O   0  0  0  0  0  0  0  0  0  0  0  0
   13.0400   44.8327    3.6745 O   0  0  0  0  0  0  0  0  0  0  0  0
   15.2879   43.4972    7.1687 N   0  0  0  0  0  0  0  0  0  0  0  0
   13.4682   43.3142    5.5367 N   0  0  0  0  0  0  0  0  0  0  0  0
   13.9273   41.7069    7.3513 N   0  0  0  0  0  0  0  0  0  0  0  0
  1  2  1  0
  2 13  1  0
  3 13  1  0
  3  4  1  0
  5 17  1  0
  6 18  1  0
  6 19  1  0
  7 16  1  0
  8 16  1  0
  8  9  1  0
  8 10  1  0
  8 11  1  0
 12 19  1  0
 18  7  1  0
 19  4  1  0
  3 14  2  0
  4  5  2  0
  6 17  2  0
  7 15  2  0
M  END
>  <rmsd>  (448) 
0.241568282

$$$$
MolPort-020-295-316 MCULE-3182182916 PubChem-110267398
     RDKit          3D

 32 36  0  0  0  0  0  0  0  0999 V2000
   15.0136   47.4364    2.0019 C   0  0  0  0  0  0  0  0  0  0  0  0
   14.5967   46.3518    2.9280 C   0  0  0  0  0  0  0  0  0  0  0  0
   15.4618   45.9088    3.9298 C   0  0  0  0  0  0  0  0  0  0  0  0
   13.8470   44.3271    4.6743 C   0  0  0  0  0  0  0  0  0  0  0  0
   12.9570   44.7474    3.6819 C   0  0  0  0  0  0  0  0  0  0  0  0
   13.3365   45.7656    2.8055 C   0  0  0  0  0  0  0  0  0  0  0  0
   14.2315   42.7330    6.6362 C   0  0  0  0  0  0  0  0  0  0  0  0
   16.2225   42.6765    7.9160 C   0  0  0  0  0  0  0  0  0  0  0  0
   15.7012   41.6521    8.7027 C   0  0  0  0  0  0  0  0  0  0  0  0
   14.4133   41.1841    8.4197 C   0  0  0  0  0  0  0  0  0  0  0  0
   13.7944   40.0869    9.2256 C   0  0  2  0  0  0  0  0  0  0  0  0
   13.6342   40.5010   10.6907 C   0  0  0  0  0  0  0  0  0  0  0  0
   12.9821   39.3770   11.4928 C   0  0  0  0  0  0  0  0  0  0  0  0
   13.8204   38.1072   11.3868 C   0  0  0  0  0  0  0  0  0  0  0  0
   14.6072   38.7961    9.1118 C   0  0  0  0  0  0  0  0  0  0  0  0
   13.6351   36.5013    9.4475 C   0  0  0  0  0  0  0  0  0  0  0  0
   13.0921   35.4296   10.3384 C   0  0  0  0  0  0  0  0  0  0  0  0
   14.1609   34.4457   10.6826 C   0  0  0  0  0  0  0  0  0  0  0  0
   14.5646   33.3629    9.9088 C   0  0  0  0  0  0  0  0  0  0  0  0
   15.8286   33.3953   11.6471 C   0  0  0  0  0  0  0  0  0  0  0  0
   16.8029   33.1112   12.6021 C   0  0  0  0  0  0  0  0  0  0  0  0
   16.8870   33.9590   13.7219 C   0  0  0  0  0  0  0  0  0  0  0  0
   16.0085   35.0560   13.8594 C   0  0  0  0  0  0  0  0  0  0  0  0
   15.0349   35.3185   12.8792 C   0  0  0  0  0  0  0  0  0  0  0  0
   14.9791   34.4588   11.7838 C   0  0  0  0  0  0  0  0  0  0  0  0
   15.0727   44.9154    4.7737 N   0  0  0  0  0  0  0  0  0  0  0  0
   13.4494   43.2803    5.5679 N   0  0  0  0  0  0  0  0  0  0  0  0
   15.4835   43.1965    6.9022 N   0  0  0  0  0  0  0  0  0  0  0  0
   13.7092   41.7339    7.3956 N   0  0  0  0  0  0  0  0  0  0  0  0
   14.0260   37.7757    9.9792 N   0  0  0  0  0  0  0  0  0  0  0  0
   15.5932   32.7133   10.5113 N   0  0  0  0  0  0  0  0  0  0  0  0
   13.7643   36.2630    8.2165 O   0  0  0  0  0  0  0  0  0  0  0  0
  1  2  1  0
  3 26  2  0
  4  5  2  0
  4 27  1  0
  6  2  2  0
  7 29  2  0
  8 28  2  0
  9 10  2  0
 11 10  1  6
 11 12  1  0
 12 13  1  0
 13 14  1  0
 14 30  1  0
 15 30  1  0
 15 11  1  0
 17 16  1  0
 17 18  1  0
 19 31  1  0
 21 22  2  0
 23 24  2  0
 25 18  1  0
 25 20  2  0
 27  7  1  0
 30 16  1  0
 31 20  1  0
  2  3  1  0
  4 26  1  0
  5  6  1  0
  7 28  1  0
  8  9  1  0
 10 29  1  0
 16 32  2  0
 18 19  2  0
 20 21  1  0
 22 23  1  0
 24 25  1  0
M  END
>  <rmsd>  (449) 
0.241553202

$$$$
MolPort-002-614-447 2429038 LN00680422 PubChem-1630520 ZINC000002429038 ZINC02429038
     RDKit          3D

 29 32  0  0  0  0  0  0  0  0999 V2000
   14.2846   38.7758   11.6917 C   0  0  0  0  0  0  0  0  0  0  0  0
   13.0445   39.4671   11.1567 C   0  0  0  0  0  0  0  0  0  0  0  0
   13.3243   40.0783    9.7957 C   0  0  0  0  0  0  0  0  0  0  0  0
   14.1500   41.3456    9.9435 C   0  0  0  0  0  0  0  0  0  0  0  0
   14.1637   42.8190    6.6858 C   0  0  0  0  0  0  0  0  0  0  0  0
   14.0379   44.1909    4.5474 C   0  0  0  0  0  0  0  0  0  0  0  0
   13.3897   44.3023    3.2108 C   0  0  0  0  0  0  0  0  0  0  0  0
   13.9130   43.2480    2.2960 C   0  0  0  0  0  0  0  0  0  0  0  0
   13.2843   41.9999    2.2334 C   0  0  0  0  0  0  0  0  0  0  0  0
   13.7910   41.0011    1.3968 C   0  0  0  0  0  0  0  0  0  0  0  0
   14.9308   41.2398    0.6212 C   0  0  0  0  0  0  0  0  0  0  0  0
   16.5631   40.3762   -1.0242 C   0  0  0  0  0  0  0  0  0  0  0  0
   15.5630   42.4923    0.6917 C   0  0  0  0  0  0  0  0  0  0  0  0
   15.0566   43.4912    1.5280 C   0  0  0  0  0  0  0  0  0  0  0  0
   15.5244   42.6002    6.8300 C   0  0  0  0  0  0  0  0  0  0  0  0
   16.6259   42.7665    5.9966 C   0  0  0  0  0  0  0  0  0  0  0  0
   17.8733   42.3618    6.5026 C   0  0  0  0  0  0  0  0  0  0  0  0
   19.0280   42.5096    5.7311 C   0  0  0  0  0  0  0  0  0  0  0  0
   20.2648   42.1017    6.2404 C   0  0  0  0  0  0  0  0  0  0  0  0
   20.3526   41.5434    7.5203 C   0  0  0  0  0  0  0  0  0  0  0  0
   19.2046   41.3872    8.3035 C   0  0  0  0  0  0  0  0  0  0  0  0
   17.9615   41.7912    7.8104 C   0  0  0  0  0  0  0  0  0  0  0  0
   15.6474   42.0393    8.0672 C   0  0  0  0  0  0  0  0  0  0  0  0
   14.4382   41.9086    8.6338 N   0  0  0  0  0  0  0  0  0  0  0  0
   13.5198   42.3751    7.7935 N   0  0  0  0  0  0  0  0  0  0  0  0
   13.4779   43.3166    5.5312 N   0  0  0  0  0  0  0  0  0  0  0  0
   16.8382   41.6298    8.5723 N   0  0  0  0  0  0  0  0  0  0  0  0
   15.0638   44.8767    4.7989 O   0  0  0  0  0  0  0  0  0  0  0  0
   15.4122   40.2208   -0.2051 O   0  0  0  0  0  0  0  0  0  0  0  0
  1  2  1  0
  2  3  1  0
  3  4  1  0
  4 24  1  0
  5 26  1  0
  5 15  1  0
  7  6  1  0
  7  8  1  0
  9 10  2  0
 11 29  1  0
 11 13  2  0
 12 29  1  0
 14  8  2  0
 16 17  2  0
 18 19  2  0
 20 21  2  0
 22 27  2  0
 22 17  1  0
 23 24  1  0
 23 15  2  0
 24 25  1  0
 26  6  1  0
  5 25  2  0
  6 28  2  0
  8  9  1  0
 10 11  1  0
 13 14  1  0
 15 16  1  0
 17 18  1  0
 19 20  1  0
 21 22  1  0
 23 27  1  0
M  END
>  <rmsd>  (450) 
0.241385609

$$$$
MolPort-035-673-738 CSSS03437791417 MCULE-9220016163 PubChem-91938455
     RDKit          3D

 30 32  0  0  0  0  0  0  0  0999 V2000
   13.4646   34.6626   10.9525 C   0  0  0  0  0  0  0  0  0  0  0  0
   14.6208   35.4115   10.3235 C   0  0  0  0  0  0  0  0  0  0  0  0
   14.4269   37.7855    9.6941 C   0  0  0  0  0  0  0  0  0  0  0  0
   14.3677   39.2306   10.1078 C   0  0  1  0  0  0  0  0  0  0  0  0
   13.5091   39.3666   11.3559 C   0  0  0  0  0  0  0  0  0  0  0  0
   14.3461   41.0193    8.3370 C   0  0  0  0  0  0  0  0  0  0  0  0
   15.6558   41.4143    8.6265 C   0  0  0  0  0  0  0  0  0  0  0  0
   15.7688   39.7129   10.4250 C   0  0  0  0  0  0  0  0  0  0  0  0
   16.2573   42.4413    7.8956 C   0  0  0  0  0  0  0  0  0  0  0  0
   15.5475   43.0751    6.8719 C   0  0  0  0  0  0  0  0  0  0  0  0
   14.2320   42.6866    6.5745 C   0  0  0  0  0  0  0  0  0  0  0  0
   13.9047   44.3816    4.6800 C   0  0  0  0  0  0  0  0  0  0  0  0
   12.9695   44.9202    3.6581 C   0  0  0  0  0  0  0  0  0  0  0  0
   11.1315   46.5750    3.5409 C   0  0  0  0  0  0  0  0  0  0  0  0
   10.3360   47.5213    4.2064 C   0  0  0  0  0  0  0  0  0  0  0  0
    9.7936   48.7005    6.3149 C   0  0  0  0  0  0  0  0  0  0  0  0
    9.3376   48.2098    3.4965 C   0  0  0  0  0  0  0  0  0  0  0  0
    9.1337   47.9585    2.1379 C   0  0  0  0  0  0  0  0  0  0  0  0
    9.9247   47.0175    1.4766 C   0  0  0  0  0  0  0  0  0  0  0  0
   10.9191   46.3284    2.1741 C   0  0  0  0  0  0  0  0  0  0  0  0
   13.6386   41.6568    7.3133 C   0  0  0  0  0  0  0  0  0  0  0  0
   14.5372   36.7866   10.6660 O   0  0  0  0  0  0  0  0  0  0  0  0
   14.4346   37.4827    8.4686 O   0  0  0  0  0  0  0  0  0  0  0  0
   13.7363   39.9917    9.0647 O   0  0  0  0  0  0  0  0  0  0  0  0
   16.4261   39.1742   11.3560 O   0  0  0  0  0  0  0  0  0  0  0  0
   15.0479   44.8953    4.8024 O   0  0  0  0  0  0  0  0  0  0  0  0
   12.1230   45.8938    4.2548 O   0  0  0  0  0  0  0  0  0  0  0  0
   10.5537   47.7606    5.5677 O   0  0  0  0  0  0  0  0  0  0  0  0
   16.3685   40.7687    9.6747 N   0  0  0  0  0  0  0  0  0  0  0  0
   13.4723   43.3134    5.5323 N   0  0  0  0  0  0  0  0  0  0  0  0
  1  2  1  0
  2 22  1  0
  3 22  1  0
  4  3  1  0
  4  5  1  1
  4 24  1  0
  4  8  1  0
  6 24  1  0
  7 29  1  0
  7  9  2  0
 10 11  2  0
 11 30  1  0
 13 12  1  0
 13 27  1  0
 14 27  1  0
 15 28  1  0
 15 17  2  0
 16 28  1  0
 18 19  2  0
 20 14  2  0
 21  6  2  0
 29  8  1  0
 30 12  1  0
  3 23  2  0
  6  7  1  0
  8 25  2  0
  9 10  1  0
 11 21  1  0
 12 26  2  0
 14 15  1  0
 17 18  1  0
 19 20  1  0
M  END
>  <rmsd>  (451) 
0.241369143

$$$$
Molport-052-054-263
     RDKit          3D

 26 28  0  0  0  0  0  0  0  0999 V2000
   12.2954   41.9441   10.2579 C   0  0  0  0  0  0  0  0  0  0  0  0
   13.6679   41.2703   10.0404 C   0  0  2  0  0  0  0  0  0  0  0  0
   13.4081   39.2269   11.3829 C   0  0  0  0  0  0  0  0  0  0  0  0
   12.6438   39.2201    9.0646 C   0  0  0  0  0  0  0  0  0  0  0  0
   13.1278   37.8841    8.5857 C   0  0  0  0  0  0  0  0  0  0  0  0
   14.2703   37.7909    7.7766 C   0  0  0  0  0  0  0  0  0  0  0  0
   14.7162   36.5337    7.3640 C   0  0  0  0  0  0  0  0  0  0  0  0
   14.0239   35.3877    7.7597 C   0  0  0  0  0  0  0  0  0  0  0  0
   12.8912   35.5177    8.5678 C   0  0  0  0  0  0  0  0  0  0  0  0
   14.3566   41.7539    8.7879 C   0  0  0  0  0  0  0  0  0  0  0  0
   16.3425   41.9092    7.5057 C   0  0  0  0  0  0  0  0  0  0  0  0
   17.8078   41.6424    7.3682 C   0  0  0  0  0  0  0  0  0  0  0  0
   15.6279   42.4951    6.4564 C   0  0  0  0  0  0  0  0  0  0  0  0
   14.2520   42.7132    6.6178 C   0  0  0  0  0  0  0  0  0  0  0  0
   13.9106   44.2588    4.6341 C   0  0  0  0  0  0  0  0  0  0  0  0
   15.2388   45.8426    3.7605 C   0  0  0  0  0  0  0  0  0  0  0  0
   14.1865   45.9031    2.8532 C   0  0  0  0  0  0  0  0  0  0  0  0
   14.1388   46.7555    1.6297 C   0  0  0  0  0  0  0  0  0  0  0  0
   13.6087   39.7856   10.0336 N   0  0  0  0  0  0  0  0  0  0  0  0
   12.4733   36.7506    8.9617 N   0  0  0  0  0  0  0  0  0  0  0  0
   15.6926   41.5479    8.6429 N   0  0  0  0  0  0  0  0  0  0  0  0
   13.4480   43.2763    5.5700 N   0  0  0  0  0  0  0  0  0  0  0  0
   15.0748   44.9361    4.7600 N   0  0  0  0  0  0  0  0  0  0  0  0
   13.6493   42.3170    7.7699 N   0  0  0  0  0  0  0  0  0  0  0  0
   14.4483   34.1613    7.3664 F   0  0  0  0  0  0  0  0  0  0  0  0
   13.0248   44.7691    3.2974 S   0  0  0  0  0  0  0  0  0  0  0  0
  2  1  1  6
  2 19  1  0
  2 10  1  0
  3 19  1  0
  4 19  1  0
  4  5  1  0
  5 20  2  0
  6  7  2  0
  8 25  1  0
  8  9  2  0
 10 24  2  0
 11 21  2  0
 12 11  1  0
 13 14  2  0
 14 22  1  0
 15 26  1  0
 16 23  1  0
 17 26  1  0
 18 17  1  0
 22 15  1  0
  5  6  1  0
  7  8  1  0
  9 20  1  0
 10 21  1  0
 11 13  1  0
 14 24  1  0
 15 23  2  0
 16 17  2  0
M  END
>  <rmsd>  (452) 
0.241354302

$$$$
MolPort-000-056-093 1324433 CHEMBL1507270 MCULE-1520687221 PubChem-655444 ZINC000001324433 ZINC01324433
     RDKit          3D

 32 35  0  0  0  0  0  0  0  0999 V2000
   15.3673   45.8993    8.4270 C   0  0  0  0  0  0  0  0  0  0  0  0
   14.8728   43.6168    7.5988 C   0  0  0  0  0  0  0  0  0  0  0  0
   15.5851   43.0297    8.6560 C   0  0  0  0  0  0  0  0  0  0  0  0
   15.6475   41.6424    8.8045 C   0  0  0  0  0  0  0  0  0  0  0  0
   16.0675   39.9524   10.6772 C   0  0  0  0  0  0  0  0  0  0  0  0
   14.6689   39.5688   10.9441 C   0  0  0  0  0  0  0  0  0  0  0  0
   13.5425   40.3444   10.7105 C   0  0  0  0  0  0  0  0  0  0  0  0
   12.3527   39.7114   11.0976 C   0  0  0  0  0  0  0  0  0  0  0  0
   12.5271   38.4428   11.6453 C   0  0  0  0  0  0  0  0  0  0  0  0
   15.0131   40.8129    7.8586 C   0  0  0  0  0  0  0  0  0  0  0  0
   14.4889   38.5279    7.0558 C   0  0  0  0  0  0  0  0  0  0  0  0
   14.3016   41.3994    6.8014 C   0  0  0  0  0  0  0  0  0  0  0  0
   14.2399   42.7869    6.6515 C   0  0  0  0  0  0  0  0  0  0  0  0
   13.8616   44.4394    4.7519 C   0  0  0  0  0  0  0  0  0  0  0  0
   12.8750   45.0304    3.8092 C   0  0  0  0  0  0  0  0  0  0  0  0
   12.9154   44.2853    2.4874 C   0  0  0  0  0  0  0  0  0  0  0  0
   11.0083   45.8247   -0.1410 C   0  0  0  0  0  0  0  0  0  0  0  0
   10.9079   46.4782   -1.3651 C   0  0  0  0  0  0  0  0  0  0  0  0
   12.1125   46.7558   -2.0421 C   0  0  0  0  0  0  0  0  0  0  0  0
   13.3584   46.3780   -1.4855 C   0  0  0  0  0  0  0  0  0  0  0  0
   13.4197   45.7168   -0.2430 C   0  0  0  0  0  0  0  0  0  0  0  0
   12.2065   45.4629    0.3919 C   0  0  0  0  0  0  0  0  0  0  0  0
   14.7598   45.0083    7.5012 O   0  0  0  0  0  0  0  0  0  0  0  0
   16.9970   39.2771   11.1917 O   0  0  0  0  0  0  0  0  0  0  0  0
   15.1164   39.4210    7.9657 O   0  0  0  0  0  0  0  0  0  0  0  0
   15.0404   44.8838    4.7768 O   0  0  0  0  0  0  0  0  0  0  0  0
   16.4039   41.1092    9.8997 N   0  0  0  0  0  0  0  0  0  0  0  0
   13.4838   43.3162    5.5548 N   0  0  0  0  0  0  0  0  0  0  0  0
   11.9538   44.8624    1.5610 N   0  0  0  0  0  0  0  0  0  0  0  0
   10.6346   44.8568    1.7256 N   0  0  0  0  0  0  0  0  0  0  0  0
   10.0249   45.4440    0.6956 N   0  0  0  0  0  0  0  0  0  0  0  0
   14.1783   38.1242   11.6403 S   0  0  0  0  0  0  0  0  0  0  0  0
  1 23  1  0
  2 23  1  0
  3  4  2  0
  4 27  1  0
  5  6  1  0
  6 32  1  0
  7  8  1  0
  9 32  1  0
 10 25  1  0
 10 12  2  0
 11 25  1  0
 13 28  1  0
 13  2  2  0
 15 14  1  0
 15 16  1  0
 16 29  1  0
 17 31  1  0
 18 19  2  0
 20 21  2  0
 22 29  1  0
 22 17  2  0
 27  5  1  0
 28 14  1  0
 29 30  1  0
  2  3  1  0
  4 10  1  0
  5 24  2  0
  6  7  2  0
  8  9  2  0
 12 13  1  0
 14 26  2  0
 17 18  1  0
 19 20  1  0
 21 22  1  0
 30 31  2  0
M  END
>  <rmsd>  (453) 
0.241345793

$$$$
MolPort-045-928-263 952962461 CSSS00160205879 MCULE-4026858819 PubChem-131930738 ZINC000952962461
     RDKit          3D

 23 24  0  0  0  0  0  0  0  0999 V2000
   12.7122   46.1477    3.5018 C   0  0  0  0  0  0  0  0  0  0  0  0
   13.0960   44.6818    3.4384 C   0  0  0  0  0  0  0  0  0  0  0  0
   13.8282   44.3958    2.1415 C   0  0  0  0  0  0  0  0  0  0  0  0
   13.9431   44.3095    4.6100 C   0  0  0  0  0  0  0  0  0  0  0  0
   14.2588   42.7305    6.5651 C   0  0  0  0  0  0  0  0  0  0  0  0
   13.7379   42.7046    7.8626 C   0  0  0  0  0  0  0  0  0  0  0  0
   14.4664   42.1330    8.9074 C   0  0  0  0  0  0  0  0  0  0  0  0
   15.7204   41.5577    8.6620 C   0  0  0  0  0  0  0  0  0  0  0  0
   16.0217   40.6165   11.0156 C   0  0  0  0  0  0  0  0  0  0  0  0
   14.7180   39.9441   11.1984 C   0  0  0  0  0  0  0  0  0  0  0  0
   14.0870   39.2862   10.1350 C   0  0  0  0  0  0  0  0  0  0  0  0
   12.8694   38.6361   10.3363 C   0  0  0  0  0  0  0  0  0  0  0  0
   12.2954   38.6387   11.6082 C   0  0  0  0  0  0  0  0  0  0  0  0
   14.1105   39.9102   12.4608 C   0  0  0  0  0  0  0  0  0  0  0  0
   16.2377   41.5682    7.3643 C   0  0  0  0  0  0  0  0  0  0  0  0
   15.5157   42.1397    6.3117 C   0  0  0  0  0  0  0  0  0  0  0  0
   15.0492   44.8851    4.8047 O   0  0  0  0  0  0  0  0  0  0  0  0
   16.7591   40.8145   12.0177 O   0  0  0  0  0  0  0  0  0  0  0  0
   13.4680   43.3190    5.5262 N   0  0  0  0  0  0  0  0  0  0  0  0
   16.5068   40.9985    9.7209 N   0  0  0  0  0  0  0  0  0  0  0  0
   12.9236   39.2689   12.6366 N   0  0  0  0  0  0  0  0  0  0  0  0
   12.2526   38.0061    9.3083 F   0  0  0  0  0  0  0  0  0  0  0  0
   16.1802   42.0036    4.6908 Cl  0  0  0  0  0  0  0  0  0  0  0  0
  1  2  1  0
  2  3  1  0
  2  4  1  0
  4 19  1  0
  6  7  2  0
  8 20  1  0
  8 15  2  0
  9 10  1  0
 11 12  2  0
 12 22  1  0
 13 21  2  0
 14 10  2  0
 16 23  1  0
 16  5  2  0
 19  5  1  0
 20  9  1  0
  4 17  2  0
  5  6  1  0
  7  8  1  0
  9 18  2  0
 10 11  1  0
 12 13  1  0
 14 21  1  0
 15 16  1  0
M  END
>  <rmsd>  (454) 
0.241320252

$$$$
MolPort-006-579-784 ChemDiv-V014-3570 MCULE-8107585728 PubChem-46040748 ZINC000037544503 ZINC37544503
     RDKit          3D

 31 34  0  0  0  0  0  0  0  0999 V2000
   15.5708   33.1328    7.9179 F   0  0  0  0  0  0  0  0  0  0  0  0
   13.8508   32.3589    6.6678 F   0  0  0  0  0  0  0  0  0  0  0  0
   15.5048   33.5438    5.7062 F   0  0  0  0  0  0  0  0  0  0  0  0
   14.7381   33.4050    6.8469 C   0  0  0  0  0  0  0  0  0  0  0  0
   13.1634   34.8270    8.1649 C   0  0  0  0  0  0  0  0  0  0  0  0
   12.9574   33.8436    9.1465 C   0  0  0  0  0  0  0  0  0  0  0  0
   12.1029   34.0895   10.2241 C   0  0  0  0  0  0  0  0  0  0  0  0
   11.4467   35.3184   10.3278 C   0  0  0  0  0  0  0  0  0  0  0  0
   11.6399   36.2997    9.3513 C   0  0  0  0  0  0  0  0  0  0  0  0
   10.9498   37.6162    9.4766 C   0  0  0  0  0  0  0  0  0  0  0  0
   12.2093   38.7711   11.3205 C   0  0  0  0  0  0  0  0  0  0  0  0
   13.7159   38.8466   11.4812 C   0  0  0  0  0  0  0  0  0  0  0  0
   14.2462   40.0892   10.7666 C   0  0  0  0  0  0  0  0  0  0  0  0
   12.6134   39.4333    8.9517 C   0  0  0  0  0  0  0  0  0  0  0  0
   14.3610   41.2158    8.5367 C   0  0  0  0  0  0  0  0  0  0  0  0
   15.6792   41.6352    8.7819 C   0  0  0  0  0  0  0  0  0  0  0  0
   16.2830   42.5986    7.9715 C   0  0  0  0  0  0  0  0  0  0  0  0
   15.5734   43.1598    6.9084 C   0  0  0  0  0  0  0  0  0  0  0  0
   14.2540   42.7631    6.6510 C   0  0  0  0  0  0  0  0  0  0  0  0
   13.9118   44.3286    4.6469 C   0  0  0  0  0  0  0  0  0  0  0  0
   12.9829   44.7665    3.5616 C   0  0  0  0  0  0  0  0  0  0  0  0
   12.5733   43.5732    2.7175 C   0  0  0  0  0  0  0  0  0  0  0  0
   13.6237   44.5321    2.2054 C   0  0  0  0  0  0  0  0  0  0  0  0
   13.6596   41.7966    7.4672 C   0  0  0  0  0  0  0  0  0  0  0  0
   12.4990   36.0531    8.2742 C   0  0  0  0  0  0  0  0  0  0  0  0
   14.0225   34.6173    7.0781 O   0  0  0  0  0  0  0  0  0  0  0  0
   12.2897   39.3911    7.7329 O   0  0  0  0  0  0  0  0  0  0  0  0
   15.0346   44.8897    4.7651 O   0  0  0  0  0  0  0  0  0  0  0  0
   11.8895   38.6441    9.9064 N   0  0  0  0  0  0  0  0  0  0  0  0
   13.7388   40.2303    9.3910 N   0  0  0  0  0  0  0  0  0  0  0  0
   13.4914   43.3122    5.5686 N   0  0  0  0  0  0  0  0  0  0  0  0
  4  1  1  0
  4  2  1  0
  4  3  1  0
  4 26  1  0
  5 26  1  0
  6  7  2  0
  8  9  2  0
 10  9  1  0
 10 29  1  0
 11 29  1  0
 11 12  1  0
 12 13  1  0
 13 30  1  0
 14 29  1  0
 16 17  2  0
 18 19  2  0
 19 31  1  0
 21 20  1  0
 21 22  1  0
 22 23  1  0
 23 21  1  0
 24 15  2  0
 25  5  2  0
 30 14  1  0
 30 15  1  0
 31 20  1  0
  5  6  1  0
  7  8  1  0
  9 25  1  0
 14 27  2  0
 15 16  1  0
 17 18  1  0
 19 24  1  0
 20 28  2  0
M  END
>  <rmsd>  (455) 
0.241280392

$$$$
Molport-005-262-082 PubChem-43131503
     RDKit          3D

 16 16  0  0  0  0  0  0  0  0999 V2000
   13.5164   39.3673   11.3508 C   0  0  0  0  0  0  0  0  0  0  0  0
   14.3554   39.2677   10.0911 C   0  0  1  0  0  0  0  0  0  0  0  0
   14.5568   37.8402    9.7074 C   0  0  0  0  0  0  0  0  0  0  0  0
   14.3417   41.0078    8.3309 C   0  0  0  0  0  0  0  0  0  0  0  0
   15.6496   41.4184    8.6334 C   0  0  0  0  0  0  0  0  0  0  0  0
   16.2446   42.4568    7.9134 C   0  0  0  0  0  0  0  0  0  0  0  0
   15.5371   43.0898    6.8886 C   0  0  0  0  0  0  0  0  0  0  0  0
   14.2294   42.6887    6.5766 C   0  0  0  0  0  0  0  0  0  0  0  0
   13.6412   41.6475    7.3030 C   0  0  0  0  0  0  0  0  0  0  0  0
   13.9023   44.3882    4.6858 C   0  0  0  0  0  0  0  0  0  0  0  0
   12.9760   44.9134    3.6497 C   0  0  0  0  0  0  0  0  0  0  0  0
   13.5744   37.1164    9.3947 O   0  0  0  0  0  0  0  0  0  0  0  0
   15.8390   37.3090    9.6868 O   0  0  0  0  0  0  0  0  0  0  0  0
   13.7182   39.9716    9.0319 O   0  0  0  0  0  0  0  0  0  0  0  0
   15.0489   44.8953    4.8029 O   0  0  0  0  0  0  0  0  0  0  0  0
   13.4718   43.3143    5.5318 N   0  0  0  0  0  0  0  0  0  0  0  0
  2  1  1  1
  2  3  1  0
  2 14  1  0
  3 13  1  0
  4 14  1  0
  5  6  2  0
  7  8  2  0
  8 16  1  0
  9  4  2  0
 11 10  1  0
 16 10  1  0
  3 12  2  0
  4  5  1  0
  6  7  1  0
  8  9  1  0
 10 15  2  0
M  END
>  <rmsd>  (456) 
0.241259858

$$$$
MolPort-003-165-650 10220831 CSSS03437101502 MCULE-8781211404 PubChem-16831273 ZINC000010220831 ZINC10220831
     RDKit          3D

 31 33  0  0  0  0  0  0  0  0999 V2000
   11.5296   40.8972   18.1100 C   0  0  0  0  0  0  0  0  0  0  0  0
   13.1586   40.8047   16.2508 C   0  0  0  0  0  0  0  0  0  0  0  0
   14.4505   41.0742   15.7964 C   0  0  0  0  0  0  0  0  0  0  0  0
   14.8458   40.7659   14.4829 C   0  0  0  0  0  0  0  0  0  0  0  0
   13.9012   40.1759   13.6068 C   0  0  0  0  0  0  0  0  0  0  0  0
   13.3476   39.2861   11.3584 C   0  0  0  0  0  0  0  0  0  0  0  0
   12.6034   39.9059   14.0718 C   0  0  0  0  0  0  0  0  0  0  0  0
   12.2348   40.2152   15.3802 C   0  0  0  0  0  0  0  0  0  0  0  0
   16.2391   41.0743   14.0609 C   0  0  0  0  0  0  0  0  0  0  0  0
   18.4279   40.2885   11.2107 C   0  0  0  0  0  0  0  0  0  0  0  0
   17.8431   41.0674   10.0833 C   0  0  0  0  0  0  0  0  0  0  0  0
   15.7843   41.4309    8.6001 C   0  0  0  0  0  0  0  0  0  0  0  0
   14.4830   41.0063    8.3137 C   0  0  0  0  0  0  0  0  0  0  0  0
   13.7388   41.6333    7.3102 C   0  0  0  0  0  0  0  0  0  0  0  0
   14.2860   42.6928    6.5797 C   0  0  0  0  0  0  0  0  0  0  0  0
   13.8826   44.3928    4.7046 C   0  0  0  0  0  0  0  0  0  0  0  0
   12.9142   44.9206    3.7090 C   0  0  0  0  0  0  0  0  0  0  0  0
   15.5909   43.1201    6.8658 C   0  0  0  0  0  0  0  0  0  0  0  0
   16.3349   42.4935    7.8690 C   0  0  0  0  0  0  0  0  0  0  0  0
   18.8161   41.6266   13.2316 C   0  0  0  0  0  0  0  0  0  0  0  0
   18.3631   42.1531   14.4376 C   0  0  0  0  0  0  0  0  0  0  0  0
   17.0663   41.8743   14.8568 C   0  0  0  0  0  0  0  0  0  0  0  0
   12.8217   41.1317   17.5670 O   0  0  0  0  0  0  0  0  0  0  0  0
   14.2517   39.8727   12.2851 O   0  0  0  0  0  0  0  0  0  0  0  0
   18.5089   42.0037    9.5678 O   0  0  0  0  0  0  0  0  0  0  0  0
   15.0317   44.9025    4.7781 O   0  0  0  0  0  0  0  0  0  0  0  0
   19.9891   41.8793   12.8453 O   0  0  0  0  0  0  0  0  0  0  0  0
   16.7402   40.5821   12.8949 N   0  0  0  0  0  0  0  0  0  0  0  0
   17.9844   40.8421   12.4842 N   0  0  0  0  0  0  0  0  0  0  0  0
   16.5150   40.7637    9.6376 N   0  0  0  0  0  0  0  0  0  0  0  0
   13.4904   43.3116    5.5594 N   0  0  0  0  0  0  0  0  0  0  0  0
  1 23  1  0
  2 23  1  0
  3  4  2  0
  4  9  1  0
  5 24  1  0
  5  7  2  0
  6 24  1  0
  8  2  2  0
 10 29  1  0
 10 11  1  0
 11 30  1  0
 13 14  2  0
 15 31  1  0
 15 18  2  0
 17 16  1  0
 19 12  2  0
 20 21  1  0
 22  9  1  0
 29 28  1  0
 29 20  1  0
 30 12  1  0
 31 16  1  0
  2  3  1  0
  4  5  1  0
  7  8  1  0
  9 28  2  0
 11 25  2  0
 12 13  1  0
 14 15  1  0
 16 26  2  0
 18 19  1  0
 20 27  2  0
 21 22  2  0
M  END
>  <rmsd>  (457) 
0.241251692

$$$$
MolPort-019-932-453 49155154 CSSS00159283058 MCULE-2916528771 PubChem-51136863 ZINC000049155154
     RDKit          3D

 34 38  0  0  0  0  0  0  0  0999 V2000
    7.3571   43.6802   18.5834 C   0  0  0  0  0  0  0  0  0  0  0  0
    9.2723   43.9083   17.2614 C   0  0  0  0  0  0  0  0  0  0  0  0
    9.8247   44.0979   15.8520 C   0  0  0  0  0  0  0  0  0  0  0  0
    7.8534   42.8140   15.0096 C   0  0  0  0  0  0  0  0  0  0  0  0
    7.3861   42.6988   16.4598 C   0  0  0  0  0  0  0  0  0  0  0  0
   10.1788   42.2218   14.2094 C   0  0  0  0  0  0  0  0  0  0  0  0
    9.6677   41.2307   13.3596 C   0  0  0  0  0  0  0  0  0  0  0  0
   10.5448   40.4475   12.6090 C   0  0  0  0  0  0  0  0  0  0  0  0
   11.9245   40.6498   12.7073 C   0  0  0  0  0  0  0  0  0  0  0  0
   12.3992   41.6476   13.5657 C   0  0  0  0  0  0  0  0  0  0  0  0
   12.8588   39.8344   11.9168 C   0  0  0  0  0  0  0  0  0  0  0  0
   14.5947   39.0225   11.0940 C   0  0  0  0  0  0  0  0  0  0  0  0
   16.0255   38.7329   10.7402 C   0  0  2  0  0  0  0  0  0  0  0  0
   16.9602   38.7225   11.9247 C   0  0  0  0  0  0  0  0  0  0  0  0
   18.3130   38.9683   11.3037 C   0  0  0  0  0  0  0  0  0  0  0  0
   18.0395   39.4749    9.8920 C   0  0  0  0  0  0  0  0  0  0  0  0
   16.2895   41.0161    9.9660 C   0  0  0  0  0  0  0  0  0  0  0  0
   15.5644   41.6071    8.8055 C   0  0  0  0  0  0  0  0  0  0  0  0
   14.2794   41.1658    8.4706 C   0  0  0  0  0  0  0  0  0  0  0  0
   13.6024   41.7374    7.3896 C   0  0  0  0  0  0  0  0  0  0  0  0
   14.2002   42.7555    6.6380 C   0  0  0  0  0  0  0  0  0  0  0  0
   13.9158   44.3607    4.6597 C   0  0  0  0  0  0  0  0  0  0  0  0
   13.0134   44.8321    3.5778 C   0  0  0  0  0  0  0  0  0  0  0  0
   15.4861   43.1990    6.9827 C   0  0  0  0  0  0  0  0  0  0  0  0
   16.1641   42.6285    8.0638 C   0  0  0  0  0  0  0  0  0  0  0  0
    7.8101   43.8763   17.2186 N   0  0  0  0  0  0  0  0  0  0  0  0
    9.2967   43.0419   14.9928 N   0  0  0  0  0  0  0  0  0  0  0  0
   11.5281   42.4031   14.2865 N   0  0  0  0  0  0  0  0  0  0  0  0
   12.4684   38.9067   11.0194 N   0  0  0  0  0  0  0  0  0  0  0  0
   14.2023   39.9437   11.9964 N   0  0  0  0  0  0  0  0  0  0  0  0
   16.5976   39.6076    9.7096 N   0  0  0  0  0  0  0  0  0  0  0  0
   13.4731   43.3177    5.5370 N   0  0  0  0  0  0  0  0  0  0  0  0
   13.5720   38.4296   10.5311 O   0  0  0  0  0  0  0  0  0  0  0  0
   15.0527   44.8864    4.7883 O   0  0  0  0  0  0  0  0  0  0  0  0
  1 26  1  0
  2 26  1  0
  2  3  1  0
  3 27  1  0
  4 27  1  0
  4  5  1  0
  5 26  1  0
  6 28  2  0
  7  8  2  0
  9 10  2  0
  9 11  1  0
 11 30  1  0
 12 33  1  0
 13 12  1  1
 13 14  1  0
 13 31  1  0
 14 15  1  0
 15 16  1  0
 16 31  1  0
 17 31  1  0
 17 18  1  0
 19 20  2  0
 21 32  1  0
 21 24  2  0
 23 22  1  0
 25 18  2  0
 27  6  1  0
 29 33  1  0
 32 22  1  0
  6  7  1  0
  8  9  1  0
 10 28  1  0
 11 29  2  0
 12 30  2  0
 18 19  1  0
 20 21  1  0
 22 34  2  0
 24 25  1  0
M  END
>  <rmsd>  (458) 
0.241234422

$$$$
MolPort-020-295-333 MCULE-5513549119 PubChem-110267415
     RDKit          3D

 32 35  0  0  0  0  0  0  0  0999 V2000
   15.0188   47.4361    2.0020 C   0  0  0  0  0  0  0  0  0  0  0  0
   14.6005   46.3512    2.9272 C   0  0  0  0  0  0  0  0  0  0  0  0
   15.4639   45.9080    3.9304 C   0  0  0  0  0  0  0  0  0  0  0  0
   13.8482   44.3260    4.6720 C   0  0  0  0  0  0  0  0  0  0  0  0
   12.9596   44.7467    3.6784 C   0  0  0  0  0  0  0  0  0  0  0  0
   13.3405   45.7649    2.8026 C   0  0  0  0  0  0  0  0  0  0  0  0
   14.2292   42.7317    6.6343 C   0  0  0  0  0  0  0  0  0  0  0  0
   16.2226   42.6667    7.9097 C   0  0  0  0  0  0  0  0  0  0  0  0
   15.6975   41.6466    8.6995 C   0  0  0  0  0  0  0  0  0  0  0  0
   14.4065   41.1852    8.4202 C   0  0  0  0  0  0  0  0  0  0  0  0
   13.7840   40.0918    9.2285 C   0  0  2  0  0  0  0  0  0  0  0  0
   13.6362   40.5047   10.6955 C   0  0  0  0  0  0  0  0  0  0  0  0
   12.9896   39.3813   11.5026 C   0  0  0  0  0  0  0  0  0  0  0  0
   13.8265   38.1120   11.3839 C   0  0  0  0  0  0  0  0  0  0  0  0
   14.5840   38.7935    9.1047 C   0  0  0  0  0  0  0  0  0  0  0  0
   13.7609   36.4490    9.4671 C   0  0  0  0  0  0  0  0  0  0  0  0
   12.8112   35.5130   10.1142 C   0  0  0  0  0  0  0  0  0  0  0  0
   12.8650   34.1451    9.8084 C   0  0  0  0  0  0  0  0  0  0  0  0
   11.9603   33.2510   10.3878 C   0  0  0  0  0  0  0  0  0  0  0  0
   10.9831   33.7093   11.2760 C   0  0  0  0  0  0  0  0  0  0  0  0
   10.9173   35.0776   11.5749 C   0  0  0  0  0  0  0  0  0  0  0  0
   11.8217   35.9712   10.9955 C   0  0  0  0  0  0  0  0  0  0  0  0
    9.0140   33.0414   12.7747 C   0  0  0  0  0  0  0  0  0  0  0  0
    8.1653   31.9258   13.2673 C   0  0  0  0  0  0  0  0  0  0  0  0
   15.0736   44.9144    4.7736 N   0  0  0  0  0  0  0  0  0  0  0  0
   13.4481   43.2805    5.5659 N   0  0  0  0  0  0  0  0  0  0  0  0
   15.4842   43.1888    6.8966 N   0  0  0  0  0  0  0  0  0  0  0  0
   13.7032   41.7365    7.3963 N   0  0  0  0  0  0  0  0  0  0  0  0
   13.9995   37.7752    9.9728 N   0  0  0  0  0  0  0  0  0  0  0  0
   10.0733   32.7613   11.8509 N   0  0  0  0  0  0  0  0  0  0  0  0
   14.3717   36.0707    8.4296 O   0  0  0  0  0  0  0  0  0  0  0  0
    8.7884   34.2129   13.1775 O   0  0  0  0  0  0  0  0  0  0  0  0
  1  2  1  0
  3 25  2  0
  4  5  2  0
  4 26  1  0
  6  2  2  0
  7 28  2  0
  8 27  2  0
  9 10  2  0
 11 10  1  6
 11 12  1  0
 12 13  1  0
 13 14  1  0
 14 29  1  0
 15 29  1  0
 15 11  1  0
 16 17  1  0
 18 19  2  0
 20 21  2  0
 20 30  1  0
 22 17  2  0
 24 23  1  0
 26  7  1  0
 29 16  1  0
 30 23  1  0
  2  3  1  0
  4 25  1  0
  5  6  1  0
  7 27  1  0
  8  9  1  0
 10 28  1  0
 16 31  2  0
 17 18  1  0
 19 20  1  0
 21 22  1  0
 23 32  2  0
M  END
>  <rmsd>  (459) 
0.24123016

$$$$
MolPort-051-666-749 MCULE-8495745083 PubChem-110095884
     RDKit          3D

 22 24  0  0  0  0  0  0  0  0999 V2000
   13.4883   39.2830   11.7946 C   0  0  0  0  0  0  0  0  0  0  0  0
   14.2828   40.2144   10.8775 C   0  0  0  0  0  0  0  0  0  0  0  0
   13.4882   40.5557    9.6091 C   0  0  2  0  0  0  0  0  0  0  0  0
   12.9479   39.2982    8.9019 C   0  0  0  0  0  0  0  0  0  0  0  0
   12.6776   38.2432   11.0131 C   0  0  0  0  0  0  0  0  0  0  0  0
   12.4295   37.0194    9.0238 C   0  0  0  0  0  0  0  0  0  0  0  0
   13.1445   35.6857    9.1547 C   0  0  0  0  0  0  0  0  0  0  0  0
   14.2437   41.4187    8.6361 C   0  0  0  0  0  0  0  0  0  0  0  0
   15.6178   41.6580    8.7638 C   0  0  0  0  0  0  0  0  0  0  0  0
   15.5794   42.9857    6.8066 C   0  0  0  0  0  0  0  0  0  0  0  0
   14.2071   42.7502    6.6656 C   0  0  0  0  0  0  0  0  0  0  0  0
   13.8943   44.2543    4.6109 C   0  0  0  0  0  0  0  0  0  0  0  0
   15.4792   45.8537    3.8642 C   0  0  0  0  0  0  0  0  0  0  0  0
   14.6721   46.1394    2.7614 C   0  0  0  0  0  0  0  0  0  0  0  0
   13.0827   44.5529    3.5142 C   0  0  0  0  0  0  0  0  0  0  0  0
   13.2055   38.0714    9.6601 N   0  0  0  0  0  0  0  0  0  0  0  0
   16.2526   42.4365    7.8503 N   0  0  0  0  0  0  0  0  0  0  0  0
   13.5784   41.9715    7.5856 N   0  0  0  0  0  0  0  0  0  0  0  0
   13.4533   43.2833    5.5686 N   0  0  0  0  0  0  0  0  0  0  0  0
   15.0738   44.9181    4.7626 N   0  0  0  0  0  0  0  0  0  0  0  0
   13.4907   45.4841    2.6112 N   0  0  0  0  0  0  0  0  0  0  0  0
   14.3184   35.6988    8.3995 O   0  0  0  0  0  0  0  0  0  0  0  0
  1  2  1  0
  2  3  1  0
  3  4  1  0
  3  8  1  6
  4 16  1  0
  5 16  1  0
  5  1  1  0
  6 16  1  0
  6  7  1  0
  7 22  1  0
  8 18  2  0
  9 17  2  0
 10 11  2  0
 11 19  1  0
 13 20  2  0
 14 21  2  0
 15 12  2  0
 19 12  1  0
  8  9  1  0
 10 17  1  0
 11 18  1  0
 12 20  1  0
 13 14  1  0
 15 21  1  0
M  END
>  <rmsd>  (460) 
0.24120824

$$$$
MolPort-002-902-369 CHEMBL1337741 CSSS01394277748 MCULE-6597916471 PubChem-2814932
     RDKit          3D

 27 29  0  0  0  0  0  0  0  0999 V2000
   13.3994   39.3007   11.3997 C   0  0  0  0  0  0  0  0  0  0  0  0
   14.8872   39.5213   11.6503 C   0  0  1  0  0  0  0  0  0  0  0  0
   15.4480   38.8053   12.8586 C   0  0  0  0  0  0  0  0  0  0  0  0
   15.0239   37.3854   12.9196 C   0  0  0  0  0  0  0  0  0  0  0  0
   15.4170   36.7096   10.4125 C   0  0  0  0  0  0  0  0  0  0  0  0
   15.6917   37.9663    9.7873 C   0  0  0  0  0  0  0  0  0  0  0  0
   15.9732   37.9726    8.4081 C   0  0  0  0  0  0  0  0  0  0  0  0
   15.9877   36.8016    7.6551 C   0  0  0  0  0  0  0  0  0  0  0  0
   15.7178   35.5849    8.2686 C   0  0  0  0  0  0  0  0  0  0  0  0
   15.4358   35.5460    9.6317 C   0  0  0  0  0  0  0  0  0  0  0  0
   15.7515   41.4027    8.5892 C   0  0  0  0  0  0  0  0  0  0  0  0
   16.3239   42.4608    7.8555 C   0  0  0  0  0  0  0  0  0  0  0  0
   15.5804   43.0910    6.8532 C   0  0  0  0  0  0  0  0  0  0  0  0
   14.2692   42.6844    6.5694 C   0  0  0  0  0  0  0  0  0  0  0  0
   13.8896   44.3917    4.6963 C   0  0  0  0  0  0  0  0  0  0  0  0
   12.9362   44.9193    3.6862 C   0  0  0  0  0  0  0  0  0  0  0  0
   13.7053   41.6385    7.3040 C   0  0  0  0  0  0  0  0  0  0  0  0
   14.4403   41.0035    8.3068 C   0  0  0  0  0  0  0  0  0  0  0  0
   14.5731   36.9446   14.0080 O   0  0  0  0  0  0  0  0  0  0  0  0
   17.9443   40.0528    9.3360 O   0  0  0  0  0  0  0  0  0  0  0  0
   16.9157   41.5372   10.9853 O   0  0  0  0  0  0  0  0  0  0  0  0
   15.0373   44.9019    4.7873 O   0  0  0  0  0  0  0  0  0  0  0  0
   15.1050   36.5013   11.8001 N   0  0  0  0  0  0  0  0  0  0  0  0
   15.6965   39.2378   10.4773 N   0  0  0  0  0  0  0  0  0  0  0  0
   13.4838   43.3120    5.5468 N   0  0  0  0  0  0  0  0  0  0  0  0
   16.6368   40.5718    9.8669 S   0  0  0  0  0  0  0  0  0  0  0  0
   17.9566   43.0355    8.1585 Cl  0  0  0  0  0  0  0  0  0  0  0  0
  2  1  1  6
  2  3  1  0
  2 24  1  0
  3  4  1  0
  4 23  1  0
  6  7  2  0
  6 24  1  0
  8  9  2  0
 10  5  2  0
 12 27  1  0
 12 13  2  0
 14 25  1  0
 14 17  2  0
 16 15  1  0
 18 11  2  0
 23  5  1  0
 25 15  1  0
 26 24  1  0
 26 11  1  0
  4 19  2  0
  5  6  1  0
  7  8  1  0
  9 10  1  0
 11 12  1  0
 13 14  1  0
 15 22  2  0
 17 18  1  0
 26 20  2  0
 26 21  2  0
M  END
>  <rmsd>  (461) 
0.241174564

$$$$
Molport-053-137-771 MCULE-5500560604
     RDKit          3D

 22 24  0  0  0  0  0  0  0  0999 V2000
   14.2255   42.7102    6.6422 C   0  0  0  0  0  0  0  0  0  0  0  0
   16.2305   42.6081    7.8981 C   0  0  0  0  0  0  0  0  0  0  0  0
   15.6897   41.6058    8.7003 C   0  0  0  0  0  0  0  0  0  0  0  0
   14.3842   41.1752    8.4396 C   0  0  0  0  0  0  0  0  0  0  0  0
   13.7459   40.1057    9.2666 C   0  0  2  0  0  0  0  0  0  0  0  0
   13.6061   40.5475   10.7263 C   0  0  0  0  0  0  0  0  0  0  0  0
   13.0762   39.4080   11.5999 C   0  0  0  0  0  0  0  0  0  0  0  0
   13.6820   38.0473   11.2247 C   0  0  0  0  0  0  0  0  0  0  0  0
   15.4114   36.8792   10.1555 C   0  0  0  0  0  0  0  0  0  0  0  0
   16.6311   36.6417   10.9782 C   0  0  0  0  0  0  0  0  0  0  0  0
   14.4999   38.7704    9.1190 C   0  0  0  0  0  0  0  0  0  0  0  0
   13.8766   44.3137    4.6962 C   0  0  0  0  0  0  0  0  0  0  0  0
   14.1050   46.0443    2.9621 C   0  0  0  0  0  0  0  0  0  0  0  0
   15.2064   45.8849    3.8052 C   0  0  0  0  0  0  0  0  0  0  0  0
   15.4938   43.1399    6.8884 N   0  0  0  0  0  0  0  0  0  0  0  0
   14.8888   38.2104   10.4152 N   0  0  0  0  0  0  0  0  0  0  0  0
   17.7840   37.4571   10.8014 N   0  0  0  0  0  0  0  0  0  0  0  0
   13.6821   41.7371    7.4204 N   0  0  0  0  0  0  0  0  0  0  0  0
   13.4483   43.2714    5.5786 N   0  0  0  0  0  0  0  0  0  0  0  0
   15.0758   44.9271    4.7629 N   0  0  0  0  0  0  0  0  0  0  0  0
   16.6434   35.7149   11.8282 O   0  0  0  0  0  0  0  0  0  0  0  0
   12.9385   44.9334    3.4584 S   0  0  0  0  0  0  0  0  0  0  0  0
  1 19  1  0
  1 18  2  0
  2 15  2  0
  3  4  2  0
  5  4  1  6
  5  6  1  0
  6  7  1  0
  7  8  1  0
  8 16  1  0
  9 16  1  0
  9 10  1  0
 10 17  1  0
 11 16  1  0
 11  5  1  0
 12 22  1  0
 13 22  1  0
 14 20  1  0
 19 12  1  0
  1 15  1  0
  2  3  1  0
  4 18  1  0
 10 21  2  0
 12 20  2  0
 13 14  2  0
M  END
>  <rmsd>  (462) 
0.241154402

$$$$
MolPort-020-295-317 MCULE-6072814269 PubChem-110267399
     RDKit          3D

 28 31  0  0  0  0  0  0  0  0999 V2000
   15.0158   47.4369    2.0022 C   0  0  0  0  0  0  0  0  0  0  0  0
   14.5985   46.3519    2.9277 C   0  0  0  0  0  0  0  0  0  0  0  0
   15.4626   45.9090    3.9304 C   0  0  0  0  0  0  0  0  0  0  0  0
   13.8478   44.3263    4.6725 C   0  0  0  0  0  0  0  0  0  0  0  0
   12.9587   44.7464    3.6792 C   0  0  0  0  0  0  0  0  0  0  0  0
   13.3388   45.7650    2.8034 C   0  0  0  0  0  0  0  0  0  0  0  0
   14.2305   42.7317    6.6343 C   0  0  0  0  0  0  0  0  0  0  0  0
   16.2245   42.6674    7.9089 C   0  0  0  0  0  0  0  0  0  0  0  0
   15.7002   41.6471    8.6989 C   0  0  0  0  0  0  0  0  0  0  0  0
   14.4091   41.1852    8.4202 C   0  0  0  0  0  0  0  0  0  0  0  0
   13.7874   40.0916    9.2288 C   0  0  2  0  0  0  0  0  0  0  0  0
   13.6422   40.5035   10.6962 C   0  0  0  0  0  0  0  0  0  0  0  0
   12.9875   39.3829   11.5012 C   0  0  0  0  0  0  0  0  0  0  0  0
   13.8149   38.1065   11.3856 C   0  0  0  0  0  0  0  0  0  0  0  0
   14.5883   38.7942    9.1053 C   0  0  0  0  0  0  0  0  0  0  0  0
   13.6084   36.5029    9.4464 C   0  0  0  0  0  0  0  0  0  0  0  0
   13.0272   35.4479   10.3334 C   0  0  0  0  0  0  0  0  0  0  0  0
   14.1273   34.6560   11.0215 C   0  0  0  0  0  0  0  0  0  0  0  0
   14.7592   33.6567   10.0663 C   0  0  0  0  0  0  0  0  0  0  0  0
   14.8265   32.3278   10.7976 C   0  0  0  0  0  0  0  0  0  0  0  0
   14.3930   32.5974   12.2227 C   0  0  0  0  0  0  0  0  0  0  0  0
   13.5440   33.8439   12.1548 C   0  0  0  0  0  0  0  0  0  0  0  0
   15.0731   44.9151    4.7737 N   0  0  0  0  0  0  0  0  0  0  0  0
   13.4488   43.2803    5.5665 N   0  0  0  0  0  0  0  0  0  0  0  0
   15.4854   43.1893    6.8963 N   0  0  0  0  0  0  0  0  0  0  0  0
   13.7053   41.7364    7.3966 N   0  0  0  0  0  0  0  0  0  0  0  0
   14.0055   37.7768    9.9753 N   0  0  0  0  0  0  0  0  0  0  0  0
   13.7668   36.2487    8.2222 O   0  0  0  0  0  0  0  0  0  0  0  0
  1  2  1  0
  3 23  2  0
  4  5  2  0
  4 24  1  0
  6  2  2  0
  7 26  2  0
  8 25  2  0
  9 10  2  0
 11 10  1  6
 11 12  1  0
 12 13  1  0
 13 14  1  0
 14 27  1  0
 15 27  1  0
 15 11  1  0
 17 16  1  0
 17 18  1  0
 18 19  1  0
 19 20  1  0
 20 21  1  0
 21 22  1  0
 22 18  1  0
 24  7  1  0
 27 16  1  0
  2  3  1  0
  4 23  1  0
  5  6  1  0
  7 25  1  0
  8  9  1  0
 10 26  1  0
 16 28  2  0
M  END
>  <rmsd>  (463) 
0.241119593

$$$$
MolPort-020-295-094 MCULE-2560501570 PubChem-110267191
     RDKit          3D

 29 32  0  0  0  0  0  0  0  0999 V2000
   15.0163   47.4328    1.9988 C   0  0  0  0  0  0  0  0  0  0  0  0
   14.5986   46.3488    2.9254 C   0  0  0  0  0  0  0  0  0  0  0  0
   15.4625   45.9074    3.9289 C   0  0  0  0  0  0  0  0  0  0  0  0
   13.8479   44.3252    4.6724 C   0  0  0  0  0  0  0  0  0  0  0  0
   12.9588   44.7441    3.6786 C   0  0  0  0  0  0  0  0  0  0  0  0
   13.3390   45.7616    2.8016 C   0  0  0  0  0  0  0  0  0  0  0  0
   14.2308   42.7317    6.6352 C   0  0  0  0  0  0  0  0  0  0  0  0
   16.2258   42.6662    7.9082 C   0  0  0  0  0  0  0  0  0  0  0  0
   15.7010   41.6468    8.6992 C   0  0  0  0  0  0  0  0  0  0  0  0
   14.4092   41.1864    8.4222 C   0  0  0  0  0  0  0  0  0  0  0  0
   13.7866   40.0938    9.2316 C   0  0  2  0  0  0  0  0  0  0  0  0
   13.6476   40.5043   10.6994 C   0  0  0  0  0  0  0  0  0  0  0  0
   12.9904   39.3850   11.5030 C   0  0  0  0  0  0  0  0  0  0  0  0
   13.8057   38.1011   11.3785 C   0  0  0  0  0  0  0  0  0  0  0  0
   14.5861   38.7963    9.1094 C   0  0  0  0  0  0  0  0  0  0  0  0
   13.4597   36.5693    9.3841 C   0  0  0  0  0  0  0  0  0  0  0  0
   13.2099   35.3455   10.1821 C   0  0  0  0  0  0  0  0  0  0  0  0
   12.3787   34.3378    9.6684 C   0  0  0  0  0  0  0  0  0  0  0  0
   12.1522   33.1648   10.3941 C   0  0  0  0  0  0  0  0  0  0  0  0
   12.7610   32.9851   11.6383 C   0  0  0  0  0  0  0  0  0  0  0  0
   13.6005   33.9754   12.1541 C   0  0  0  0  0  0  0  0  0  0  0  0
   13.8260   35.1477   11.4272 C   0  0  0  0  0  0  0  0  0  0  0  0
   15.0730   44.9145    4.7733 N   0  0  0  0  0  0  0  0  0  0  0  0
   13.4487   43.2803    5.5676 N   0  0  0  0  0  0  0  0  0  0  0  0
   15.4863   43.1883    6.8959 N   0  0  0  0  0  0  0  0  0  0  0  0
   13.7051   41.7374    7.3986 N   0  0  0  0  0  0  0  0  0  0  0  0
   13.9928   37.7732    9.9665 N   0  0  0  0  0  0  0  0  0  0  0  0
   13.2021   36.5491    8.1487 O   0  0  0  0  0  0  0  0  0  0  0  0
   12.4768   31.5175   12.5482 Cl  0  0  0  0  0  0  0  0  0  0  0  0
  1  2  1  0
  3 23  2  0
  4  5  2  0
  4 24  1  0
  6  2  2  0
  7 26  2  0
  8 25  2  0
  9 10  2  0
 11 10  1  6
 11 12  1  0
 12 13  1  0
 13 14  1  0
 14 27  1  0
 15 27  1  0
 15 11  1  0
 16 17  1  0
 18 19  2  0
 20 21  2  0
 20 29  1  0
 22 17  2  0
 24  7  1  0
 27 16  1  0
  2  3  1  0
  4 23  1  0
  5  6  1  0
  7 25  1  0
  8  9  1  0
 10 26  1  0
 16 28  2  0
 17 18  1  0
 19 20  1  0
 21 22  1  0
M  END
>  <rmsd>  (464) 
0.241108447

$$$$
Molport-020-275-222 MCULE-6160990549 PubChem-110252899
     RDKit          3D

 28 31  0  0  0  0  0  0  0  0999 V2000
   16.7823   46.5352    4.0343 C   0  0  0  0  0  0  0  0  0  0  0  0
   15.4391   45.9131    3.9061 C   0  0  0  0  0  0  0  0  0  0  0  0
   13.8434   44.3241    4.6761 C   0  0  0  0  0  0  0  0  0  0  0  0
   12.9405   44.7340    3.6913 C   0  0  0  0  0  0  0  0  0  0  0  0
   13.3040   45.7503    2.8060 C   0  0  0  0  0  0  0  0  0  0  0  0
   14.5613   46.3467    2.9107 C   0  0  0  0  0  0  0  0  0  0  0  0
   14.2365   42.7225    6.6491 C   0  0  0  0  0  0  0  0  0  0  0  0
   14.3886   41.1619    8.4328 C   0  0  0  0  0  0  0  0  0  0  0  0
   15.6833   41.6138    8.7170 C   0  0  0  0  0  0  0  0  0  0  0  0
   15.5319   43.1692    6.9399 C   0  0  0  0  0  0  0  0  0  0  0  0
   13.7508   40.0709    9.2320 C   0  0  2  0  0  0  0  0  0  0  0  0
   13.6061   40.4753   10.7007 C   0  0  0  0  0  0  0  0  0  0  0  0
   12.9346   39.3574   11.4948 C   0  0  0  0  0  0  0  0  0  0  0  0
   13.7402   38.0674   11.3690 C   0  0  0  0  0  0  0  0  0  0  0  0
   14.5408   38.7676    9.1085 C   0  0  0  0  0  0  0  0  0  0  0  0
   13.3963   36.5476    9.3646 C   0  0  0  0  0  0  0  0  0  0  0  0
   13.1314   35.3219   10.1548 C   0  0  0  0  0  0  0  0  0  0  0  0
   12.2993   34.3213    9.6285 C   0  0  0  0  0  0  0  0  0  0  0  0
   12.0584   33.1464   10.3466 C   0  0  0  0  0  0  0  0  0  0  0  0
   12.6539   32.9570   11.5959 C   0  0  0  0  0  0  0  0  0  0  0  0
   13.4926   33.9407   12.1251 C   0  0  0  0  0  0  0  0  0  0  0  0
   13.7327   35.1151   11.4058 C   0  0  0  0  0  0  0  0  0  0  0  0
   15.0656   44.9213    4.7589 N   0  0  0  0  0  0  0  0  0  0  0  0
   13.4590   43.2793    5.5797 N   0  0  0  0  0  0  0  0  0  0  0  0
   13.7004   41.7284    7.4064 N   0  0  0  0  0  0  0  0  0  0  0  0
   16.2245   42.6065    7.9644 N   0  0  0  0  0  0  0  0  0  0  0  0
   13.9337   37.7450    9.9565 N   0  0  0  0  0  0  0  0  0  0  0  0
   13.1481   36.5350    8.1273 O   0  0  0  0  0  0  0  0  0  0  0  0
  1  2  1  0
  3 23  2  0
  3 24  1  0
  4  5  2  0
  6  2  2  0
  8 25  2  0
  9 26  2  0
 10  7  2  0
 11  8  1  6
 11 12  1  0
 12 13  1  0
 13 14  1  0
 14 27  1  0
 15 27  1  0
 15 11  1  0
 16 17  1  0
 18 19  2  0
 20 21  2  0
 22 17  2  0
 24  7  1  0
 27 16  1  0
  2 23  1  0
  3  4  1  0
  5  6  1  0
  7 25  1  0
  8  9  1  0
 10 26  1  0
 16 28  2  0
 17 18  1  0
 19 20  1  0
 21 22  1  0
M  END
>  <rmsd>  (465) 
0.241090015

$$$$
MolPort-006-579-742 ChemDiv-V020-2678 MCULE-3735395336 PubChem-46040706 ZINC000037543492 ZINC37543492
     RDKit          3D

 31 34  0  0  0  0  0  0  0  0999 V2000
   10.9330   35.9224    4.9705 C   0  0  0  0  0  0  0  0  0  0  0  0
   11.0335   35.1968    7.3324 C   0  0  0  0  0  0  0  0  0  0  0  0
   11.2023   34.1499    8.2444 C   0  0  0  0  0  0  0  0  0  0  0  0
   11.1501   34.3959    9.6197 C   0  0  0  0  0  0  0  0  0  0  0  0
   10.9276   35.6925   10.0903 C   0  0  0  0  0  0  0  0  0  0  0  0
   10.7539   36.7451    9.1860 C   0  0  0  0  0  0  0  0  0  0  0  0
   10.5363   38.1348    9.6834 C   0  0  0  0  0  0  0  0  0  0  0  0
   12.3883   38.5730   11.3142 C   0  0  0  0  0  0  0  0  0  0  0  0
   13.3789   39.6784   11.6612 C   0  0  0  0  0  0  0  0  0  0  0  0
   14.4272   39.7577   10.5621 C   0  0  0  0  0  0  0  0  0  0  0  0
   12.5575   39.4472    8.9538 C   0  0  0  0  0  0  0  0  0  0  0  0
   14.4029   41.1214    8.4549 C   0  0  0  0  0  0  0  0  0  0  0  0
   15.7213   41.5431    8.6982 C   0  0  0  0  0  0  0  0  0  0  0  0
   16.3093   42.5381    7.9141 C   0  0  0  0  0  0  0  0  0  0  0  0
   15.5841   43.1275    6.8779 C   0  0  0  0  0  0  0  0  0  0  0  0
   14.2659   42.7269    6.6194 C   0  0  0  0  0  0  0  0  0  0  0  0
   13.8994   44.3567    4.6755 C   0  0  0  0  0  0  0  0  0  0  0  0
   12.9514   44.8459    3.6358 C   0  0  0  0  0  0  0  0  0  0  0  0
   11.9842   45.8093    4.2319 C   0  0  0  0  0  0  0  0  0  0  0  0
   10.7486   45.4816    4.7624 C   0  0  0  0  0  0  0  0  0  0  0  0
   10.0859   46.5914    5.3058 C   0  0  0  0  0  0  0  0  0  0  0  0
   10.7963   47.7868    5.2179 C   0  0  0  0  0  0  0  0  0  0  0  0
   13.6861   41.7305    7.4111 C   0  0  0  0  0  0  0  0  0  0  0  0
   10.8099   36.4976    7.8109 C   0  0  0  0  0  0  0  0  0  0  0  0
   11.0945   34.9198    5.9640 O   0  0  0  0  0  0  0  0  0  0  0  0
   12.1240   39.4568    7.7693 O   0  0  0  0  0  0  0  0  0  0  0  0
   15.0344   44.8930    4.7765 O   0  0  0  0  0  0  0  0  0  0  0  0
   11.8095   38.7779    9.9859 N   0  0  0  0  0  0  0  0  0  0  0  0
   13.7964   40.1084    9.2893 N   0  0  0  0  0  0  0  0  0  0  0  0
   13.4885   43.3094    5.5647 N   0  0  0  0  0  0  0  0  0  0  0  0
   12.2566   47.4463    4.4544 S   0  0  0  0  0  0  0  0  0  0  0  0
  1 25  1  0
  2 25  1  0
  3  4  2  0
  5  6  2  0
  7  6  1  0
  7 28  1  0
  8 28  1  0
  8  9  1  0
  9 10  1  0
 10 29  1  0
 11 28  1  0
 13 14  2  0
 15 16  2  0
 16 30  1  0
 18 17  1  0
 18 19  1  0
 19 31  1  0
 20 21  1  0
 22 31  1  0
 23 12  2  0
 24  2  2  0
 29 11  1  0
 29 12  1  0
 30 17  1  0
  2  3  1  0
  4  5  1  0
  6 24  1  0
 11 26  2  0
 12 13  1  0
 14 15  1  0
 16 23  1  0
 17 27  2  0
 19 20  2  0
 21 22  2  0
M  END
>  <rmsd>  (466) 
0.24108541

$$$$
MolPort-023-267-087 77485327 CSSS00159611192 MCULE-1191038835 PubChem-70766615 ZINC000077485327 ZINC77485327
     RDKit          3D

 26 28  0  0  0  0  0  0  0  0999 V2000
   11.9685   46.6467    4.2387 C   0  0  0  0  0  0  0  0  0  0  0  0
   11.7914   45.2077    3.7912 C   0  0  0  0  0  0  0  0  0  0  0  0
   13.1301   44.6042    3.3959 C   0  0  0  0  0  0  0  0  0  0  0  0
   13.9517   44.2822    4.5987 C   0  0  0  0  0  0  0  0  0  0  0  0
   14.2554   42.7754    6.6223 C   0  0  0  0  0  0  0  0  0  0  0  0
   15.5552   42.2559    6.4320 C   0  0  0  0  0  0  0  0  0  0  0  0
   16.1912   42.1839    5.0858 C   0  0  0  0  0  0  0  0  0  0  0  0
   16.2549   41.7232    7.5188 C   0  0  0  0  0  0  0  0  0  0  0  0
   15.6742   41.6766    8.7930 C   0  0  0  0  0  0  0  0  0  0  0  0
   14.3804   42.1828    8.9725 C   0  0  0  0  0  0  0  0  0  0  0  0
   13.6743   42.7157    7.8926 C   0  0  0  0  0  0  0  0  0  0  0  0
   17.7231   41.4465   10.1377 C   0  0  0  0  0  0  0  0  0  0  0  0
   18.0669   40.8918   11.3557 C   0  0  0  0  0  0  0  0  0  0  0  0
   16.0066   40.4526   10.9763 C   0  0  0  0  0  0  0  0  0  0  0  0
   14.6770   39.8286   11.1355 C   0  0  0  0  0  0  0  0  0  0  0  0
   13.9351   39.3838   10.0376 C   0  0  0  0  0  0  0  0  0  0  0  0
   12.2425   38.5754   11.4744 C   0  0  0  0  0  0  0  0  0  0  0  0
   10.9374   37.8846   11.6581 C   0  0  0  0  0  0  0  0  0  0  0  0
   11.1555   36.3881   11.7626 C   0  0  0  0  0  0  0  0  0  0  0  0
   14.1619   39.5870   12.4116 C   0  0  0  0  0  0  0  0  0  0  0  0
   15.0433   44.8839    4.7814 O   0  0  0  0  0  0  0  0  0  0  0  0
   13.4788   43.3189    5.5470 N   0  0  0  0  0  0  0  0  0  0  0  0
   16.4266   41.1695    9.9074 N   0  0  0  0  0  0  0  0  0  0  0  0
   16.9898   40.2722   11.8796 N   0  0  0  0  0  0  0  0  0  0  0  0
   12.7368   38.7726   10.2240 N   0  0  0  0  0  0  0  0  0  0  0  0
   12.9597   38.9719   12.5586 N   0  0  0  0  0  0  0  0  0  0  0  0
  1  2  1  0
  2  3  1  0
  3  4  1  0
  4 22  1  0
  6  8  2  0
  7  6  1  0
  9 10  2  0
  9 23  1  0
 11  5  2  0
 13 24  1  0
 14 15  1  0
 14 23  1  0
 16 25  2  0
 17 26  2  0
 18 17  1  0
 18 19  1  0
 20 15  2  0
 22  5  1  0
 23 12  1  0
  4 21  2  0
  5  6  1  0
  8  9  1  0
 10 11  1  0
 12 13  2  0
 14 24  2  0
 15 16  1  0
 17 25  1  0
 20 26  1  0
M  END
>  <rmsd>  (467) 
0.241068497

$$$$
Molport-020-279-139 MCULE-6787132384 PubChem-110255894
     RDKit          3D

 24 26  0  0  0  0  0  0  0  0999 V2000
   13.2278   35.3224    6.0302 C   0  0  0  0  0  0  0  0  0  0  0  0
   14.0710   36.0406    8.0791 C   0  0  0  0  0  0  0  0  0  0  0  0
   13.7629   36.4029    9.4956 C   0  0  0  0  0  0  0  0  0  0  0  0
   13.7279   38.0689   11.3762 C   0  0  0  0  0  0  0  0  0  0  0  0
   12.9219   39.3600   11.4844 C   0  0  0  0  0  0  0  0  0  0  0  0
   13.6060   40.4736   10.6970 C   0  0  0  0  0  0  0  0  0  0  0  0
   13.7539   40.0672    9.2300 C   0  0  2  0  0  0  0  0  0  0  0  0
   14.5467   38.7657    9.1087 C   0  0  0  0  0  0  0  0  0  0  0  0
   14.3916   41.1584    8.4309 C   0  0  0  0  0  0  0  0  0  0  0  0
   15.6869   41.6095    8.7141 C   0  0  0  0  0  0  0  0  0  0  0  0
   15.5342   43.1664    6.9385 C   0  0  0  0  0  0  0  0  0  0  0  0
   14.2383   42.7206    6.6488 C   0  0  0  0  0  0  0  0  0  0  0  0
   13.8432   44.3240    4.6770 C   0  0  0  0  0  0  0  0  0  0  0  0
   12.9385   44.7345    3.6940 C   0  0  0  0  0  0  0  0  0  0  0  0
   13.3004   45.7512    2.8086 C   0  0  0  0  0  0  0  0  0  0  0  0
   14.5579   46.3474    2.9114 C   0  0  0  0  0  0  0  0  0  0  0  0
   15.4373   45.9134    3.9048 C   0  0  0  0  0  0  0  0  0  0  0  0
   12.8556   35.6306    7.3984 N   0  0  0  0  0  0  0  0  0  0  0  0
   13.9553   37.7436    9.9697 N   0  0  0  0  0  0  0  0  0  0  0  0
   16.2276   42.6026    7.9617 N   0  0  0  0  0  0  0  0  0  0  0  0
   13.7026   41.7262    7.4058 N   0  0  0  0  0  0  0  0  0  0  0  0
   13.4600   43.2788    5.5808 N   0  0  0  0  0  0  0  0  0  0  0  0
   15.0657   44.9212    4.7580 N   0  0  0  0  0  0  0  0  0  0  0  0
   13.3311   35.5113   10.2753 O   0  0  0  0  0  0  0  0  0  0  0  0
  1 18  1  0
  2 18  1  0
  2  3  1  0
  3 19  1  0
  4 19  1  0
  4  5  1  0
  5  6  1  0
  6  7  1  0
  7  8  1  0
  7  9  1  6
  8 19  1  0
  9 21  2  0
 10 20  2  0
 11 12  2  0
 12 22  1  0
 13 23  2  0
 14 15  2  0
 16 17  2  0
 22 13  1  0
  3 24  2  0
  9 10  1  0
 11 20  1  0
 12 21  1  0
 13 14  1  0
 15 16  1  0
 17 23  1  0
M  END
>  <rmsd>  (468) 
0.241063505

$$$$
MolPort-020-296-475 MCULE-6995063905 PubChem-110268417
     RDKit          3D

 33 37  0  0  0  0  0  0  0  0999 V2000
   15.0215   47.4272    1.9934 C   0  0  0  0  0  0  0  0  0  0  0  0
   14.6025   46.3449    2.9214 C   0  0  0  0  0  0  0  0  0  0  0  0
   15.4647   45.9055    3.9273 C   0  0  0  0  0  0  0  0  0  0  0  0
   13.8491   44.3246    4.6711 C   0  0  0  0  0  0  0  0  0  0  0  0
   12.9618   44.7412    3.6746 C   0  0  0  0  0  0  0  0  0  0  0  0
   13.3433   45.7570    2.7963 C   0  0  0  0  0  0  0  0  0  0  0  0
   14.2282   42.7366    6.6389 C   0  0  0  0  0  0  0  0  0  0  0  0
   16.2189   42.6783    7.9189 C   0  0  0  0  0  0  0  0  0  0  0  0
   15.6941   41.6587    8.7097 C   0  0  0  0  0  0  0  0  0  0  0  0
   14.4043   41.1947    8.4290 C   0  0  0  0  0  0  0  0  0  0  0  0
   13.7838   40.0986    9.2350 C   0  0  2  0  0  0  0  0  0  0  0  0
   13.6507   40.4994   10.7059 C   0  0  0  0  0  0  0  0  0  0  0  0
   12.9920   39.3763   11.5038 C   0  0  0  0  0  0  0  0  0  0  0  0
   13.8012   38.0885   11.3694 C   0  0  0  0  0  0  0  0  0  0  0  0
   14.5842   38.8038    9.1032 C   0  0  0  0  0  0  0  0  0  0  0  0
   13.4215   36.5835    9.3946 C   0  0  0  0  0  0  0  0  0  0  0  0
   13.8993   36.0158    8.1195 C   0  0  0  0  0  0  0  0  0  0  0  0
   15.2205   35.9807    7.6693 C   0  0  0  0  0  0  0  0  0  0  0  0
   15.1776   35.3153    6.4697 C   0  0  0  0  0  0  0  0  0  0  0  0
   13.8677   34.9784    6.2478 C   0  0  0  0  0  0  0  0  0  0  0  0
   13.4785   34.2720    5.1117 C   0  0  0  0  0  0  0  0  0  0  0  0
   14.4789   33.9123    4.1905 C   0  0  0  0  0  0  0  0  0  0  0  0
   15.8282   34.2562    4.4234 C   0  0  0  0  0  0  0  0  0  0  0  0
   16.1933   34.9658    5.5814 C   0  0  0  0  0  0  0  0  0  0  0  0
   16.4491   36.4310    8.3858 C   0  0  0  0  0  0  0  0  0  0  0  0
   15.0738   44.9143    4.7729 N   0  0  0  0  0  0  0  0  0  0  0  0
   13.4486   43.2812    5.5674 N   0  0  0  0  0  0  0  0  0  0  0  0
   15.4816   43.1969    6.9033 N   0  0  0  0  0  0  0  0  0  0  0  0
   13.7026   41.7421    7.4020 N   0  0  0  0  0  0  0  0  0  0  0  0
   13.9940   37.7750    9.9559 N   0  0  0  0  0  0  0  0  0  0  0  0
   13.0681   35.3884    7.2497 N   0  0  0  0  0  0  0  0  0  0  0  0
   12.4641   36.0156    9.9866 O   0  0  0  0  0  0  0  0  0  0  0  0
   16.7781   33.8976    3.5270 F   0  0  0  0  0  0  0  0  0  0  0  0
  1  2  1  0
  3 26  2  0
  4  5  2  0
  4 27  1  0
  6  2  2  0
  7 29  2  0
  8 28  2  0
  9 10  2  0
 11 10  1  6
 11 12  1  0
 12 13  1  0
 13 14  1  0
 14 30  1  0
 15 30  1  0
 15 11  1  0
 16 17  1  0
 18 19  1  0
 20 31  1  0
 20 21  2  0
 22 23  2  0
 23 33  1  0
 24 19  2  0
 25 18  1  0
 27  7  1  0
 30 16  1  0
 31 17  1  0
  2  3  1  0
  4 26  1  0
  5  6  1  0
  7 28  1  0
  8  9  1  0
 10 29  1  0
 16 32  2  0
 17 18  2  0
 19 20  1  0
 21 22  1  0
 23 24  1  0
M  END
>  <rmsd>  (469) 
0.241055116

$$$$
MolPort-039-219-020 299764338 CSSS02125518311 MCULE-6889923365 PubChem-118772150 ZINC000299764338
     RDKit          3D

 23 25  0  0  0  0  0  0  0  0999 V2000
   13.2285   38.8894   11.7503 C   0  0  0  0  0  0  0  0  0  0  0  0
   13.6643   39.7511   10.5869 C   0  0  0  0  0  0  0  0  0  0  0  0
   14.6177   39.3917    8.2612 C   0  0  0  0  0  0  0  0  0  0  0  0
   14.7859   40.8342    8.0120 C   0  0  0  0  0  0  0  0  0  0  0  0
   14.0694   41.4180    6.9600 C   0  0  0  0  0  0  0  0  0  0  0  0
   14.2535   42.7612    6.6243 C   0  0  0  0  0  0  0  0  0  0  0  0
   13.8538   44.4564    4.7688 C   0  0  0  0  0  0  0  0  0  0  0  0
   11.4712   44.7783    3.9879 C   0  0  0  0  0  0  0  0  0  0  0  0
   10.8370   45.5623    2.8532 C   0  0  0  0  0  0  0  0  0  0  0  0
   11.9790   45.9697    1.9319 C   0  0  1  0  0  0  0  0  0  0  0  0
   11.8696   47.4296    1.5717 C   0  0  0  0  0  0  0  0  0  0  0  0
   13.5770   47.2835    3.1715 C   0  0  0  0  0  0  0  0  0  0  0  0
   13.2427   45.8610    2.7473 C   0  0  1  0  0  0  0  0  0  0  0  0
   15.1596   43.5370    7.3574 C   0  0  0  0  0  0  0  0  0  0  0  0
   15.8823   42.9649    8.4042 C   0  0  0  0  0  0  0  0  0  0  0  0
   15.7151   41.6147    8.7293 C   0  0  0  0  0  0  0  0  0  0  0  0
   14.1484   38.8952    9.5149 N   0  0  0  0  0  0  0  0  0  0  0  0
   13.4841   43.3162    5.5538 N   0  0  0  0  0  0  0  0  0  0  0  0
   12.8877   45.0675    3.9074 N   0  0  0  0  0  0  0  0  0  0  0  0
   12.6351   48.2025    2.5411 N   0  0  0  0  0  0  0  0  0  0  0  0
   14.8305   38.5773    7.3212 O   0  0  0  0  0  0  0  0  0  0  0  0
   15.0372   44.8812    4.7850 O   0  0  0  0  0  0  0  0  0  0  0  0
   16.7663   40.9247    9.9588 Cl  0  0  0  0  0  0  0  0  0  0  0  0
  1  2  1  0
  2 17  1  0
  3  4  1  0
  5  6  2  0
  6 18  1  0
  7 19  1  0
  8 19  1  0
  8  9  1  0
 10  9  1  1
 10 11  1  0
 11 20  1  0
 12 20  1  0
 13 12  1  1
 13 19  1  0
 13 10  1  0
 14 15  2  0
 16 23  1  0
 16  4  2  0
 17  3  1  0
 18  7  1  0
  3 21  2  0
  4  5  1  0
  6 14  1  0
  7 22  2  0
 15 16  1  0
M  END
>  <rmsd>  (470) 
0.241015613

$$$$
MolPort-046-958-708 MCULE-1415893023 PubChem-110094059
     RDKit          3D

 22 24  0  0  0  0  0  0  0  0999 V2000
   13.2812   35.3212   10.3876 C   0  0  0  0  0  0  0  0  0  0  0  0
   13.7990   36.3975    9.4942 C   0  0  0  0  0  0  0  0  0  0  0  0
   13.7283   38.0696   11.3778 C   0  0  0  0  0  0  0  0  0  0  0  0
   12.9209   39.3599   11.4831 C   0  0  0  0  0  0  0  0  0  0  0  0
   13.6057   40.4728   10.6956 C   0  0  0  0  0  0  0  0  0  0  0  0
   13.7542   40.0651    9.2292 C   0  0  2  0  0  0  0  0  0  0  0  0
   14.5469   38.7632    9.1088 C   0  0  0  0  0  0  0  0  0  0  0  0
   14.3922   41.1559    8.4299 C   0  0  0  0  0  0  0  0  0  0  0  0
   15.6877   41.6064    8.7129 C   0  0  0  0  0  0  0  0  0  0  0  0
   15.5350   43.1643    6.9381 C   0  0  0  0  0  0  0  0  0  0  0  0
   14.2388   42.7192    6.6487 C   0  0  0  0  0  0  0  0  0  0  0  0
   13.8449   44.3243    4.6790 C   0  0  0  0  0  0  0  0  0  0  0  0
   15.4244   45.9132    3.8992 C   0  0  0  0  0  0  0  0  0  0  0  0
   14.5241   46.3274    2.9167 C   0  0  0  0  0  0  0  0  0  0  0  0
   12.9467   44.7415    3.6943 C   0  0  0  0  0  0  0  0  0  0  0  0
   14.0890   36.1094    8.3024 O   0  0  0  0  0  0  0  0  0  0  0  0
   13.9583   37.7414    9.9719 N   0  0  0  0  0  0  0  0  0  0  0  0
   16.2285   42.5996    7.9608 N   0  0  0  0  0  0  0  0  0  0  0  0
   13.7029   41.7247    7.4054 N   0  0  0  0  0  0  0  0  0  0  0  0
   13.4603   43.2785    5.5814 N   0  0  0  0  0  0  0  0  0  0  0  0
   15.0656   44.9225    4.7575 N   0  0  0  0  0  0  0  0  0  0  0  0
   13.3050   45.7325    2.8356 N   0  0  0  0  0  0  0  0  0  0  0  0
  1  2  1  0
  2 17  1  0
  3 17  1  0
  3  4  1  0
  4  5  1  0
  5  6  1  0
  6  7  1  0
  6  8  1  6
  7 17  1  0
  8 19  2  0
  9 18  2  0
 10 11  2  0
 11 20  1  0
 13 21  2  0
 14 22  2  0
 15 12  2  0
 20 12  1  0
  2 16  2  0
  8  9  1  0
 10 18  1  0
 11 19  1  0
 12 21  1  0
 13 14  1  0
 15 22  1  0
M  END
>  <rmsd>  (471) 
0.240998909

$$$$
MolPort-020-295-331 MCULE-2719425301 PubChem-110267413
     RDKit          3D

 28 31  0  0  0  0  0  0  0  0999 V2000
   15.0175   47.4365    2.0027 C   0  0  0  0  0  0  0  0  0  0  0  0
   14.5995   46.3516    2.9279 C   0  0  0  0  0  0  0  0  0  0  0  0
   15.4631   45.9084    3.9309 C   0  0  0  0  0  0  0  0  0  0  0  0
   13.8476   44.3263    4.6725 C   0  0  0  0  0  0  0  0  0  0  0  0
   12.9589   44.7467    3.6790 C   0  0  0  0  0  0  0  0  0  0  0  0
   13.3396   45.7652    2.8034 C   0  0  0  0  0  0  0  0  0  0  0  0
   14.2293   42.7315    6.6344 C   0  0  0  0  0  0  0  0  0  0  0  0
   16.2228   42.6666    7.9097 C   0  0  0  0  0  0  0  0  0  0  0  0
   15.6980   41.6465    8.6995 C   0  0  0  0  0  0  0  0  0  0  0  0
   14.4068   41.1849    8.4204 C   0  0  0  0  0  0  0  0  0  0  0  0
   13.7846   40.0916    9.2288 C   0  0  2  0  0  0  0  0  0  0  0  0
   13.6369   40.5045   10.6957 C   0  0  0  0  0  0  0  0  0  0  0  0
   12.9892   39.3815   11.5023 C   0  0  0  0  0  0  0  0  0  0  0  0
   13.8253   38.1115   11.3843 C   0  0  0  0  0  0  0  0  0  0  0  0
   14.5847   38.7935    9.1051 C   0  0  0  0  0  0  0  0  0  0  0  0
   13.7674   36.4480    9.4727 C   0  0  0  0  0  0  0  0  0  0  0  0
   12.8313   35.5121   10.1388 C   0  0  0  0  0  0  0  0  0  0  0  0
   12.7831   34.1238    9.9955 C   0  0  0  0  0  0  0  0  0  0  0  0
   10.9974   34.3692   11.3677 C   0  0  0  0  0  0  0  0  0  0  0  0
   13.7508   33.3346    9.1826 C   0  0  0  0  0  0  0  0  0  0  0  0
   15.0731   44.9147    4.7741 N   0  0  0  0  0  0  0  0  0  0  0  0
   13.4479   43.2804    5.5664 N   0  0  0  0  0  0  0  0  0  0  0  0
   15.4842   43.1887    6.8967 N   0  0  0  0  0  0  0  0  0  0  0  0
   13.7035   41.7364    7.3966 N   0  0  0  0  0  0  0  0  0  0  0  0
   14.0008   37.7752    9.9738 N   0  0  0  0  0  0  0  0  0  0  0  0
   11.7800   33.5083   10.6782 N   0  0  0  0  0  0  0  0  0  0  0  0
   14.3617   36.0742    8.4253 O   0  0  0  0  0  0  0  0  0  0  0  0
   11.5476   35.9410   11.1383 S   0  0  0  0  0  0  0  0  0  0  0  0
  1  2  1  0
  3 21  2  0
  4  5  2  0
  4 22  1  0
  6  2  2  0
  7 24  2  0
  8 23  2  0
  9 10  2  0
 11 10  1  6
 11 12  1  0
 12 13  1  0
 13 14  1  0
 14 25  1  0
 15 25  1  0
 15 11  1  0
 16 17  1  0
 17 28  1  0
 18 26  1  0
 19 28  1  0
 20 18  1  0
 22  7  1  0
 25 16  1  0
  2  3  1  0
  4 21  1  0
  5  6  1  0
  7 23  1  0
  8  9  1  0
 10 24  1  0
 16 27  2  0
 17 18  2  0
 19 26  2  0
M  END
>  <rmsd>  (472) 
0.240967542

$$$$
Molport-051-662-103 MCULE-9837835430
     RDKit          3D

 29 32  0  0  0  0  0  0  0  0999 V2000
   12.2638   46.4377    1.9828 C   0  0  0  0  0  0  0  0  0  0  0  0
   12.6590   47.5473    1.0639 C   0  0  0  0  0  0  0  0  0  0  0  0
   13.4822   46.1176   -2.0846 C   0  0  0  0  0  0  0  0  0  0  0  0
   14.7645   46.2619   -1.5735 C   0  0  0  0  0  0  0  0  0  0  0  0
   14.5909   46.8311   -0.3242 C   0  0  0  0  0  0  0  0  0  0  0  0
   13.1997   45.9485    2.8999 C   0  0  0  0  0  0  0  0  0  0  0  0
   12.8734   44.8906    3.7589 C   0  0  0  0  0  0  0  0  0  0  0  0
   11.5960   44.3210    3.6873 C   0  0  0  0  0  0  0  0  0  0  0  0
   10.6597   44.7998    2.7684 C   0  0  0  0  0  0  0  0  0  0  0  0
   10.9857   45.8587    1.9058 C   0  0  0  0  0  0  0  0  0  0  0  0
    8.7529   45.8047    0.8341 C   0  0  0  0  0  0  0  0  0  0  0  0
   13.8640   44.3805    4.7233 C   0  0  0  0  0  0  0  0  0  0  0  0
   14.3608   42.6874    6.5779 C   0  0  0  0  0  0  0  0  0  0  0  0
   16.1382   41.9430    8.1312 C   0  0  0  0  0  0  0  0  0  0  0  0
   14.9247   41.2597    8.2087 C   0  0  0  0  0  0  0  0  0  0  0  0
   14.6903   40.1718    9.1992 C   0  0  0  0  0  0  0  0  0  0  0  0
   14.6704   39.9774   11.5905 C   0  0  0  0  0  0  0  0  0  0  0  0
   14.1380   38.5417   11.6434 C   0  0  0  0  0  0  0  0  0  0  0  0
   12.6182   38.5567   11.6594 C   0  0  0  0  0  0  0  0  0  0  0  0
   12.1071   39.2964   10.4338 C   0  0  0  0  0  0  0  0  0  0  0  0
   12.6818   40.7159   10.4105 C   0  0  0  0  0  0  0  0  0  0  0  0
   13.2739   47.0082   -0.1383 N   0  0  0  0  0  0  0  0  0  0  0  0
   12.5946   46.5784   -1.1844 N   0  0  0  0  0  0  0  0  0  0  0  0
   13.5138   43.2978    5.5969 N   0  0  0  0  0  0  0  0  0  0  0  0
   14.1530   40.7291   10.4382 N   0  0  0  0  0  0  0  0  0  0  0  0
   13.9445   41.6732    7.3601 N   0  0  0  0  0  0  0  0  0  0  0  0
   10.0605   46.3434    0.9731 O   0  0  0  0  0  0  0  0  0  0  0  0
   15.0125   44.8983    4.7718 O   0  0  0  0  0  0  0  0  0  0  0  0
   15.9518   43.1031    6.9238 S   0  0  0  0  0  0  0  0  0  0  0  0
  2  1  1  0
  2 22  1  0
  3  4  1  0
  5 22  1  0
  6  7  2  0
  7 12  1  0
  8  9  2  0
 10 27  1  0
 10  1  2  0
 11 27  1  0
 12 24  1  0
 13 29  1  0
 14 29  1  0
 15 26  1  0
 16 15  1  0
 16 25  1  0
 17 25  1  0
 17 18  1  0
 18 19  1  0
 19 20  1  0
 20 21  1  0
 21 25  1  0
 22 23  1  0
 24 13  1  0
  1  6  1  0
  3 23  2  0
  4  5  2  0
  7  8  1  0
  9 10  1  0
 12 28  2  0
 13 26  2  0
 14 15  2  0
M  END
>  <rmsd>  (473) 
0.240929678

$$$$
MolPort-003-076-372 4325488 CHEMBL1574704 CSSS03437161374 MCULE-5013813756 PubChem-7189636 ZINC000004325488
     RDKit          3D

 26 28  0  0  0  0  0  0  0  0999 V2000
   14.3685   42.7513    6.6393 C   0  0  0  0  0  0  0  0  0  0  0  0
   13.8836   44.3321    4.6888 C   0  0  0  0  0  0  0  0  0  0  0  0
   12.9084   44.7410    3.6385 C   0  0  0  0  0  0  0  0  0  0  0  0
   12.7287   43.6448    2.5970 C   0  0  0  0  0  0  0  0  0  0  0  0
   14.5416   45.1415    0.8886 C   0  0  0  0  0  0  0  0  0  0  0  0
   13.7500   45.7372   -0.0998 C   0  0  0  0  0  0  0  0  0  0  0  0
   14.0661   47.0127   -0.5771 C   0  0  0  0  0  0  0  0  0  0  0  0
   15.1730   47.6963   -0.0651 C   0  0  0  0  0  0  0  0  0  0  0  0
   15.9637   47.1046    0.9247 C   0  0  0  0  0  0  0  0  0  0  0  0
   15.6477   45.8290    1.4017 C   0  0  0  0  0  0  0  0  0  0  0  0
   16.1145   42.0845    8.1970 C   0  0  0  0  0  0  0  0  0  0  0  0
   14.9043   41.4260    8.3587 C   0  0  0  0  0  0  0  0  0  0  0  0
   14.7516   40.4603    9.3584 C   0  0  0  0  0  0  0  0  0  0  0  0
   15.8579   40.1788   10.1875 C   0  0  0  0  0  0  0  0  0  0  0  0
   17.0795   40.8557   10.0106 C   0  0  0  0  0  0  0  0  0  0  0  0
   17.2175   41.8229    9.0041 C   0  0  0  0  0  0  0  0  0  0  0  0
   13.2791   38.8415   10.5325 C   0  0  0  0  0  0  0  0  0  0  0  0
   13.0181   39.5410   11.8532 C   0  0  0  0  0  0  0  0  0  0  0  0
   13.5284   43.3010    5.6174 N   0  0  0  0  0  0  0  0  0  0  0  0
   13.9270   41.7943    7.4902 N   0  0  0  0  0  0  0  0  0  0  0  0
   15.0066   44.8992    4.7394 O   0  0  0  0  0  0  0  0  0  0  0  0
   13.7937   42.6474    0.3407 O   0  0  0  0  0  0  0  0  0  0  0  0
   15.3075   42.9644    2.2303 O   0  0  0  0  0  0  0  0  0  0  0  0
   13.5260   39.8002    9.5100 O   0  0  0  0  0  0  0  0  0  0  0  0
   14.1316   43.5464    1.4964 S   0  0  0  0  0  0  0  0  0  0  0  0
   15.9878   43.1736    6.9282 S   0  0  0  0  0  0  0  0  0  0  0  0
  1 19  1  0
  1 26  1  0
  3  2  1  0
  3  4  1  0
  4 25  1  0
  6  7  2  0
  8  9  2  0
 10  5  2  0
 11 26  1  0
 12 13  2  0
 12 20  1  0
 13 24  1  0
 14 15  2  0
 16 11  2  0
 17 24  1  0
 17 18  1  0
 19  2  1  0
 25  5  1  0
  1 20  2  0
  2 21  2  0
  5  6  1  0
  7  8  1  0
  9 10  1  0
 11 12  1  0
 13 14  1  0
 15 16  1  0
 25 22  2  0
 25 23  2  0
M  END
>  <rmsd>  (474) 
0.240871042

$$$$
Molport-020-279-173 CHEMBL3449781 MCULE-9629700168 PubChem-110255927
     RDKit          3D

 25 28  0  0  0  0  0  0  0  0999 V2000
   13.9550   37.7432    9.9690 N   0  0  0  0  0  0  0  0  0  0  0  0
   13.2874   35.4384   10.3401 N   0  0  0  0  0  0  0  0  0  0  0  0
   13.8299   34.7782    7.7471 N   0  0  0  0  0  0  0  0  0  0  0  0
   13.7028   41.7273    7.4050 N   0  0  0  0  0  0  0  0  0  0  0  0
   13.4600   43.2804    5.5803 N   0  0  0  0  0  0  0  0  0  0  0  0
   12.9639   44.7270    3.7194 N   0  0  0  0  0  0  0  0  0  0  0  0
   15.0640   44.9211    4.7589 N   0  0  0  0  0  0  0  0  0  0  0  0
   16.2278   42.6035    7.9613 N   0  0  0  0  0  0  0  0  0  0  0  0
   13.7575   36.4003    9.4973 C   0  0  0  0  0  0  0  0  0  0  0  0
   13.0854   34.1619    9.9197 C   0  0  0  0  0  0  0  0  0  0  0  0
   13.3629   33.8247    8.5947 C   0  0  0  0  0  0  0  0  0  0  0  0
   14.0322   36.0550    8.1665 C   0  0  0  0  0  0  0  0  0  0  0  0
   14.5474   38.7667    9.1087 C   0  0  0  0  0  0  0  0  0  0  0  0
   13.7540   40.0680    9.2290 C   0  0  2  0  0  0  0  0  0  0  0  0
   14.3918   41.1593    8.4299 C   0  0  0  0  0  0  0  0  0  0  0  0
   14.2385   42.7220    6.6482 C   0  0  0  0  0  0  0  0  0  0  0  0
   13.8424   44.3259    4.6762 C   0  0  0  0  0  0  0  0  0  0  0  0
   13.2844   45.7138    2.8420 C   0  0  0  0  0  0  0  0  0  0  0  0
   14.5309   46.3324    2.9141 C   0  0  0  0  0  0  0  0  0  0  0  0
   15.4211   45.9111    3.8998 C   0  0  0  0  0  0  0  0  0  0  0  0
   15.5345   43.1676    6.9380 C   0  0  0  0  0  0  0  0  0  0  0  0
   15.6870   41.6103    8.7134 C   0  0  0  0  0  0  0  0  0  0  0  0
   13.6053   40.4751   10.6957 C   0  0  0  0  0  0  0  0  0  0  0  0
   12.9231   39.3609   11.4837 C   0  0  0  0  0  0  0  0  0  0  0  0
   13.7314   38.0714   11.3756 C   0  0  0  0  0  0  0  0  0  0  0  0
  1  9  1  0
  5 17  1  0
 10  2  2  0
 11  3  2  0
 12  9  2  0
 13  1  1  0
 13 14  1  0
 14 15  1  6
 14 23  1  0
 16  4  2  0
 16  5  1  0
 17  7  2  0
 18  6  2  0
 19 20  2  0
 21  8  2  0
 22 15  2  0
 23 24  1  0
 24 25  1  0
 25  1  1  0
  9  2  1  0
 10 11  1  0
 12  3  1  0
 15  4  1  0
 16 21  1  0
 17  6  1  0
 18 19  1  0
 20  7  1  0
 22  8  1  0
M  END
>  <rmsd>  (475) 
0.240865991

$$$$
MolPort-008-373-247 55271854 CSSS00159787734 MCULE-2691739268 PubChem-46992885 ZINC000055271854 ZINC55271854
     RDKit          3D

 22 22  0  0  0  0  0  0  0  0999 V2000
   12.0256   46.8696    4.9773 C   0  0  0  0  0  0  0  0  0  0  0  0
   11.6885   45.5173    4.3772 C   0  0  0  0  0  0  0  0  0  0  0  0
   12.9097   44.9158    3.6994 C   0  0  0  0  0  0  0  0  0  0  0  0
   13.8793   44.3919    4.7047 C   0  0  0  0  0  0  0  0  0  0  0  0
   14.2912   42.7004    6.5871 C   0  0  0  0  0  0  0  0  0  0  0  0
   15.5952   43.1349    6.8704 C   0  0  0  0  0  0  0  0  0  0  0  0
   16.3430   42.5176    7.8770 C   0  0  0  0  0  0  0  0  0  0  0  0
   15.7938   41.4588    8.6077 C   0  0  0  0  0  0  0  0  0  0  0  0
   16.5860   40.8103    9.6933 C   0  0  0  0  0  0  0  0  0  0  0  0
   16.3751   41.5071   11.0017 C   0  0  0  0  0  0  0  0  0  0  0  0
   15.1650   39.5074   12.0046 C   0  0  1  0  0  0  0  0  0  0  0  0
   15.0516   38.8831   13.3972 C   0  0  0  0  0  0  0  0  0  0  0  0
   13.8574   39.4817   11.2001 C   0  0  0  0  0  0  0  0  0  0  0  0
   12.7438   40.2956   11.8387 C   0  0  0  0  0  0  0  0  0  0  0  0
   13.3925   38.0601   10.9455 C   0  0  0  0  0  0  0  0  0  0  0  0
   14.4933   41.0251    8.3317 C   0  0  0  0  0  0  0  0  0  0  0  0
   13.7467   41.6435    7.3248 C   0  0  0  0  0  0  0  0  0  0  0  0
   15.0290   44.9013    4.7727 O   0  0  0  0  0  0  0  0  0  0  0  0
   16.8079   42.6791   11.1568 O   0  0  0  0  0  0  0  0  0  0  0  0
   14.3242   39.7041   14.2617 O   0  0  0  0  0  0  0  0  0  0  0  0
   13.4929   43.3103    5.5638 N   0  0  0  0  0  0  0  0  0  0  0  0
   15.7094   40.8581   12.0881 N   0  0  0  0  0  0  0  0  0  0  0  0
  1  2  1  0
  2  3  1  0
  3  4  1  0
  4 21  1  0
  6  7  2  0
  8 16  2  0
  9  8  1  0
  9 10  1  0
 10 22  1  0
 11 22  1  0
 11 12  1  1
 11 13  1  0
 12 20  1  0
 13 14  1  0
 13 15  1  0
 17  5  2  0
 21  5  1  0
  4 18  2  0
  5  6  1  0
  7  8  1  0
 10 19  2  0
 16 17  1  0
M  END
>  <rmsd>  (476) 
0.240819708

$$$$
MolPort-016-718-365 MCULE-1952619002 PubChem-46975251
     RDKit          3D

 30 33  0  0  0  0  0  0  0  0999 V2000
   13.0469   39.5155   11.8441 C   0  0  0  0  0  0  0  0  0  0  0  0
   13.2718   38.8222   10.5130 C   0  0  0  0  0  0  0  0  0  0  0  0
   14.7395   40.4709    9.3699 C   0  0  0  0  0  0  0  0  0  0  0  0
   14.8907   41.4445    8.3777 C   0  0  0  0  0  0  0  0  0  0  0  0
   16.0885   42.1313    8.2438 C   0  0  0  0  0  0  0  0  0  0  0  0
   17.1805   41.8910    9.0722 C   0  0  0  0  0  0  0  0  0  0  0  0
   17.0442   40.9159   10.0713 C   0  0  0  0  0  0  0  0  0  0  0  0
   15.8351   40.2104   10.2199 C   0  0  0  0  0  0  0  0  0  0  0  0
   14.3602   42.7652    6.6531 C   0  0  0  0  0  0  0  0  0  0  0  0
   13.8817   44.3345    4.6914 C   0  0  0  0  0  0  0  0  0  0  0  0
   12.9123   44.7248    3.6291 C   0  0  0  0  0  0  0  0  0  0  0  0
   14.0418   43.8200    1.5106 C   0  0  0  0  0  0  0  0  0  0  0  0
   14.0884   42.5292    0.7385 C   0  0  2  0  0  0  0  0  0  0  0  0
   12.4612   42.5208    2.4041 C   0  0  0  0  0  0  0  0  0  0  0  0
   15.4335   41.8437    0.9252 C   0  0  0  0  0  0  0  0  0  0  0  0
   13.7941   42.7538   -0.7301 C   0  0  0  0  0  0  0  0  0  0  0  0
   12.6419   42.2185   -1.3315 C   0  0  0  0  0  0  0  0  0  0  0  0
   12.3805   42.4360   -2.6871 C   0  0  0  0  0  0  0  0  0  0  0  0
   13.2678   43.1914   -3.4573 C   0  0  0  0  0  0  0  0  0  0  0  0
   14.4165   43.7295   -2.8725 C   0  0  0  0  0  0  0  0  0  0  0  0
   14.6782   43.5122   -1.5170 C   0  0  0  0  0  0  0  0  0  0  0  0
   13.5266   39.7816    9.4925 O   0  0  0  0  0  0  0  0  0  0  0  0
   15.0073   44.8969    4.7362 O   0  0  0  0  0  0  0  0  0  0  0  0
   14.8322   44.7875    1.3414 O   0  0  0  0  0  0  0  0  0  0  0  0
   11.5520   42.1011    3.1673 O   0  0  0  0  0  0  0  0  0  0  0  0
   15.9628   43.2235    6.9775 S   0  0  0  0  0  0  0  0  0  0  0  0
   13.9232   41.7948    7.4911 N   0  0  0  0  0  0  0  0  0  0  0  0
   13.5277   43.3021    5.6184 N   0  0  0  0  0  0  0  0  0  0  0  0
   13.0173   43.8188    2.4930 N   0  0  0  0  0  0  0  0  0  0  0  0
   13.0453   41.7225    1.3817 N   0  0  0  0  0  0  0  0  0  0  0  0
  1  2  1  0
  2 22  1  0
  3 22  1  0
  4  5  2  0
  4 27  1  0
  5 26  1  0
  6  7  2  0
  8  3  2  0
  9 26  1  0
  9 28  1  0
 11 10  1  0
 11 29  1  0
 13 12  1  0
 13 30  1  0
 13 15  1  6
 13 16  1  0
 14 29  1  0
 17 18  2  0
 19 20  2  0
 21 16  2  0
 28 10  1  0
 29 12  1  0
 30 14  1  0
  3  4  1  0
  5  6  1  0
  7  8  1  0
  9 27  2  0
 10 23  2  0
 12 24  2  0
 14 25  2  0
 16 17  1  0
 18 19  1  0
 20 21  1  0
M  END
>  <rmsd>  (477) 
0.240784898

$$$$
MolPort-020-295-383 MCULE-9763602010 PubChem-110267464
     RDKit          3D

 33 36  0  0  0  0  0  0  0  0999 V2000
   15.0352   47.4133    1.9818 C   0  0  0  0  0  0  0  0  0  0  0  0
   14.6116   46.3353    2.9130 C   0  0  0  0  0  0  0  0  0  0  0  0
   15.4682   45.9023    3.9267 C   0  0  0  0  0  0  0  0  0  0  0  0
   13.8515   44.3207    4.6666 C   0  0  0  0  0  0  0  0  0  0  0  0
   12.9693   44.7319    3.6633 C   0  0  0  0  0  0  0  0  0  0  0  0
   13.3537   45.7456    2.7838 C   0  0  0  0  0  0  0  0  0  0  0  0
   14.2255   42.7351    6.6376 C   0  0  0  0  0  0  0  0  0  0  0  0
   16.2179   42.6696    7.9146 C   0  0  0  0  0  0  0  0  0  0  0  0
   15.6900   41.6529    8.7072 C   0  0  0  0  0  0  0  0  0  0  0  0
   14.3977   41.1945    8.4292 C   0  0  0  0  0  0  0  0  0  0  0  0
   13.7740   40.1012    9.2368 C   0  0  2  0  0  0  0  0  0  0  0  0
   13.6568   40.4991   10.7108 C   0  0  0  0  0  0  0  0  0  0  0  0
   13.0006   39.3783   11.5139 C   0  0  0  0  0  0  0  0  0  0  0  0
   13.8101   38.0934   11.3720 C   0  0  0  0  0  0  0  0  0  0  0  0
   14.5554   38.7949    9.0865 C   0  0  0  0  0  0  0  0  0  0  0  0
   13.5524   36.5120    9.4206 C   0  0  0  0  0  0  0  0  0  0  0  0
   12.9586   35.4647   10.3030 C   0  0  0  0  0  0  0  0  0  0  0  0
   14.0581   34.5938   10.8767 C   0  0  0  0  0  0  0  0  0  0  0  0
   13.4507   33.5650   11.8118 C   0  0  0  0  0  0  0  0  0  0  0  0
   15.1816   31.7816   11.5262 C   0  0  0  0  0  0  0  0  0  0  0  0
   14.7945   32.7960   13.8010 C   0  0  0  0  0  0  0  0  0  0  0  0
   14.1091   33.6941   14.6369 C   0  0  0  0  0  0  0  0  0  0  0  0
   14.4010   33.7597   16.0020 C   0  0  0  0  0  0  0  0  0  0  0  0
   15.3825   32.9293   16.5471 C   0  0  0  0  0  0  0  0  0  0  0  0
   16.0723   32.0328   15.7276 C   0  0  0  0  0  0  0  0  0  0  0  0
   15.7802   31.9667   14.3625 C   0  0  0  0  0  0  0  0  0  0  0  0
   15.0740   44.9140    4.7744 N   0  0  0  0  0  0  0  0  0  0  0  0
   13.4472   43.2807    5.5656 N   0  0  0  0  0  0  0  0  0  0  0  0
   15.4811   43.1904    6.8996 N   0  0  0  0  0  0  0  0  0  0  0  0
   13.6971   41.7427    7.4017 N   0  0  0  0  0  0  0  0  0  0  0  0
   13.9735   37.7761    9.9553 N   0  0  0  0  0  0  0  0  0  0  0  0
   14.4965   32.7318   12.3934 N   0  0  0  0  0  0  0  0  0  0  0  0
   13.7054   36.2601    8.1953 O   0  0  0  0  0  0  0  0  0  0  0  0
  1  2  1  0
  3 27  2  0
  4  5  2  0
  4 28  1  0
  6  2  2  0
  7 30  2  0
  8 29  2  0
  9 10  2  0
 11 10  1  6
 11 12  1  0
 12 13  1  0
 13 14  1  0
 14 31  1  0
 15 31  1  0
 15 11  1  0
 17 16  1  0
 17 18  1  0
 18 19  1  0
 19 32  1  0
 20 32  1  0
 22 23  2  0
 24 25  2  0
 26 21  2  0
 28  7  1  0
 31 16  1  0
 32 21  1  0
  2  3  1  0
  4 27  1  0
  5  6  1  0
  7 29  1  0
  8  9  1  0
 10 30  1  0
 16 33  2  0
 21 22  1  0
 23 24  1  0
 25 26  1  0
M  END
>  <rmsd>  (478) 
0.240765795

$$$$
Molport-053-332-522
     RDKit          3D

 16 17  0  0  0  0  0  0  0  0999 V2000
   13.4920   39.3706   11.4487 Cl  0  0  0  0  0  0  0  0  0  0  0  0
   13.5997   40.3337    9.9871 C   0  0  0  0  0  0  0  0  0  0  0  0
   12.4176   40.7242    9.3116 C   0  0  0  0  0  0  0  0  0  0  0  0
   12.4878   41.4975    8.1368 C   0  0  0  0  0  0  0  0  0  0  0  0
   13.7543   41.8533    7.6797 C   0  0  0  0  0  0  0  0  0  0  0  0
   14.2028   42.5789    6.6015 C   0  0  0  0  0  0  0  0  0  0  0  0
   14.7630   42.9129    3.1096 C   0  0  0  0  0  0  0  0  0  0  0  0
   16.0186   42.4778    3.2224 C   0  0  0  0  0  0  0  0  0  0  0  0
   14.8955   41.4784    8.3280 C   0  0  0  0  0  0  0  0  0  0  0  0
   14.8631   40.7145    9.4911 C   0  0  0  0  0  0  0  0  0  0  0  0
   13.3899   43.1992    5.6011 N   0  0  0  0  0  0  0  0  0  0  0  0
   15.5557   42.6204    6.6299 N   0  0  0  0  0  0  0  0  0  0  0  0
   14.0826   44.0532    4.2635 S   0  0  0  0  0  0  0  0  0  0  0  0
   15.1400   45.0037    4.7519 O   0  0  0  0  0  0  0  0  0  0  0  0
   13.0084   44.8499    3.5788 O   0  0  0  0  0  0  0  0  0  0  0  0
   15.9382   41.9466    7.6837 O   0  0  0  0  0  0  0  0  0  0  0  0
  2  1  1  0
  3  4  2  0
  5  6  1  0
  6 11  1  0
  9 16  1  0
  9  5  2  0
 10  2  2  0
 12 16  1  0
 13 11  1  0
 13  7  1  0
  2  3  1  0
  4  5  1  0
  6 12  2  0
  7  8  2  0
  9 10  1  0
 13 14  2  0
 13 15  2  0
M  END
>  <rmsd>  (479) 
0.240764007

$$$$
MolPort-020-275-220 MCULE-2387876618 PubChem-110252897
     RDKit          3D

 22 24  0  0  0  0  0  0  0  0999 V2000
   13.2819   35.3232   10.3858 C   0  0  0  0  0  0  0  0  0  0  0  0
   13.7997   36.3996    9.4926 C   0  0  0  0  0  0  0  0  0  0  0  0
   13.7288   38.0717   11.3760 C   0  0  0  0  0  0  0  0  0  0  0  0
   12.9213   39.3620   11.4813 C   0  0  0  0  0  0  0  0  0  0  0  0
   13.6061   40.4748   10.6938 C   0  0  0  0  0  0  0  0  0  0  0  0
   13.7547   40.0671    9.2274 C   0  0  2  0  0  0  0  0  0  0  0  0
   14.5475   38.7652    9.1071 C   0  0  0  0  0  0  0  0  0  0  0  0
   14.3927   41.1580    8.4281 C   0  0  0  0  0  0  0  0  0  0  0  0
   15.6882   41.6085    8.7111 C   0  0  0  0  0  0  0  0  0  0  0  0
   15.5356   43.1664    6.9363 C   0  0  0  0  0  0  0  0  0  0  0  0
   14.2394   42.7213    6.6469 C   0  0  0  0  0  0  0  0  0  0  0  0
   13.8430   44.3261    4.6757 C   0  0  0  0  0  0  0  0  0  0  0  0
   15.4217   45.9114    3.8996 C   0  0  0  0  0  0  0  0  0  0  0  0
   14.5313   46.3333    2.9143 C   0  0  0  0  0  0  0  0  0  0  0  0
   13.2846   45.7148    2.8423 C   0  0  0  0  0  0  0  0  0  0  0  0
   14.0898   36.1114    8.3008 O   0  0  0  0  0  0  0  0  0  0  0  0
   13.9588   37.7435    9.9701 N   0  0  0  0  0  0  0  0  0  0  0  0
   16.2292   42.6017    7.9591 N   0  0  0  0  0  0  0  0  0  0  0  0
   13.7036   41.7266    7.4036 N   0  0  0  0  0  0  0  0  0  0  0  0
   13.4607   43.2804    5.5794 N   0  0  0  0  0  0  0  0  0  0  0  0
   15.0646   44.9212    4.7582 N   0  0  0  0  0  0  0  0  0  0  0  0
   12.9642   44.7279    3.7192 N   0  0  0  0  0  0  0  0  0  0  0  0
  1  2  1  0
  2 17  1  0
  3 17  1  0
  3  4  1  0
  4  5  1  0
  5  6  1  0
  6  7  1  0
  6  8  1  6
  7 17  1  0
  8 19  2  0
  9 18  2  0
 10 11  2  0
 11 20  1  0
 12 22  2  0
 13 21  2  0
 14 15  2  0
 20 12  1  0
  2 16  2  0
  8  9  1  0
 10 18  1  0
 11 19  1  0
 12 21  1  0
 13 14  1  0
 15 22  1  0
M  END
>  <rmsd>  (480) 
0.240737572

$$$$
Molport-020-295-207 MCULE-7020605254 PubChem-110267298
     RDKit          3D

 28 31  0  0  0  0  0  0  0  0999 V2000
   11.6147   44.1501    3.4967 C   0  0  0  0  0  0  0  0  0  0  0  0
   12.9665   44.7565    3.6585 C   0  0  0  0  0  0  0  0  0  0  0  0
   13.8465   44.3269    4.6657 C   0  0  0  0  0  0  0  0  0  0  0  0
   15.4753   45.9064    3.9402 C   0  0  0  0  0  0  0  0  0  0  0  0
   14.6261   46.3561    2.9288 C   0  0  0  0  0  0  0  0  0  0  0  0
   13.3656   45.7748    2.7908 C   0  0  0  0  0  0  0  0  0  0  0  0
   14.2298   42.7302    6.6309 C   0  0  0  0  0  0  0  0  0  0  0  0
   16.2291   42.6534    7.8963 C   0  0  0  0  0  0  0  0  0  0  0  0
   15.7012   41.6380    8.6902 C   0  0  0  0  0  0  0  0  0  0  0  0
   14.4055   41.1851    8.4182 C   0  0  0  0  0  0  0  0  0  0  0  0
   13.7802   40.0962    9.2304 C   0  0  2  0  0  0  0  0  0  0  0  0
   13.6432   40.5104   10.6981 C   0  0  0  0  0  0  0  0  0  0  0  0
   12.9936   39.3912   11.5086 C   0  0  0  0  0  0  0  0  0  0  0  0
   13.8214   38.1164   11.3855 C   0  0  0  0  0  0  0  0  0  0  0  0
   14.5708   38.7926    9.1023 C   0  0  0  0  0  0  0  0  0  0  0  0
   13.7357   36.4530    9.4694 C   0  0  0  0  0  0  0  0  0  0  0  0
   12.7877   35.5205   10.1235 C   0  0  0  0  0  0  0  0  0  0  0  0
   12.8173   34.1549    9.8077 C   0  0  0  0  0  0  0  0  0  0  0  0
   10.9951   33.7227   11.2666 C   0  0  0  0  0  0  0  0  0  0  0  0
   10.9182   35.0744   11.6044 C   0  0  0  0  0  0  0  0  0  0  0  0
   11.8160   35.9722   11.0255 C   0  0  0  0  0  0  0  0  0  0  0  0
   15.0722   44.9133    4.7771 N   0  0  0  0  0  0  0  0  0  0  0  0
   13.4475   43.2813    5.5647 N   0  0  0  0  0  0  0  0  0  0  0  0
   15.4892   43.1788    6.8862 N   0  0  0  0  0  0  0  0  0  0  0  0
   13.7010   41.7395    7.3968 N   0  0  0  0  0  0  0  0  0  0  0  0
   13.9844   37.7781    9.9735 N   0  0  0  0  0  0  0  0  0  0  0  0
   11.9337   33.2943   10.3813 N   0  0  0  0  0  0  0  0  0  0  0  0
   14.3363   36.0725    8.4267 O   0  0  0  0  0  0  0  0  0  0  0  0
  1  2  1  0
  3 22  2  0
  3 23  1  0
  4  5  2  0
  6  2  2  0
  7 25  2  0
  8 24  2  0
  9 10  2  0
 11 10  1  6
 11 12  1  0
 12 13  1  0
 13 14  1  0
 14 26  1  0
 15 26  1  0
 15 11  1  0
 16 17  1  0
 18 27  2  0
 19 20  2  0
 21 17  2  0
 23  7  1  0
 26 16  1  0
  2  3  1  0
  4 22  1  0
  5  6  1  0
  7 24  1  0
  8  9  1  0
 10 25  1  0
 16 28  2  0
 17 18  1  0
 19 27  1  0
 20 21  1  0
M  END
>  <rmsd>  (481) 
0.240710482

$$$$
MolPort-020-295-258 MCULE-5000291440 PubChem-110267346
     RDKit          3D

 26 29  0  0  0  0  0  0  0  0999 V2000
   15.0203   47.4307    1.9974 C   0  0  0  0  0  0  0  0  0  0  0  0
   14.6019   46.3471    2.9239 C   0  0  0  0  0  0  0  0  0  0  0  0
   15.4640   45.9070    3.9297 C   0  0  0  0  0  0  0  0  0  0  0  0
   13.8490   44.3247    4.6714 C   0  0  0  0  0  0  0  0  0  0  0  0
   12.9619   44.7416    3.6748 C   0  0  0  0  0  0  0  0  0  0  0  0
   13.3432   45.7586    2.7978 C   0  0  0  0  0  0  0  0  0  0  0  0
   14.2302   42.7314    6.6345 C   0  0  0  0  0  0  0  0  0  0  0  0
   16.2263   42.6622    7.9055 C   0  0  0  0  0  0  0  0  0  0  0  0
   15.7001   41.6447    8.6979 C   0  0  0  0  0  0  0  0  0  0  0  0
   14.4069   41.1871    8.4224 C   0  0  0  0  0  0  0  0  0  0  0  0
   13.7837   40.0953    9.2322 C   0  0  2  0  0  0  0  0  0  0  0  0
   13.6459   40.5052   10.7009 C   0  0  0  0  0  0  0  0  0  0  0  0
   12.9895   39.3861   11.5067 C   0  0  0  0  0  0  0  0  0  0  0  0
   13.8093   38.1049   11.3845 C   0  0  0  0  0  0  0  0  0  0  0  0
   14.5792   38.7954    9.1045 C   0  0  0  0  0  0  0  0  0  0  0  0
   13.5767   36.5065    9.4546 C   0  0  0  0  0  0  0  0  0  0  0  0
   13.7379   36.1950    7.9909 C   0  0  0  0  0  0  0  0  0  0  0  0
   14.3685   34.8311    7.7802 C   0  0  0  0  0  0  0  0  0  0  0  0
   13.0746   34.3269    7.1710 C   0  0  0  0  0  0  0  0  0  0  0  0
   12.4408   35.6871    7.3899 C   0  0  0  0  0  0  0  0  0  0  0  0
   15.0734   44.9149    4.7742 N   0  0  0  0  0  0  0  0  0  0  0  0
   13.4486   43.2805    5.5667 N   0  0  0  0  0  0  0  0  0  0  0  0
   15.4870   43.1852    6.8936 N   0  0  0  0  0  0  0  0  0  0  0  0
   13.7031   41.7388    7.3992 N   0  0  0  0  0  0  0  0  0  0  0  0
   13.9923   37.7784    9.9730 N   0  0  0  0  0  0  0  0  0  0  0  0
   13.0684   35.6490   10.2299 O   0  0  0  0  0  0  0  0  0  0  0  0
  1  2  1  0
  3 21  2  0
  4  5  2  0
  4 22  1  0
  6  2  2  0
  7 24  2  0
  8 23  2  0
  9 10  2  0
 11 10  1  6
 11 12  1  0
 12 13  1  0
 13 14  1  0
 14 25  1  0
 15 25  1  0
 15 11  1  0
 17 16  1  0
 17 18  1  0
 18 19  1  0
 19 20  1  0
 20 17  1  0
 22  7  1  0
 25 16  1  0
  2  3  1  0
  4 21  1  0
  5  6  1  0
  7 23  1  0
  8  9  1  0
 10 24  1  0
 16 26  2  0
M  END
>  <rmsd>  (482) 
0.240645319

$$$$
Molport-020-298-634 CHEMBL3498421 CHEMBL3553604 MCULE-3322794214 MCULE-6979039994 PubChem-110269785 PubChem-118742117
     RDKit          3D

 23 25  0  0  0  0  0  0  0  0999 V2000
   15.5651   36.0461    7.9190 N   0  0  0  0  0  0  0  0  0  0  0  0
   14.0184   37.7717    9.9799 N   0  0  0  0  0  0  0  0  0  0  0  0
   15.4870   43.1875    6.8960 N   0  0  0  0  0  0  0  0  0  0  0  0
   13.4491   43.2804    5.5685 N   0  0  0  0  0  0  0  0  0  0  0  0
   13.3417   45.7461    2.8318 N   0  0  0  0  0  0  0  0  0  0  0  0
   15.0726   44.9162    4.7725 N   0  0  0  0  0  0  0  0  0  0  0  0
   13.7066   41.7352    7.3975 N   0  0  0  0  0  0  0  0  0  0  0  0
   14.1248   36.0381    8.1054 C   0  0  0  0  0  0  0  0  0  0  0  0
   13.7889   36.4352    9.5062 C   0  0  0  0  0  0  0  0  0  0  0  0
   13.7983   38.1032   11.3860 C   0  0  0  0  0  0  0  0  0  0  0  0
   12.9779   39.3853   11.4921 C   0  0  0  0  0  0  0  0  0  0  0  0
   13.6445   40.5022   10.6943 C   0  0  0  0  0  0  0  0  0  0  0  0
   13.7895   40.0894    9.2286 C   0  0  2  0  0  0  0  0  0  0  0  0
   14.5949   38.7952    9.1103 C   0  0  0  0  0  0  0  0  0  0  0  0
   14.4114   41.1830    8.4200 C   0  0  0  0  0  0  0  0  0  0  0  0
   15.7029   41.6442    8.6976 C   0  0  0  0  0  0  0  0  0  0  0  0
   16.2269   42.6647    7.9076 C   0  0  0  0  0  0  0  0  0  0  0  0
   14.2316   42.7307    6.6352 C   0  0  0  0  0  0  0  0  0  0  0  0
   13.8491   44.3267    4.6753 C   0  0  0  0  0  0  0  0  0  0  0  0
   12.9660   44.7537    3.6813 C   0  0  0  0  0  0  0  0  0  0  0  0
   14.5637   46.3327    2.9312 C   0  0  0  0  0  0  0  0  0  0  0  0
   15.4487   45.9084    3.9233 C   0  0  0  0  0  0  0  0  0  0  0  0
   13.2754   35.5744   10.2697 O   0  0  0  0  0  0  0  0  0  0  0  0
  4 19  1  0
  8  1  1  0
  8  9  1  0
  9  2  1  0
 10  2  1  0
 10 11  1  0
 11 12  1  0
 12 13  1  0
 13 14  1  0
 13 15  1  6
 14  2  1  0
 15  7  2  0
 16 17  2  0
 18  3  2  0
 18  4  1  0
 19  6  2  0
 20  5  2  0
 21 22  2  0
  9 23  2  0
 15 16  1  0
 17  3  1  0
 18  7  1  0
 19 20  1  0
 21  5  1  0
 22  6  1  0
M  END
>  <rmsd>  (483) 
0.240628287

$$$$
MolPort-047-152-614 MCULE-3835555102 MCULE-4567635678 PubChem-145944756 PubChem-83404161
     RDKit          3D

 16 17  0  0  0  0  0  0  0  0999 V2000
   13.0090   44.8229    3.5809 C   0  0  0  0  0  0  0  0  0  0  0  0
   13.9138   44.3568    4.6634 C   0  0  0  0  0  0  0  0  0  0  0  0
   14.2126   42.7449    6.6338 C   0  0  0  0  0  0  0  0  0  0  0  0
   15.5058   43.1791    6.9634 C   0  0  0  0  0  0  0  0  0  0  0  0
   16.1943   42.6018    8.0334 C   0  0  0  0  0  0  0  0  0  0  0  0
   15.5951   41.5861    8.7819 C   0  0  0  0  0  0  0  0  0  0  0  0
   14.3028   41.1444    8.4612 C   0  0  0  0  0  0  0  0  0  0  0  0
   13.6194   41.7271    7.3885 C   0  0  0  0  0  0  0  0  0  0  0  0
   13.6384   40.0587    9.2464 C   0  0  2  0  0  0  0  0  0  0  0  0
   13.4189   40.4905   10.7006 C   0  0  0  0  0  0  0  0  0  0  0  0
   13.0775   39.2876   11.5775 C   0  0  0  0  0  0  0  0  0  0  0  0
   14.0871   38.1382   11.4119 C   0  0  0  0  0  0  0  0  0  0  0  0
   14.4115   38.7348    9.1317 C   0  0  0  0  0  0  0  0  0  0  0  0
   15.0495   44.8859    4.7892 O   0  0  0  0  0  0  0  0  0  0  0  0
   13.4754   43.3136    5.5430 N   0  0  0  0  0  0  0  0  0  0  0  0
   15.0943   38.4150   10.3840 N   0  0  0  0  0  0  0  0  0  0  0  0
  1  2  1  0
  2 15  1  0
  4  5  2  0
  6  7  2  0
  8  3  2  0
  9  7  1  6
  9 10  1  0
 10 11  1  0
 11 12  1  0
 12 16  1  0
 13 16  1  0
 13  9  1  0
 15  3  1  0
  2 14  2  0
  3  4  1  0
  5  6  1  0
  7  8  1  0
M  END
>  <rmsd>  (484) 
0.240562379

$$$$
MolPort-020-275-230 MCULE-1542188336 PubChem-110252907
     RDKit          3D

 25 27  0  0  0  0  0  0  0  0999 V2000
   16.7827   46.5354    4.0362 C   0  0  0  0  0  0  0  0  0  0  0  0
   15.4393   45.9135    3.9076 C   0  0  0  0  0  0  0  0  0  0  0  0
   13.8433   44.3243    4.6763 C   0  0  0  0  0  0  0  0  0  0  0  0
   12.9404   44.7352    3.6918 C   0  0  0  0  0  0  0  0  0  0  0  0
   13.3041   45.7520    2.8073 C   0  0  0  0  0  0  0  0  0  0  0  0
   14.5616   46.3480    2.9126 C   0  0  0  0  0  0  0  0  0  0  0  0
   14.2362   42.7209    6.6481 C   0  0  0  0  0  0  0  0  0  0  0  0
   14.3880   41.1590    8.4306 C   0  0  0  0  0  0  0  0  0  0  0  0
   15.6828   41.6104    8.7151 C   0  0  0  0  0  0  0  0  0  0  0  0
   15.5316   43.1671    6.9391 C   0  0  0  0  0  0  0  0  0  0  0  0
   13.7502   40.0677    9.2294 C   0  0  2  0  0  0  0  0  0  0  0  0
   13.6013   40.4736   10.6980 C   0  0  0  0  0  0  0  0  0  0  0  0
   12.9310   39.3557   11.4937 C   0  0  0  0  0  0  0  0  0  0  0  0
   13.7461   38.0716   11.3762 C   0  0  0  0  0  0  0  0  0  0  0  0
   14.5390   38.7633    9.1036 C   0  0  0  0  0  0  0  0  0  0  0  0
   13.5372   36.4790    9.4287 C   0  0  0  0  0  0  0  0  0  0  0  0
   12.9345   35.4317   10.3047 C   0  0  0  0  0  0  0  0  0  0  0  0
   13.2814   33.8159   11.7649 C   0  0  0  0  0  0  0  0  0  0  0  0
   15.0657   44.9212    4.7596 N   0  0  0  0  0  0  0  0  0  0  0  0
   13.4588   43.2788    5.5792 N   0  0  0  0  0  0  0  0  0  0  0  0
   13.7000   41.7265    7.4047 N   0  0  0  0  0  0  0  0  0  0  0  0
   16.2242   42.6035    7.9632 N   0  0  0  0  0  0  0  0  0  0  0  0
   13.9415   37.7472    9.9653 N   0  0  0  0  0  0  0  0  0  0  0  0
   13.7153   36.2218    8.2081 O   0  0  0  0  0  0  0  0  0  0  0  0
   13.9456   34.6592   10.8756 O   0  0  0  0  0  0  0  0  0  0  0  0
  1  2  1  0
  3 19  2  0
  3 20  1  0
  4  5  2  0
  6  2  2  0
  8 21  2  0
  9 22  2  0
 10  7  2  0
 11  8  1  6
 11 12  1  0
 12 13  1  0
 13 14  1  0
 14 23  1  0
 15 23  1  0
 15 11  1  0
 17 16  1  0
 17 25  1  0
 18 25  1  0
 20  7  1  0
 23 16  1  0
  2 19  1  0
  3  4  1  0
  5  6  1  0
  7 21  1  0
  8  9  1  0
 10 22  1  0
 16 24  2  0
M  END
>  <rmsd>  (485) 
0.240559742

$$$$
MolPort-045-953-891 CSSS00160216300 MCULE-4434783732
     RDKit          3D

 26 28  0  0  0  0  0  0  0  0999 V2000
   12.8930   43.5148    2.5211 C   0  0  0  0  0  0  0  0  0  0  0  0
   13.1146   44.7059    3.4327 C   0  0  0  0  0  0  0  0  0  0  0  0
   11.7790   45.2633    3.8853 C   0  0  0  0  0  0  0  0  0  0  0  0
   13.9429   44.3127    4.6100 C   0  0  0  0  0  0  0  0  0  0  0  0
   14.2604   42.7280    6.5630 C   0  0  0  0  0  0  0  0  0  0  0  0
   13.7430   42.7012    7.8619 C   0  0  0  0  0  0  0  0  0  0  0  0
   14.4731   42.1264    8.9036 C   0  0  0  0  0  0  0  0  0  0  0  0
   15.7251   41.5486    8.6538 C   0  0  0  0  0  0  0  0  0  0  0  0
   16.0283   40.5986   11.0036 C   0  0  0  0  0  0  0  0  0  0  0  0
   14.7198   39.9359   11.1866 C   0  0  0  0  0  0  0  0  0  0  0  0
   14.1082   39.9262   12.4653 C   0  0  0  0  0  0  0  0  0  0  0  0
   12.8744   39.2828   12.6734 C   0  0  0  0  0  0  0  0  0  0  0  0
   12.2888   38.6548   11.5786 C   0  0  0  0  0  0  0  0  0  0  0  0
   11.0610   37.5901   10.2459 C   0  0  0  0  0  0  0  0  0  0  0  0
    9.9243   36.7963    9.7085 C   0  0  0  0  0  0  0  0  0  0  0  0
   12.8739   38.6478   10.3506 C   0  0  0  0  0  0  0  0  0  0  0  0
   14.0939   39.2717   10.1091 C   0  0  0  0  0  0  0  0  0  0  0  0
   16.2389   41.5600    7.3548 C   0  0  0  0  0  0  0  0  0  0  0  0
   15.5152   42.1351    6.3052 C   0  0  0  0  0  0  0  0  0  0  0  0
   15.0476   44.8867    4.8040 O   0  0  0  0  0  0  0  0  0  0  0  0
   16.7696   40.7863   12.0047 O   0  0  0  0  0  0  0  0  0  0  0  0
   13.4679   43.3191    5.5271 N   0  0  0  0  0  0  0  0  0  0  0  0
   16.5123   40.9841    9.7095 N   0  0  0  0  0  0  0  0  0  0  0  0
   11.1279   37.9857   11.5436 N   0  0  0  0  0  0  0  0  0  0  0  0
   12.1127   37.9742    9.4770 N   0  0  0  0  0  0  0  0  0  0  0  0
   16.1744   42.0001    4.6821 Cl  0  0  0  0  0  0  0  0  0  0  0  0
  1  2  1  0
  2  3  1  0
  2  4  1  0
  4 22  1  0
  6  7  2  0
  8 23  1  0
  8 18  2  0
  9 10  1  0
 11 12  2  0
 13 24  1  0
 15 14  1  0
 16 25  1  0
 16 13  2  0
 17 10  2  0
 19 26  1  0
 19  5  2  0
 22  5  1  0
 23  9  1  0
 24 14  1  0
  4 20  2  0
  5  6  1  0
  7  8  1  0
  9 21  2  0
 10 11  1  0
 12 13  1  0
 14 25  2  0
 16 17  1  0
 18 19  1  0
M  END
>  <rmsd>  (486) 
0.240554988

$$$$
MolPort-020-275-234 MCULE-5559813353 PubChem-110252911
     RDKit          3D

 26 29  0  0  0  0  0  0  0  0999 V2000
   16.7847   46.5341    4.0363 C   0  0  0  0  0  0  0  0  0  0  0  0
   15.4410   45.9128    3.9074 C   0  0  0  0  0  0  0  0  0  0  0  0
   13.8442   44.3243    4.6762 C   0  0  0  0  0  0  0  0  0  0  0  0
   12.9419   44.7349    3.6909 C   0  0  0  0  0  0  0  0  0  0  0  0
   13.3064   45.7513    2.8061 C   0  0  0  0  0  0  0  0  0  0  0  0
   14.5637   46.3471    2.9118 C   0  0  0  0  0  0  0  0  0  0  0  0
   14.2353   42.7225    6.6494 C   0  0  0  0  0  0  0  0  0  0  0  0
   14.3858   41.1617    8.4330 C   0  0  0  0  0  0  0  0  0  0  0  0
   15.6801   41.6138    8.7186 C   0  0  0  0  0  0  0  0  0  0  0  0
   15.5302   43.1695    6.9419 C   0  0  0  0  0  0  0  0  0  0  0  0
   13.7480   40.0698    9.2307 C   0  0  2  0  0  0  0  0  0  0  0  0
   13.6032   40.4720   10.7008 C   0  0  0  0  0  0  0  0  0  0  0  0
   12.9327   39.3532   11.4953 C   0  0  0  0  0  0  0  0  0  0  0  0
   13.7443   38.0674   11.3722 C   0  0  0  0  0  0  0  0  0  0  0  0
   14.5345   38.7647    9.1002 C   0  0  0  0  0  0  0  0  0  0  0  0
   13.5236   36.4815    9.4271 C   0  0  0  0  0  0  0  0  0  0  0  0
   12.5547   34.3447    9.7516 C   0  0  0  0  0  0  0  0  0  0  0  0
   12.7252   34.0487    8.4007 C   0  0  0  0  0  0  0  0  0  0  0  0
   13.3093   35.0126    7.5814 C   0  0  0  0  0  0  0  0  0  0  0  0
   15.0666   44.9211    4.7597 N   0  0  0  0  0  0  0  0  0  0  0  0
   13.4590   43.2793    5.5792 N   0  0  0  0  0  0  0  0  0  0  0  0
   13.6987   41.7280    7.4058 N   0  0  0  0  0  0  0  0  0  0  0  0
   16.2217   42.6068    7.9669 N   0  0  0  0  0  0  0  0  0  0  0  0
   13.9364   37.7476    9.9603 N   0  0  0  0  0  0  0  0  0  0  0  0
   12.9541   35.5480   10.2390 N   0  0  0  0  0  0  0  0  0  0  0  0
   13.6960   36.2050    8.1047 N   0  0  0  0  0  0  0  0  0  0  0  0
  1  2  1  0
  3 20  2  0
  3 21  1  0
  4  5  2  0
  6  2  2  0
  8 22  2  0
  9 23  2  0
 10  7  2  0
 11  8  1  6
 11 12  1  0
 12 13  1  0
 13 14  1  0
 14 24  1  0
 15 24  1  0
 15 11  1  0
 16 26  2  0
 17 25  2  0
 18 19  2  0
 21  7  1  0
 24 16  1  0
  2 20  1  0
  3  4  1  0
  5  6  1  0
  7 22  1  0
  8  9  1  0
 10 23  1  0
 16 25  1  0
 17 18  1  0
 19 26  1  0
M  END
>  <rmsd>  (487) 
0.240516111

$$$$
Molport-020-279-143 MCULE-5768605864 MCULE-8724888574 PubChem-110255897
     RDKit          3D

 26 28  0  0  0  0  0  0  0  0999 V2000
   16.7879   46.5346    4.0440 C   0  0  0  0  0  0  0  0  0  0  0  0
   15.4444   45.9139    3.9115 C   0  0  0  0  0  0  0  0  0  0  0  0
   13.8453   44.3252    4.6753 C   0  0  0  0  0  0  0  0  0  0  0  0
   12.9453   44.7372    3.6888 C   0  0  0  0  0  0  0  0  0  0  0  0
   13.3119   45.7544    2.8057 C   0  0  0  0  0  0  0  0  0  0  0  0
   14.5695   46.3494    2.9145 C   0  0  0  0  0  0  0  0  0  0  0  0
   14.2314   42.7199    6.6477 C   0  0  0  0  0  0  0  0  0  0  0  0
   14.3759   41.1594    8.4262 C   0  0  0  0  0  0  0  0  0  0  0  0
   16.2168   42.5774    7.9933 C   0  0  0  0  0  0  0  0  0  0  0  0
   15.5246   43.1677    6.9383 C   0  0  0  0  0  0  0  0  0  0  0  0
   17.5920   43.0314    8.3261 C   0  0  0  0  0  0  0  0  0  0  0  0
   13.7405   40.0698    9.2241 C   0  0  2  0  0  0  0  0  0  0  0  0
   13.6054   40.4825   10.6912 C   0  0  0  0  0  0  0  0  0  0  0  0
   12.9527   39.3640   11.5007 C   0  0  0  0  0  0  0  0  0  0  0  0
   13.7779   38.0863   11.3828 C   0  0  0  0  0  0  0  0  0  0  0  0
   14.5441   38.7753    9.1006 C   0  0  0  0  0  0  0  0  0  0  0  0
   13.5677   36.4826    9.4444 C   0  0  0  0  0  0  0  0  0  0  0  0
   12.9842   35.4326   10.3304 C   0  0  0  0  0  0  0  0  0  0  0  0
   13.4151   33.6452   11.7600 C   0  0  0  0  0  0  0  0  0  0  0  0
   15.0678   44.9215    4.7619 N   0  0  0  0  0  0  0  0  0  0  0  0
   13.4577   43.2796    5.5767 N   0  0  0  0  0  0  0  0  0  0  0  0
   13.6886   41.7259    7.3995 N   0  0  0  0  0  0  0  0  0  0  0  0
   15.6346   41.5875    8.7170 N   0  0  0  0  0  0  0  0  0  0  0  0
   13.9650   37.7568    9.9720 N   0  0  0  0  0  0  0  0  0  0  0  0
   14.0488   34.6226   10.8948 N   0  0  0  0  0  0  0  0  0  0  0  0
   13.7346   36.2231    8.2226 O   0  0  0  0  0  0  0  0  0  0  0  0
  1  2  1  0
  3 20  2  0
  3 21  1  0
  4  5  2  0
  6  2  2  0
  8 22  2  0
  9 23  2  0
 10  7  2  0
 11  9  1  0
 12  8  1  6
 12 13  1  0
 13 14  1  0
 14 15  1  0
 15 24  1  0
 16 24  1  0
 16 12  1  0
 18 17  1  0
 18 25  1  0
 19 25  1  0
 21  7  1  0
 24 17  1  0
  2 20  1  0
  3  4  1  0
  5  6  1  0
  7 22  1  0
  8 23  1  0
  9 10  1  0
 17 26  2  0
M  END
>  <rmsd>  (488) 
0.240459353

$$$$
Molport-020-279-176 MCULE-7641056097 PubChem-110255930
     RDKit          3D

 26 29  0  0  0  0  0  0  0  0999 V2000
   16.7837   46.5356    4.0368 C   0  0  0  0  0  0  0  0  0  0  0  0
   15.4403   45.9137    3.9078 C   0  0  0  0  0  0  0  0  0  0  0  0
   13.8441   44.3246    4.6760 C   0  0  0  0  0  0  0  0  0  0  0  0
   12.9419   44.7348    3.6906 C   0  0  0  0  0  0  0  0  0  0  0  0
   13.3062   45.7512    2.8058 C   0  0  0  0  0  0  0  0  0  0  0  0
   14.5634   46.3474    2.9117 C   0  0  0  0  0  0  0  0  0  0  0  0
   14.2357   42.7223    6.6490 C   0  0  0  0  0  0  0  0  0  0  0  0
   14.3864   41.1614    8.4324 C   0  0  0  0  0  0  0  0  0  0  0  0
   15.6813   41.6125    8.7170 C   0  0  0  0  0  0  0  0  0  0  0  0
   15.5312   43.1683    6.9403 C   0  0  0  0  0  0  0  0  0  0  0  0
   13.7482   40.0703    9.2310 C   0  0  2  0  0  0  0  0  0  0  0  0
   13.6029   40.4739   10.7004 C   0  0  0  0  0  0  0  0  0  0  0  0
   12.9340   39.3551   11.4958 C   0  0  0  0  0  0  0  0  0  0  0  0
   13.7464   38.0698   11.3712 C   0  0  0  0  0  0  0  0  0  0  0  0
   14.5349   38.7652    9.1028 C   0  0  0  0  0  0  0  0  0  0  0  0
   13.5115   36.4773    9.4223 C   0  0  0  0  0  0  0  0  0  0  0  0
   12.9245   35.5039   10.2395 C   0  0  0  0  0  0  0  0  0  0  0  0
   12.7044   34.0454    8.3940 C   0  0  0  0  0  0  0  0  0  0  0  0
   13.6747   36.1743    8.0653 C   0  0  0  0  0  0  0  0  0  0  0  0
   15.0662   44.9218    4.7600 N   0  0  0  0  0  0  0  0  0  0  0  0
   13.4589   43.2797    5.5793 N   0  0  0  0  0  0  0  0  0  0  0  0
   13.6989   41.7283    7.4059 N   0  0  0  0  0  0  0  0  0  0  0  0
   16.2232   42.6050    7.9647 N   0  0  0  0  0  0  0  0  0  0  0  0
   13.9310   37.7452    9.9579 N   0  0  0  0  0  0  0  0  0  0  0  0
   12.5341   34.3135    9.7145 N   0  0  0  0  0  0  0  0  0  0  0  0
   13.2711   34.9721    7.5786 N   0  0  0  0  0  0  0  0  0  0  0  0
  1  2  1  0
  3 20  2  0
  3 21  1  0
  4  5  2  0
  6  2  2  0
  8 22  2  0
  9 23  2  0
 10  7  2  0
 11  8  1  6
 11 12  1  0
 12 13  1  0
 13 14  1  0
 14 24  1  0
 15 24  1  0
 15 11  1  0
 17 25  2  0
 18 26  2  0
 19 16  2  0
 21  7  1  0
 24 16  1  0
  2 20  1  0
  3  4  1  0
  5  6  1  0
  7 22  1  0
  8  9  1  0
 10 23  1  0
 16 17  1  0
 18 25  1  0
 19 26  1  0
M  END
>  <rmsd>  (489) 
0.240435734

$$$$
Molport-020-279-146 MCULE-3336476174 MCULE-7297811487 PubChem-110255900
     RDKit          3D

 25 27  0  0  0  0  0  0  0  0999 V2000
   17.5873   43.0341    8.3351 C   0  0  0  0  0  0  0  0  0  0  0  0
   16.2130   42.5793    7.9997 C   0  0  0  0  0  0  0  0  0  0  0  0
   15.5223   43.1688    6.9433 C   0  0  0  0  0  0  0  0  0  0  0  0
   14.2301   42.7199    6.6502 C   0  0  0  0  0  0  0  0  0  0  0  0
   14.3722   41.1599    8.4295 C   0  0  0  0  0  0  0  0  0  0  0  0
   13.7368   40.0688    9.2252 C   0  0  2  0  0  0  0  0  0  0  0  0
   13.6038   40.4773   10.6937 C   0  0  0  0  0  0  0  0  0  0  0  0
   12.9510   39.3567   11.5006 C   0  0  0  0  0  0  0  0  0  0  0  0
   13.7740   38.0779   11.3774 C   0  0  0  0  0  0  0  0  0  0  0  0
   14.5397   38.7746    9.0975 C   0  0  0  0  0  0  0  0  0  0  0  0
   13.5547   36.4777    9.4478 C   0  0  0  0  0  0  0  0  0  0  0  0
   13.7410   36.1404    8.0057 C   0  0  0  0  0  0  0  0  0  0  0  0
   15.1914   35.3164    6.3805 C   0  0  0  0  0  0  0  0  0  0  0  0
   13.8472   44.3238    4.6763 C   0  0  0  0  0  0  0  0  0  0  0  0
   15.4307   45.9121    3.9032 C   0  0  0  0  0  0  0  0  0  0  0  0
   14.5356   46.3251    2.9155 C   0  0  0  0  0  0  0  0  0  0  0  0
   12.9542   44.7398    3.6865 C   0  0  0  0  0  0  0  0  0  0  0  0
   13.6865   41.7255    7.4011 N   0  0  0  0  0  0  0  0  0  0  0  0
   15.6301   41.5888    8.7225 N   0  0  0  0  0  0  0  0  0  0  0  0
   13.9594   37.7535    9.9658 N   0  0  0  0  0  0  0  0  0  0  0  0
   15.0664   35.5843    7.8011 N   0  0  0  0  0  0  0  0  0  0  0  0
   13.4582   43.2786    5.5776 N   0  0  0  0  0  0  0  0  0  0  0  0
   15.0675   44.9222    4.7604 N   0  0  0  0  0  0  0  0  0  0  0  0
   13.3169   45.7301    2.8287 N   0  0  0  0  0  0  0  0  0  0  0  0
   13.0593   35.6102   10.2159 O   0  0  0  0  0  0  0  0  0  0  0  0
  1  2  1  0
  2 19  2  0
  3  4  2  0
  4 22  1  0
  5 18  2  0
  6  5  1  6
  6  7  1  0
  7  8  1  0
  8  9  1  0
  9 20  1  0
 10 20  1  0
 10  6  1  0
 12 11  1  0
 12 21  1  0
 13 21  1  0
 15 23  2  0
 16 24  2  0
 17 14  2  0
 20 11  1  0
 22 14  1  0
  2  3  1  0
  4 18  1  0
  5 19  1  0
 11 25  2  0
 14 23  1  0
 15 16  1  0
 17 24  1  0
M  END
>  <rmsd>  (490) 
0.240414381

$$$$
Molport-052-053-362
     RDKit          3D

 26 28  0  0  0  0  0  0  0  0999 V2000
   12.3353   42.0625   10.3224 C   0  0  0  0  0  0  0  0  0  0  0  0
   13.6463   41.3000   10.0563 C   0  0  2  0  0  0  0  0  0  0  0  0
   13.4064   39.2126   11.3617 C   0  0  0  0  0  0  0  0  0  0  0  0
   12.5268   39.2867    9.0137 C   0  0  0  0  0  0  0  0  0  0  0  0
   11.2150   38.7868    9.5929 C   0  0  0  0  0  0  0  0  0  0  0  0
    9.1136   39.3665   10.5614 C   0  0  0  0  0  0  0  0  0  0  0  0
    8.7754   38.0240   10.7063 C   0  0  0  0  0  0  0  0  0  0  0  0
    9.6719   37.0450   10.2815 C   0  0  0  0  0  0  0  0  0  0  0  0
   10.9084   37.4071    9.7223 C   0  0  0  0  0  0  0  0  0  0  0  0
   11.8387   36.3251    9.2384 C   0  0  0  0  0  0  0  0  0  0  0  0
   14.3412   41.7692    8.8021 C   0  0  0  0  0  0  0  0  0  0  0  0
   16.3376   41.9399    7.5384 C   0  0  0  0  0  0  0  0  0  0  0  0
   17.8103   41.7064    7.4234 C   0  0  0  0  0  0  0  0  0  0  0  0
   15.6281   42.5163    6.4809 C   0  0  0  0  0  0  0  0  0  0  0  0
   14.2485   42.7200    6.6275 C   0  0  0  0  0  0  0  0  0  0  0  0
   13.9147   44.2503    4.6292 C   0  0  0  0  0  0  0  0  0  0  0  0
   15.2378   45.8370    3.7534 C   0  0  0  0  0  0  0  0  0  0  0  0
   14.2009   45.8705    2.8279 C   0  0  0  0  0  0  0  0  0  0  0  0
   14.0857   46.8179    1.6813 C   0  0  0  0  0  0  0  0  0  0  0  0
   13.4788   39.8250   10.0229 N   0  0  0  0  0  0  0  0  0  0  0  0
   10.3075   39.7105   10.0148 N   0  0  0  0  0  0  0  0  0  0  0  0
   15.6807   41.5778    8.6714 N   0  0  0  0  0  0  0  0  0  0  0  0
   13.4492   43.2764    5.5726 N   0  0  0  0  0  0  0  0  0  0  0  0
   15.0741   44.9343    4.7565 N   0  0  0  0  0  0  0  0  0  0  0  0
   13.6388   42.3216    7.7751 N   0  0  0  0  0  0  0  0  0  0  0  0
   13.0266   44.7589    3.2936 S   0  0  0  0  0  0  0  0  0  0  0  0
  2  1  1  6
  2 20  1  0
  2 11  1  0
  3 20  1  0
  4 20  1  0
  4  5  1  0
  6 21  2  0
  7  8  2  0
  9  5  2  0
 10  9  1  0
 11 25  2  0
 12 22  2  0
 13 12  1  0
 14 15  2  0
 15 23  1  0
 16 26  1  0
 17 24  1  0
 18 26  1  0
 19 18  1  0
 23 16  1  0
  5 21  1  0
  6  7  1  0
  8  9  1  0
 11 22  1  0
 12 14  1  0
 15 25  1  0
 16 24  2  0
 17 18  2  0
M  END
>  <rmsd>  (491) 
0.240405455

$$$$
MolPort-020-275-231 MCULE-7586230728 PubChem-110252908
     RDKit          3D

 26 28  0  0  0  0  0  0  0  0999 V2000
   12.3157   46.1293    1.7980 C   0  0  0  0  0  0  0  0  0  0  0  0
   13.2915   45.7108    2.8376 C   0  0  0  0  0  0  0  0  0  0  0  0
   14.5379   46.3296    2.9128 C   0  0  0  0  0  0  0  0  0  0  0  0
   15.4252   45.9091    3.9013 C   0  0  0  0  0  0  0  0  0  0  0  0
   13.8444   44.3245    4.6745 C   0  0  0  0  0  0  0  0  0  0  0  0
   14.2363   42.7231    6.6488 C   0  0  0  0  0  0  0  0  0  0  0  0
   14.3865   41.1625    8.4325 C   0  0  0  0  0  0  0  0  0  0  0  0
   15.6807   41.6147    8.7184 C   0  0  0  0  0  0  0  0  0  0  0  0
   15.5310   43.1703    6.9415 C   0  0  0  0  0  0  0  0  0  0  0  0
   13.7488   40.0701    9.2298 C   0  0  2  0  0  0  0  0  0  0  0  0
   13.6029   40.4717   10.6998 C   0  0  0  0  0  0  0  0  0  0  0  0
   12.9326   39.3522   11.4933 C   0  0  0  0  0  0  0  0  0  0  0  0
   13.7451   38.0666   11.3702 C   0  0  0  0  0  0  0  0  0  0  0  0
   14.5364   38.7658    9.0996 C   0  0  0  0  0  0  0  0  0  0  0  0
   13.5252   36.4779    9.4313 C   0  0  0  0  0  0  0  0  0  0  0  0
   13.7188   36.1461    7.9890 C   0  0  0  0  0  0  0  0  0  0  0  0
   15.1400   35.5567    6.4091 C   0  0  0  0  0  0  0  0  0  0  0  0
   16.7645   46.5423    4.0167 C   0  0  0  0  0  0  0  0  0  0  0  0
   15.0657   44.9199    4.7600 N   0  0  0  0  0  0  0  0  0  0  0  0
   12.9687   44.7247    3.7148 N   0  0  0  0  0  0  0  0  0  0  0  0
   13.4600   43.2797    5.5783 N   0  0  0  0  0  0  0  0  0  0  0  0
   13.6996   41.7286    7.4051 N   0  0  0  0  0  0  0  0  0  0  0  0
   16.2225   42.6077    7.9668 N   0  0  0  0  0  0  0  0  0  0  0  0
   13.9382   37.7472    9.9584 N   0  0  0  0  0  0  0  0  0  0  0  0
   13.0172   35.6109   10.1916 O   0  0  0  0  0  0  0  0  0  0  0  0
   14.9999   35.6310    7.7941 O   0  0  0  0  0  0  0  0  0  0  0  0
  1  2  1  0
  2 20  2  0
  3  4  2  0
  5 19  2  0
  5 21  1  0
  7 22  2  0
  8 23  2  0
  9  6  2  0
 10  7  1  6
 10 11  1  0
 11 12  1  0
 12 13  1  0
 13 24  1  0
 14 24  1  0
 14 10  1  0
 16 15  1  0
 16 26  1  0
 17 26  1  0
 18  4  1  0
 21  6  1  0
 24 15  1  0
  2  3  1  0
  4 19  1  0
  5 20  1  0
  6 22  1  0
  7  8  1  0
  9 23  1  0
 15 25  2  0
M  END
>  <rmsd>  (492) 
0.240365282

$$$$
MolPort-047-015-575 MCULE-1091549304 PubChem-110095393
     RDKit          3D

 24 26  0  0  0  0  0  0  0  0999 V2000
   17.5835   43.0038    8.3407 C   0  0  0  0  0  0  0  0  0  0  0  0
   16.2072   42.5555    8.0054 C   0  0  0  0  0  0  0  0  0  0  0  0
   15.5185   43.1497    6.9503 C   0  0  0  0  0  0  0  0  0  0  0  0
   14.2242   42.7066    6.6579 C   0  0  0  0  0  0  0  0  0  0  0  0
   14.3603   41.1434    8.4343 C   0  0  0  0  0  0  0  0  0  0  0  0
   13.7202   40.0549    9.2297 C   0  0  2  0  0  0  0  0  0  0  0  0
   13.5862   40.4650   10.6976 C   0  0  0  0  0  0  0  0  0  0  0  0
   12.9284   39.3473   11.5044 C   0  0  0  0  0  0  0  0  0  0  0  0
   13.7482   38.0662   11.3841 C   0  0  0  0  0  0  0  0  0  0  0  0
   14.5185   38.7573    9.1038 C   0  0  0  0  0  0  0  0  0  0  0  0
   13.5328   36.4615    9.4581 C   0  0  0  0  0  0  0  0  0  0  0  0
   13.7070   36.1267    8.0153 C   0  0  0  0  0  0  0  0  0  0  0  0
   13.8686   44.3172    4.6986 C   0  0  0  0  0  0  0  0  0  0  0  0
   15.1863   45.8836    3.7858 C   0  0  0  0  0  0  0  0  0  0  0  0
   14.0691   46.0231    2.9677 C   0  0  0  0  0  0  0  0  0  0  0  0
   13.9135   46.9797    1.8372 C   0  0  0  0  0  0  0  0  0  0  0  0
   16.4231   46.6998    3.6385 C   0  0  0  0  0  0  0  0  0  0  0  0
   13.6762   41.7136    7.4073 N   0  0  0  0  0  0  0  0  0  0  0  0
   15.6203   41.5666    8.7271 N   0  0  0  0  0  0  0  0  0  0  0  0
   13.9346   37.7392    9.9731 N   0  0  0  0  0  0  0  0  0  0  0  0
   13.4565   43.2716    5.5869 N   0  0  0  0  0  0  0  0  0  0  0  0
   15.0719   44.9323    4.7495 N   0  0  0  0  0  0  0  0  0  0  0  0
   13.0237   35.6006   10.2242 O   0  0  0  0  0  0  0  0  0  0  0  0
   12.8996   44.9219    3.4643 S   0  0  0  0  0  0  0  0  0  0  0  0
  1  2  1  0
  2 19  2  0
  3  4  2  0
  4 21  1  0
  5 18  2  0
  6  5  1  6
  6  7  1  0
  7  8  1  0
  8  9  1  0
  9 20  1  0
 10 20  1  0
 10  6  1  0
 12 11  1  0
 13 24  1  0
 14 22  1  0
 15 24  1  0
 16 15  1  0
 17 14  1  0
 20 11  1  0
 21 13  1  0
  2  3  1  0
  4 18  1  0
  5 19  1  0
 11 23  2  0
 13 22  2  0
 14 15  2  0
M  END
>  <rmsd>  (493) 
0.240327671

$$$$
MolPort-016-717-760 MCULE-1350615302 PubChem-46974622
     RDKit          3D

 29 32  0  0  0  0  0  0  0  0999 V2000
   13.0472   39.5201   11.8454 C   0  0  0  0  0  0  0  0  0  0  0  0
   13.2709   38.8242   10.5154 C   0  0  0  0  0  0  0  0  0  0  0  0
   14.7399   40.4698    9.3692 C   0  0  0  0  0  0  0  0  0  0  0  0
   14.8912   41.4425    8.3761 C   0  0  0  0  0  0  0  0  0  0  0  0
   16.0895   42.1282    8.2411 C   0  0  0  0  0  0  0  0  0  0  0  0
   17.1819   41.8876    9.0691 C   0  0  0  0  0  0  0  0  0  0  0  0
   17.0454   40.9131   10.0688 C   0  0  0  0  0  0  0  0  0  0  0  0
   15.8358   40.2088   10.2187 C   0  0  0  0  0  0  0  0  0  0  0  0
   14.3606   42.7628    6.6512 C   0  0  0  0  0  0  0  0  0  0  0  0
   13.8811   44.3351    4.6917 C   0  0  0  0  0  0  0  0  0  0  0  0
   12.9028   44.7462    3.6451 C   0  0  0  0  0  0  0  0  0  0  0  0
   12.7921   43.6857    2.5576 C   0  0  2  0  0  0  0  0  0  0  0  0
   13.9220   43.7955    1.5764 C   0  0  0  0  0  0  0  0  0  0  0  0
   12.0584   44.1912    0.4102 C   0  0  0  0  0  0  0  0  0  0  0  0
   14.2547   44.2934   -0.9327 C   0  0  0  0  0  0  0  0  0  0  0  0
   13.6345   44.5836   -2.1581 C   0  0  0  0  0  0  0  0  0  0  0  0
   14.3954   44.7635   -3.3167 C   0  0  0  0  0  0  0  0  0  0  0  0
   15.7869   44.6551   -3.2618 C   0  0  0  0  0  0  0  0  0  0  0  0
   16.4164   44.3670   -2.0487 C   0  0  0  0  0  0  0  0  0  0  0  0
   15.6538   44.1875   -0.8912 C   0  0  0  0  0  0  0  0  0  0  0  0
   13.5264   39.7816    9.4931 O   0  0  0  0  0  0  0  0  0  0  0  0
   15.0069   44.8968    4.7373 O   0  0  0  0  0  0  0  0  0  0  0  0
   15.1315   43.5980    1.8693 O   0  0  0  0  0  0  0  0  0  0  0  0
   11.2678   44.4521   -0.5345 O   0  0  0  0  0  0  0  0  0  0  0  0
   15.9639   43.2200    6.9746 S   0  0  0  0  0  0  0  0  0  0  0  0
   13.9234   41.7932    7.4901 N   0  0  0  0  0  0  0  0  0  0  0  0
   13.5271   43.3014    5.6180 N   0  0  0  0  0  0  0  0  0  0  0  0
   13.4693   44.1085    0.2619 N   0  0  0  0  0  0  0  0  0  0  0  0
   11.6120   43.9532    1.7392 N   0  0  0  0  0  0  0  0  0  0  0  0
  1  2  1  0
  2 21  1  0
  3 21  1  0
  4  5  2  0
  4 26  1  0
  5 25  1  0
  6  7  2  0
  8  3  2  0
  9 25  1  0
  9 27  1  0
 11 10  1  0
 12 11  1  1
 12 13  1  0
 12 29  1  0
 13 28  1  0
 14 29  1  0
 16 17  2  0
 18 19  2  0
 20 15  2  0
 27 10  1  0
 28 14  1  0
 28 15  1  0
  3  4  1  0
  5  6  1  0
  7  8  1  0
  9 26  2  0
 10 22  2  0
 13 23  2  0
 14 24  2  0
 15 16  1  0
 17 18  1  0
 19 20  1  0
M  END
>  <rmsd>  (494) 
0.240261033

$$$$
MolPort-001-625-477 4696243 CSSS00132526133 ChemDiv-Y030-8192 LN00990780 MCULE-6331054327 PubChem-4036561 ZINC000004696243 ZINC04696243
     RDKit          3D

 30 32  0  0  0  0  0  0  0  0999 V2000
   13.1351   39.8849   11.4286 C   0  0  0  0  0  0  0  0  0  0  0  0
   13.9624   38.6366   11.1911 C   0  0  0  0  0  0  0  0  0  0  0  0
   14.9890   38.8805   10.0996 C   0  0  0  0  0  0  0  0  0  0  0  0
   16.3255   40.9931    9.9394 C   0  0  0  0  0  0  0  0  0  0  0  0
   15.5829   41.5741    8.7898 C   0  0  0  0  0  0  0  0  0  0  0  0
   16.1507   42.6384    8.0723 C   0  0  0  0  0  0  0  0  0  0  0  0
   15.4699   43.2189    6.9990 C   0  0  0  0  0  0  0  0  0  0  0  0
   14.2037   42.7479    6.6255 C   0  0  0  0  0  0  0  0  0  0  0  0
   13.9062   44.3754    4.6626 C   0  0  0  0  0  0  0  0  0  0  0  0
   13.0074   44.8639    3.6019 C   0  0  0  0  0  0  0  0  0  0  0  0
   13.4208   45.8877    2.7365 C   0  0  0  0  0  0  0  0  0  0  0  0
   12.5740   46.3584    1.7275 C   0  0  0  0  0  0  0  0  0  0  0  0
   12.3217   48.0253   -0.2089 C   0  0  0  0  0  0  0  0  0  0  0  0
   12.9698   49.0782   -1.0108 C   0  0  0  0  0  0  0  0  0  0  0  0
   12.2790   49.6957   -2.0645 C   0  0  0  0  0  0  0  0  0  0  0  0
   12.8952   50.6939   -2.8252 C   0  0  0  0  0  0  0  0  0  0  0  0
   14.2064   51.0822   -2.5379 C   0  0  0  0  0  0  0  0  0  0  0  0
   14.9018   50.4723   -1.4903 C   0  0  0  0  0  0  0  0  0  0  0  0
   14.2858   49.4741   -0.7299 C   0  0  0  0  0  0  0  0  0  0  0  0
   11.2978   45.7945    1.5850 C   0  0  0  0  0  0  0  0  0  0  0  0
   10.8766   44.7747    2.4417 C   0  0  0  0  0  0  0  0  0  0  0  0
   11.7287   44.3111    3.4466 C   0  0  0  0  0  0  0  0  0  0  0  0
   13.6291   41.6955    7.3430 C   0  0  0  0  0  0  0  0  0  0  0  0
   14.3117   41.1157    8.4157 C   0  0  0  0  0  0  0  0  0  0  0  0
   15.9878   39.7809   10.5609 O   0  0  0  0  0  0  0  0  0  0  0  0
   17.3235   41.6185   10.3875 O   0  0  0  0  0  0  0  0  0  0  0  0
   15.0524   44.8848    4.7944 O   0  0  0  0  0  0  0  0  0  0  0  0
   11.1374   47.6797   -0.4708 O   0  0  0  0  0  0  0  0  0  0  0  0
   13.4716   43.3189    5.5326 N   0  0  0  0  0  0  0  0  0  0  0  0
   13.0437   47.4042    0.8659 N   0  0  0  0  0  0  0  0  0  0  0  0
  1  2  1  0
  2  3  1  0
  3 25  1  0
  4 25  1  0
  4  5  1  0
  6  7  2  0
  8 29  1  0
  8 23  2  0
  9 10  1  0
 11 12  2  0
 12 30  1  0
 13 14  1  0
 15 16  2  0
 17 18  2  0
 19 14  2  0
 20 21  2  0
 22 10  2  0
 24  5  2  0
 29  9  1  0
 30 13  1  0
  4 26  2  0
  5  6  1  0
  7  8  1  0
  9 27  2  0
 10 11  1  0
 12 20  1  0
 13 28  2  0
 14 15  1  0
 16 17  1  0
 18 19  1  0
 21 22  1  0
 23 24  1  0
M  END
>  <rmsd>  (495) 
0.240253866

$$$$
MolPort-020-279-174 MCULE-1711178122 PubChem-110255928
     RDKit          3D

 27 30  0  0  0  0  0  0  0  0999 V2000
   12.3143   46.1318    1.7997 C   0  0  0  0  0  0  0  0  0  0  0  0
   13.2906   45.7125    2.8385 C   0  0  0  0  0  0  0  0  0  0  0  0
   14.5372   46.3308    2.9132 C   0  0  0  0  0  0  0  0  0  0  0  0
   15.4249   45.9096    3.9011 C   0  0  0  0  0  0  0  0  0  0  0  0
   13.8439   44.3255    4.6747 C   0  0  0  0  0  0  0  0  0  0  0  0
   14.2361   42.7233    6.6482 C   0  0  0  0  0  0  0  0  0  0  0  0
   14.3866   41.1622    8.4316 C   0  0  0  0  0  0  0  0  0  0  0  0
   15.6813   41.6135    8.7167 C   0  0  0  0  0  0  0  0  0  0  0  0
   15.5315   43.1694    6.9400 C   0  0  0  0  0  0  0  0  0  0  0  0
   13.7484   40.0708    9.2297 C   0  0  2  0  0  0  0  0  0  0  0  0
   13.6018   40.4744   10.6991 C   0  0  0  0  0  0  0  0  0  0  0  0
   12.9320   39.3556   11.4940 C   0  0  0  0  0  0  0  0  0  0  0  0
   13.7450   38.0704   11.3717 C   0  0  0  0  0  0  0  0  0  0  0  0
   14.5358   38.7661    9.1019 C   0  0  0  0  0  0  0  0  0  0  0  0
   13.5159   36.4767    9.4359 C   0  0  0  0  0  0  0  0  0  0  0  0
   12.5408   34.3401    9.7871 C   0  0  0  0  0  0  0  0  0  0  0  0
   12.7083   34.0376    8.4356 C   0  0  0  0  0  0  0  0  0  0  0  0
   13.6812   36.1663    8.0788 C   0  0  0  0  0  0  0  0  0  0  0  0
   16.7646   46.5422    4.0158 C   0  0  0  0  0  0  0  0  0  0  0  0
   15.0654   44.9203    4.7596 N   0  0  0  0  0  0  0  0  0  0  0  0
   12.9677   44.7265    3.7156 N   0  0  0  0  0  0  0  0  0  0  0  0
   13.4595   43.2807    5.5785 N   0  0  0  0  0  0  0  0  0  0  0  0
   13.6993   41.7291    7.4048 N   0  0  0  0  0  0  0  0  0  0  0  0
   16.2232   42.6062    7.9647 N   0  0  0  0  0  0  0  0  0  0  0  0
   13.9344   37.7473    9.9600 N   0  0  0  0  0  0  0  0  0  0  0  0
   12.9470   35.5493   10.2560 N   0  0  0  0  0  0  0  0  0  0  0  0
   13.2747   34.9569    7.6110 N   0  0  0  0  0  0  0  0  0  0  0  0
  1  2  1  0
  2 21  2  0
  3  4  2  0
  5 20  2  0
  5 22  1  0
  7 23  2  0
  8 24  2  0
  9  6  2  0
 10  7  1  6
 10 11  1  0
 11 12  1  0
 12 13  1  0
 13 25  1  0
 14 25  1  0
 14 10  1  0
 16 26  2  0
 17 27  2  0
 18 15  2  0
 19  4  1  0
 22  6  1  0
 25 15  1  0
  2  3  1  0
  4 20  1  0
  5 21  1  0
  6 23  1  0
  7  8  1  0
  9 24  1  0
 15 26  1  0
 16 17  1  0
 18 27  1  0
M  END
>  <rmsd>  (496) 
0.240205809

$$$$
MolPort-020-278-625 MCULE-3634150499 PubChem-110255497
     RDKit          3D

 26 29  0  0  0  0  0  0  0  0999 V2000
   17.5901   43.0321    8.3309 C   0  0  0  0  0  0  0  0  0  0  0  0
   16.2154   42.5782    7.9967 C   0  0  0  0  0  0  0  0  0  0  0  0
   15.5242   43.1681    6.9407 C   0  0  0  0  0  0  0  0  0  0  0  0
   14.2312   42.7202    6.6488 C   0  0  0  0  0  0  0  0  0  0  0  0
   14.3739   41.1601    8.4280 C   0  0  0  0  0  0  0  0  0  0  0  0
   13.7380   40.0701    9.2249 C   0  0  2  0  0  0  0  0  0  0  0  0
   13.6045   40.4806   10.6927 C   0  0  0  0  0  0  0  0  0  0  0  0
   12.9520   39.3612   11.5010 C   0  0  0  0  0  0  0  0  0  0  0  0
   13.7750   38.0823   11.3785 C   0  0  0  0  0  0  0  0  0  0  0  0
   14.5405   38.7752    9.0994 C   0  0  0  0  0  0  0  0  0  0  0  0
   13.5534   36.4840    9.4308 C   0  0  0  0  0  0  0  0  0  0  0  0
   13.3462   35.0198    7.5727 C   0  0  0  0  0  0  0  0  0  0  0  0
   12.7781   34.0482    8.3970 C   0  0  0  0  0  0  0  0  0  0  0  0
   12.9817   35.5033   10.2535 C   0  0  0  0  0  0  0  0  0  0  0  0
   13.8462   44.3247    4.6749 C   0  0  0  0  0  0  0  0  0  0  0  0
   12.9459   44.7352    3.6879 C   0  0  0  0  0  0  0  0  0  0  0  0
   13.3120   45.7519    2.8041 C   0  0  0  0  0  0  0  0  0  0  0  0
   14.5690   46.3481    2.9126 C   0  0  0  0  0  0  0  0  0  0  0  0
   15.4439   45.9139    3.9101 C   0  0  0  0  0  0  0  0  0  0  0  0
   13.6877   41.7262    7.4003 N   0  0  0  0  0  0  0  0  0  0  0  0
   15.6323   41.5882    8.7200 N   0  0  0  0  0  0  0  0  0  0  0  0
   13.9573   37.7546    9.9658 N   0  0  0  0  0  0  0  0  0  0  0  0
   13.7202   36.2124    8.1061 N   0  0  0  0  0  0  0  0  0  0  0  0
   12.6082   34.3110    9.7191 N   0  0  0  0  0  0  0  0  0  0  0  0
   13.4586   43.2794    5.5770 N   0  0  0  0  0  0  0  0  0  0  0  0
   15.0682   44.9218    4.7615 N   0  0  0  0  0  0  0  0  0  0  0  0
  1  2  1  0
  2 21  2  0
  3  4  2  0
  4 25  1  0
  5 20  2  0
  6  5  1  6
  6  7  1  0
  7  8  1  0
  8  9  1  0
  9 22  1  0
 10 22  1  0
 10  6  1  0
 12 23  2  0
 13 24  2  0
 14 11  2  0
 15 26  2  0
 16 17  2  0
 18 19  2  0
 22 11  1  0
 25 15  1  0
  2  3  1  0
  4 20  1  0
  5 21  1  0
 11 23  1  0
 12 13  1  0
 14 24  1  0
 15 16  1  0
 17 18  1  0
 19 26  1  0
M  END
>  <rmsd>  (497) 
0.24019368

$$$$
Molport-020-278-640 MCULE-6882409117 PubChem-110255512
     RDKit          3D

 30 33  0  0  0  0  0  0  0  0999 V2000
   12.3393   46.1189    1.7778 C   0  0  0  0  0  0  0  0  0  0  0  0
   13.3079   45.7037    2.8255 C   0  0  0  0  0  0  0  0  0  0  0  0
   14.5536   46.3232    2.9076 C   0  0  0  0  0  0  0  0  0  0  0  0
   15.4339   45.9060    3.9037 C   0  0  0  0  0  0  0  0  0  0  0  0
   13.8482   44.3230    4.6704 C   0  0  0  0  0  0  0  0  0  0  0  0
   14.2264   42.7259    6.6514 C   0  0  0  0  0  0  0  0  0  0  0  0
   14.3617   41.1742    8.4385 C   0  0  0  0  0  0  0  0  0  0  0  0
   16.2079   42.5847    8.0032 C   0  0  0  0  0  0  0  0  0  0  0  0
   15.5199   43.1717    6.9436 C   0  0  0  0  0  0  0  0  0  0  0  0
   17.5837   43.0361    8.3369 C   0  0  0  0  0  0  0  0  0  0  0  0
   13.7240   40.0851    9.2346 C   0  0  2  0  0  0  0  0  0  0  0  0
   13.6195   40.4779   10.7097 C   0  0  0  0  0  0  0  0  0  0  0  0
   12.9690   39.3543   11.5147 C   0  0  0  0  0  0  0  0  0  0  0  0
   13.7734   38.0676   11.3554 C   0  0  0  0  0  0  0  0  0  0  0  0
   14.5051   38.7810    9.0799 C   0  0  0  0  0  0  0  0  0  0  0  0
   13.5570   36.4510    9.4433 C   0  0  0  0  0  0  0  0  0  0  0  0
   13.3408   36.1816    8.0026 C   0  0  0  0  0  0  0  0  0  0  0  0
   12.9890   36.9658    5.7886 C   0  0  0  0  0  0  0  0  0  0  0  0
   12.8919   35.6507    5.3339 C   0  0  0  0  0  0  0  0  0  0  0  0
   13.2337   34.8634    7.5404 C   0  0  0  0  0  0  0  0  0  0  0  0
   16.7723   46.5399    4.0268 C   0  0  0  0  0  0  0  0  0  0  0  0
   15.0685   44.9192    4.7627 N   0  0  0  0  0  0  0  0  0  0  0  0
   12.9790   44.7201    3.7033 N   0  0  0  0  0  0  0  0  0  0  0  0
   13.4573   43.2813    5.5751 N   0  0  0  0  0  0  0  0  0  0  0  0
   13.6792   41.7366    7.4063 N   0  0  0  0  0  0  0  0  0  0  0  0
   15.6213   41.5994    8.7298 N   0  0  0  0  0  0  0  0  0  0  0  0
   13.9130   37.7561    9.9355 N   0  0  0  0  0  0  0  0  0  0  0  0
   13.2075   37.2005    7.1091 N   0  0  0  0  0  0  0  0  0  0  0  0
   13.0150   34.6281    6.2199 N   0  0  0  0  0  0  0  0  0  0  0  0
   13.4117   35.5046   10.2654 O   0  0  0  0  0  0  0  0  0  0  0  0
  1  2  1  0
  2 23  2  0
  3  4  2  0
  5 22  2  0
  5 24  1  0
  7 25  2  0
  8 26  2  0
  9  6  2  0
 10  8  1  0
 11  7  1  6
 11 12  1  0
 12 13  1  0
 13 14  1  0
 14 27  1  0
 15 27  1  0
 15 11  1  0
 16 17  1  0
 18 28  2  0
 19 29  2  0
 20 17  2  0
 21  4  1  0
 24  6  1  0
 27 16  1  0
  2  3  1  0
  4 22  1  0
  5 23  1  0
  6 25  1  0
  7 26  1  0
  8  9  1  0
 16 30  2  0
 17 28  1  0
 18 19  1  0
 20 29  1  0
M  END
>  <rmsd>  (498) 
0.240191489

$$$$
MolPort-047-592-445 211610127 MCULE-9931270561 PubChem-76850009 ZINC000211610127
     RDKit          3D

 22 23  0  0  0  0  0  0  0  0999 V2000
   13.6839   41.6946   10.2673 B   0  0  0  0  0  0  0  0  0  0  0  0
   14.2854   40.7424   11.1858 O   0  0  0  0  0  0  0  0  0  0  0  0
   12.2328   41.7049   10.3463 O   0  0  0  0  0  0  0  0  0  0  0  0
   16.2041   42.4403    5.1591 O   0  0  0  0  0  0  0  0  0  0  0  0
   15.0428   44.8933    4.7848 O   0  0  0  0  0  0  0  0  0  0  0  0
   13.3054   39.7391   11.2311 C   0  0  0  0  0  0  0  0  0  0  0  0
   11.9615   40.3678   10.6732 C   0  0  0  0  0  0  0  0  0  0  0  0
   10.8243   40.3648   11.6908 C   0  0  0  0  0  0  0  0  0  0  0  0
   11.4248   39.6625    9.4257 C   0  0  0  0  0  0  0  0  0  0  0  0
   13.8027   38.5379   10.4242 C   0  0  0  0  0  0  0  0  0  0  0  0
   13.1973   39.2689   12.6789 C   0  0  0  0  0  0  0  0  0  0  0  0
   14.3634   41.9304    8.8761 C   0  0  0  0  0  0  0  0  0  0  0  0
   13.6477   42.5122    7.8290 C   0  0  0  0  0  0  0  0  0  0  0  0
   14.2578   42.7343    6.5929 C   0  0  0  0  0  0  0  0  0  0  0  0
   15.5913   42.3159    6.4083 C   0  0  0  0  0  0  0  0  0  0  0  0
   15.6932   41.5639    8.6663 C   0  0  0  0  0  0  0  0  0  0  0  0
   17.5410   42.0221    4.9281 C   0  0  0  0  0  0  0  0  0  0  0  0
   13.9582   44.2814    4.5937 C   0  0  0  0  0  0  0  0  0  0  0  0
   13.1496   44.5817    3.3823 C   0  0  0  0  0  0  0  0  0  0  0  0
   13.5121   43.6170    2.2710 C   0  0  0  0  0  0  0  0  0  0  0  0
   16.2702   41.7573    7.4510 N   0  0  0  0  0  0  0  0  0  0  0  0
   13.4809   43.3194    5.5401 N   0  0  0  0  0  0  0  0  0  0  0  0
  1  2  1  0
  1 12  1  0
  1  3  1  0
  6  2  1  0
  6  7  1  0
  6 10  1  0
  6 11  1  0
  7  3  1  0
  7  8  1  0
  7  9  1  0
 13 14  2  0
 14 22  1  0
 15 21  2  0
 15  4  1  0
 16 12  2  0
 17  4  1  0
 19 18  1  0
 19 20  1  0
 22 18  1  0
 12 13  1  0
 14 15  1  0
 16 21  1  0
 18  5  2  0
M  END
>  <rmsd>  (499) 
0.24013485

$$$$
MolPort-047-592-001 201908715 MCULE-5716414802 PubChem-144812354 PubChem-59619819 ZINC000201908715
     RDKit          3D

 21 22  0  0  0  0  0  0  0  0999 V2000
   13.6747   41.6909   10.2669 B   0  0  0  0  0  0  0  0  0  0  0  0
   14.2763   40.7404   11.1870 O   0  0  0  0  0  0  0  0  0  0  0  0
   12.2232   41.6959   10.3406 O   0  0  0  0  0  0  0  0  0  0  0  0
   16.2116   42.4496    5.1689 O   0  0  0  0  0  0  0  0  0  0  0  0
   15.0423   44.8943    4.7830 O   0  0  0  0  0  0  0  0  0  0  0  0
   13.2999   39.7334   11.2281 C   0  0  0  0  0  0  0  0  0  0  0  0
   11.9557   40.3577   10.6660 C   0  0  0  0  0  0  0  0  0  0  0  0
   11.4256   39.6510    9.4163 C   0  0  0  0  0  0  0  0  0  0  0  0
   10.8149   40.3501   11.6797 C   0  0  0  0  0  0  0  0  0  0  0  0
   13.8044   38.5348   10.4220 C   0  0  0  0  0  0  0  0  0  0  0  0
   13.1883   39.2617   12.6752 C   0  0  0  0  0  0  0  0  0  0  0  0
   14.3583   41.9302    8.8783 C   0  0  0  0  0  0  0  0  0  0  0  0
   13.6447   42.5104    7.8291 C   0  0  0  0  0  0  0  0  0  0  0  0
   14.2583   42.7357    6.5953 C   0  0  0  0  0  0  0  0  0  0  0  0
   15.5941   42.3221    6.4154 C   0  0  0  0  0  0  0  0  0  0  0  0
   15.6902   41.5686    8.6731 C   0  0  0  0  0  0  0  0  0  0  0  0
   17.5509   42.0365    4.9431 C   0  0  0  0  0  0  0  0  0  0  0  0
   13.9590   44.2805    4.5934 C   0  0  0  0  0  0  0  0  0  0  0  0
   13.1335   44.6033    3.4011 C   0  0  0  0  0  0  0  0  0  0  0  0
   16.2711   41.7650    7.4602 N   0  0  0  0  0  0  0  0  0  0  0  0
   13.4825   43.3197    5.5409 N   0  0  0  0  0  0  0  0  0  0  0  0
  1  2  1  0
  1 12  1  0
  1  3  1  0
  6  2  1  0
  6  7  1  0
  6 10  1  0
  6 11  1  0
  7  3  1  0
  7  8  1  0
  7  9  1  0
 13 14  2  0
 14 21  1  0
 15 20  2  0
 15  4  1  0
 16 12  2  0
 17  4  1  0
 19 18  1  0
 21 18  1  0
 12 13  1  0
 14 15  1  0
 16 20  1  0
 18  5  2  0
M  END
>  <rmsd>  (500) 
0.240105569

$$$$
MolPort-045-950-974 822752122 CSSS00160386206 MCULE-1936791029 PubChem-131927634 ZINC000822752122
     RDKit          3D

 27 28  0  0  0  0  0  0  0  0999 V2000
   14.3886   42.9750    1.7865 C   0  0  0  0  0  0  0  0  0  0  0  0
   13.0728   43.2436    2.4931 C   0  0  0  0  0  0  0  0  0  0  0  0
   13.1720   44.4977    3.3474 C   0  0  0  0  0  0  0  0  0  0  0  0
   13.9703   44.2428    4.5811 C   0  0  0  0  0  0  0  0  0  0  0  0
   14.2635   42.7723    6.6369 C   0  0  0  0  0  0  0  0  0  0  0  0
   13.6449   42.6080    7.8801 C   0  0  0  0  0  0  0  0  0  0  0  0
   14.3491   42.0702    8.9581 C   0  0  0  0  0  0  0  0  0  0  0  0
   15.6813   41.6675    8.8011 C   0  0  0  0  0  0  0  0  0  0  0  0
   15.9123   40.6502   11.1348 C   0  0  0  0  0  0  0  0  0  0  0  0
   14.6162   39.9343   11.1966 C   0  0  0  0  0  0  0  0  0  0  0  0
   13.7746   40.0231   12.3307 C   0  0  0  0  0  0  0  0  0  0  0  0
   13.4568   41.0581   14.5966 C   0  0  0  0  0  0  0  0  0  0  0  0
   12.5576   39.2909   12.3488 C   0  0  0  0  0  0  0  0  0  0  0  0
   10.4705   38.6472   13.5254 C   0  0  0  0  0  0  0  0  0  0  0  0
   12.2141   38.4951   11.2444 C   0  0  0  0  0  0  0  0  0  0  0  0
   13.0506   38.4127   10.1357 C   0  0  0  0  0  0  0  0  0  0  0  0
   14.2449   39.1256   10.1151 C   0  0  0  0  0  0  0  0  0  0  0  0
   16.2987   41.8148    7.5572 C   0  0  0  0  0  0  0  0  0  0  0  0
   15.5987   42.3483    6.4619 C   0  0  0  0  0  0  0  0  0  0  0  0
   17.5382   42.0139    4.9561 C   0  0  0  0  0  0  0  0  0  0  0  0
   15.0364   44.8861    4.7716 O   0  0  0  0  0  0  0  0  0  0  0  0
   16.6073   40.7677   12.1786 O   0  0  0  0  0  0  0  0  0  0  0  0
   14.1800   40.8536   13.3913 O   0  0  0  0  0  0  0  0  0  0  0  0
   11.7001   39.3571   13.4534 O   0  0  0  0  0  0  0  0  0  0  0  0
   16.2020   42.4312    5.2016 O   0  0  0  0  0  0  0  0  0  0  0  0
   13.4886   43.3165    5.5609 N   0  0  0  0  0  0  0  0  0  0  0  0
   16.4431   41.1505    9.8993 N   0  0  0  0  0  0  0  0  0  0  0  0
  1  2  1  0
  2  3  1  0
  3  4  1  0
  4 26  1  0
  6  7  2  0
  8 27  1  0
  8 18  2  0
  9 10  1  0
 11 23  1  0
 11 13  2  0
 12 23  1  0
 13 24  1  0
 14 24  1  0
 15 16  2  0
 17 10  2  0
 19 25  1  0
 19  5  2  0
 20 25  1  0
 26  5  1  0
 27  9  1  0
  4 21  2  0
  5  6  1  0
  7  8  1  0
  9 22  2  0
 10 11  1  0
 13 15  1  0
 16 17  1  0
 18 19  1  0
M  END
>  <rmsd>  (501) 
0.240097493

$$$$
MolPort-020-278-652 MCULE-3701403446 PubChem-110255524
     RDKit          3D

 26 29  0  0  0  0  0  0  0  0999 V2000
   17.5908   43.0300    8.3283 C   0  0  0  0  0  0  0  0  0  0  0  0
   16.2156   42.5767    7.9950 C   0  0  0  0  0  0  0  0  0  0  0  0
   15.5239   43.1671    6.9396 C   0  0  0  0  0  0  0  0  0  0  0  0
   14.2307   42.7199    6.6485 C   0  0  0  0  0  0  0  0  0  0  0  0
   14.3738   41.1594    8.4273 C   0  0  0  0  0  0  0  0  0  0  0  0
   13.7379   40.0696    9.2244 C   0  0  2  0  0  0  0  0  0  0  0  0
   13.6052   40.4801   10.6924 C   0  0  0  0  0  0  0  0  0  0  0  0
   12.9515   39.3612   11.5008 C   0  0  0  0  0  0  0  0  0  0  0  0
   13.7737   38.0818   11.3797 C   0  0  0  0  0  0  0  0  0  0  0  0
   14.5396   38.7743    9.0981 C   0  0  0  0  0  0  0  0  0  0  0  0
   13.5553   36.4825    9.4454 C   0  0  0  0  0  0  0  0  0  0  0  0
   13.3426   35.0010    7.6095 C   0  0  0  0  0  0  0  0  0  0  0  0
   12.7762   34.0351    8.4388 C   0  0  0  0  0  0  0  0  0  0  0  0
   12.6132   34.3367    9.7894 C   0  0  0  0  0  0  0  0  0  0  0  0
   13.8450   44.3248    4.6751 C   0  0  0  0  0  0  0  0  0  0  0  0
   12.9444   44.7358    3.6886 C   0  0  0  0  0  0  0  0  0  0  0  0
   13.3103   45.7525    2.8047 C   0  0  0  0  0  0  0  0  0  0  0  0
   14.5676   46.3482    2.9125 C   0  0  0  0  0  0  0  0  0  0  0  0
   15.4430   45.9135    3.9094 C   0  0  0  0  0  0  0  0  0  0  0  0
   13.6872   41.7260    7.4001 N   0  0  0  0  0  0  0  0  0  0  0  0
   15.6326   41.5869    8.7185 N   0  0  0  0  0  0  0  0  0  0  0  0
   13.9591   37.7556    9.9683 N   0  0  0  0  0  0  0  0  0  0  0  0
   13.7202   36.2006    8.1231 N   0  0  0  0  0  0  0  0  0  0  0  0
   13.0028   35.5472   10.2670 N   0  0  0  0  0  0  0  0  0  0  0  0
   13.4576   43.2794    5.5771 N   0  0  0  0  0  0  0  0  0  0  0  0
   15.0675   44.9214    4.7609 N   0  0  0  0  0  0  0  0  0  0  0  0
  1  2  1  0
  2 21  2  0
  3  4  2  0
  4 25  1  0
  5 20  2  0
  6  5  1  6
  6  7  1  0
  7  8  1  0
  8  9  1  0
  9 22  1  0
 10 22  1  0
 10  6  1  0
 11 24  2  0
 12 23  2  0
 13 14  2  0
 15 26  2  0
 16 17  2  0
 18 19  2  0
 22 11  1  0
 25 15  1  0
  2  3  1  0
  4 20  1  0
  5 21  1  0
 11 23  1  0
 12 13  1  0
 14 24  1  0
 15 16  1  0
 17 18  1  0
 19 26  1  0
M  END
>  <rmsd>  (502) 
0.240007058

$$$$
MolPort-044-755-744 MCULE-6831971330 PubChem-12066245
     RDKit          3D

 18 18  0  0  0  0  0  0  0  0999 V2000
   12.6062   39.2760   11.6134 C   0  0  0  0  0  0  0  0  0  0  0  0
   13.7648   38.9404   10.6978 C   0  0  0  0  0  0  0  0  0  0  0  0
   14.9709   40.6893    9.4539 C   0  0  0  0  0  0  0  0  0  0  0  0
   14.9869   41.6662    8.3598 C   0  0  0  0  0  0  0  0  0  0  0  0
   16.0464   42.5043    8.0609 C   0  0  0  0  0  0  0  0  0  0  0  0
   15.6391   43.2497    6.9699 C   0  0  0  0  0  0  0  0  0  0  0  0
   14.3587   42.8123    6.6811 C   0  0  0  0  0  0  0  0  0  0  0  0
   13.8820   44.3238    4.6826 C   0  0  0  0  0  0  0  0  0  0  0  0
   13.1721   45.6909    2.7043 C   0  0  0  0  0  0  0  0  0  0  0  0
   14.3508   45.3200    1.8210 C   0  0  0  0  0  0  0  0  0  0  0  0
   13.4172   47.0448    3.3481 C   0  0  0  0  0  0  0  0  0  0  0  0
   11.9361   45.7910    1.8358 C   0  0  0  0  0  0  0  0  0  0  0  0
   13.8372   39.8993    9.6533 O   0  0  0  0  0  0  0  0  0  0  0  0
   15.9765   40.5688   10.2064 O   0  0  0  0  0  0  0  0  0  0  0  0
   15.0104   44.8852    4.7383 O   0  0  0  0  0  0  0  0  0  0  0  0
   12.9514   44.6894    3.7006 O   0  0  0  0  0  0  0  0  0  0  0  0
   13.9512   41.8476    7.5218 N   0  0  0  0  0  0  0  0  0  0  0  0
   13.5284   43.3015    5.6210 N   0  0  0  0  0  0  0  0  0  0  0  0
  1  2  1  0
  2 13  1  0
  3 13  1  0
  3  4  1  0
  5  6  1  0
  7 17  1  0
  7 18  1  0
  8 16  1  0
  9 16  1  0
  9 10  1  0
  9 11  1  0
  9 12  1  0
 17  4  1  0
 18  8  1  0
  3 14  2  0
  4  5  2  0
  6  7  2  0
  8 15  2  0
M  END
>  <rmsd>  (503) 
0.239999026

$$$$
MolPort-002-552-480 CSSS00121638413 LN00488255 MCULE-8958344395 PubChem-3453859
     RDKit          3D

 25 28  0  0  0  0  0  0  0  0999 V2000
   16.1124   39.6294   10.3923 C   0  0  2  0  0  0  0  0  0  0  0  0
   18.1333   40.8493   11.6045 C   0  0  0  0  0  0  0  0  0  0  0  0
   17.4163   41.6397   10.5820 C   0  0  0  0  0  0  0  0  0  0  0  0
   15.6294   41.5910    8.7869 C   0  0  0  0  0  0  0  0  0  0  0  0
   14.3350   41.1605    8.4556 C   0  0  0  0  0  0  0  0  0  0  0  0
   13.6393   41.7355    7.3895 C   0  0  0  0  0  0  0  0  0  0  0  0
   14.2245   42.7517    6.6299 C   0  0  0  0  0  0  0  0  0  0  0  0
   15.5183   43.1854    6.9495 C   0  0  0  0  0  0  0  0  0  0  0  0
   16.2128   42.6093    8.0160 C   0  0  0  0  0  0  0  0  0  0  0  0
   13.9110   44.3606    4.6596 C   0  0  0  0  0  0  0  0  0  0  0  0
   12.9990   44.8241    3.5821 C   0  0  0  0  0  0  0  0  0  0  0  0
   14.7532   39.4745   10.9905 C   0  0  0  0  0  0  0  0  0  0  0  0
   14.1838   40.1761   12.0548 C   0  0  0  0  0  0  0  0  0  0  0  0
   12.8725   39.8522   12.4379 C   0  0  0  0  0  0  0  0  0  0  0  0
   12.1588   38.8459   11.7590 C   0  0  0  0  0  0  0  0  0  0  0  0
   12.7487   38.1526   10.6896 C   0  0  0  0  0  0  0  0  0  0  0  0
   14.0520   38.4868   10.3268 C   0  0  0  0  0  0  0  0  0  0  0  0
   16.0324   38.6021    9.2975 C   0  0  0  0  0  0  0  0  0  0  0  0
   17.4067   39.1809   11.6066 S   0  0  0  0  0  0  0  0  0  0  0  0
   17.7165   42.8450   10.3732 O   0  0  0  0  0  0  0  0  0  0  0  0
   15.0468   44.8913    4.7776 O   0  0  0  0  0  0  0  0  0  0  0  0
   16.9630   38.3669    8.4827 O   0  0  0  0  0  0  0  0  0  0  0  0
   16.3564   40.9844    9.8849 N   0  0  0  0  0  0  0  0  0  0  0  0
   13.4795   43.3181    5.5433 N   0  0  0  0  0  0  0  0  0  0  0  0
   14.7883   37.9033    9.2627 N   0  0  0  0  0  0  0  0  0  0  0  0
  1 19  1  1
  1 12  1  0
  1 23  1  0
  1 18  1  0
  2 19  1  0
  2  3  1  0
  3 23  1  0
  5  6  2  0
  7  8  2  0
  7 24  1  0
  9  4  2  0
 11 10  1  0
 13 14  2  0
 15 16  2  0
 17 25  1  0
 17 12  2  0
 23  4  1  0
 24 10  1  0
 25 18  1  0
  3 20  2  0
  4  5  1  0
  6  7  1  0
  8  9  1  0
 10 21  2  0
 12 13  1  0
 14 15  1  0
 16 17  1  0
 18 22  2  0
M  END
>  <rmsd>  (504) 
0.239984989

$$$$
MolPort-023-255-931 77376000 CSSS00159601466 MCULE-3572694941 PubChem-70730494 ZINC000077376000 ZINC77376000
     RDKit          3D

 26 29  0  0  0  0  0  0  0  0999 V2000
   16.1895   42.1810    5.0776 C   0  0  0  0  0  0  0  0  0  0  0  0
   15.5562   42.2529    6.4251 C   0  0  0  0  0  0  0  0  0  0  0  0
   14.2577   42.7745    6.6186 C   0  0  0  0  0  0  0  0  0  0  0  0
   13.9548   44.2759    4.5909 C   0  0  0  0  0  0  0  0  0  0  0  0
   13.1443   44.5785    3.4072 C   0  0  0  0  0  0  0  0  0  0  0  0
   13.4711   45.4863    2.4218 C   0  0  0  0  0  0  0  0  0  0  0  0
   12.4189   45.4274    1.5245 C   0  0  0  0  0  0  0  0  0  0  0  0
   11.5268   44.4923    2.0213 C   0  0  0  0  0  0  0  0  0  0  0  0
   13.6789   42.7142    7.8900 C   0  0  0  0  0  0  0  0  0  0  0  0
   14.3864   42.1787    8.9678 C   0  0  0  0  0  0  0  0  0  0  0  0
   15.6789   41.6705    8.7852 C   0  0  0  0  0  0  0  0  0  0  0  0
   16.2570   41.7176    7.5099 C   0  0  0  0  0  0  0  0  0  0  0  0
   17.7305   41.4324   10.1243 C   0  0  0  0  0  0  0  0  0  0  0  0
   18.0754   40.8765   11.3415 C   0  0  0  0  0  0  0  0  0  0  0  0
   16.0124   40.4451   10.9676 C   0  0  0  0  0  0  0  0  0  0  0  0
   14.6807   39.8260   11.1302 C   0  0  0  0  0  0  0  0  0  0  0  0
   14.1665   39.6046   12.4137 C   0  0  0  0  0  0  0  0  0  0  0  0
   12.2285   38.5711   11.5118 C   0  0  0  0  0  0  0  0  0  0  0  0
   12.7099   38.7523   10.2144 C   0  0  0  0  0  0  0  0  0  0  0  0
   13.9441   39.3759   10.0280 C   0  0  0  0  0  0  0  0  0  0  0  0
   13.4798   43.3203    5.5454 N   0  0  0  0  0  0  0  0  0  0  0  0
   16.4323   41.1603    9.8974 N   0  0  0  0  0  0  0  0  0  0  0  0
   16.9972   40.2610   11.8682 N   0  0  0  0  0  0  0  0  0  0  0  0
   12.9617   38.9943   12.5760 N   0  0  0  0  0  0  0  0  0  0  0  0
   15.0430   44.8839    4.7815 O   0  0  0  0  0  0  0  0  0  0  0  0
   11.9958   44.0084    3.1459 O   0  0  0  0  0  0  0  0  0  0  0  0
  1  2  1  0
  3 21  1  0
  3  9  2  0
  4  5  1  0
  5 26  1  0
  6  7  1  0
  8 26  1  0
 10 11  2  0
 11 22  1  0
 12  2  2  0
 14 23  1  0
 15 16  1  0
 15 22  1  0
 17 24  2  0
 18 19  2  0
 20 16  2  0
 21  4  1  0
 22 13  1  0
  2  3  1  0
  4 25  2  0
  5  6  2  0
  7  8  2  0
  9 10  1  0
 11 12  1  0
 13 14  2  0
 15 23  2  0
 16 17  1  0
 18 24  1  0
 19 20  1  0
M  END
>  <rmsd>  (505) 
0.239984035

$$$$
MolPort-020-295-380 MCULE-6693225507 PubChem-110267461
     RDKit          3D

 31 34  0  0  0  0  0  0  0  0999 V2000
   15.0213   47.4283    1.9954 C   0  0  0  0  0  0  0  0  0  0  0  0
   14.6025   46.3449    2.9223 C   0  0  0  0  0  0  0  0  0  0  0  0
   15.4637   45.9071    3.9297 C   0  0  0  0  0  0  0  0  0  0  0  0
   13.8491   44.3238    4.6706 C   0  0  0  0  0  0  0  0  0  0  0  0
   12.9631   44.7388    3.6725 C   0  0  0  0  0  0  0  0  0  0  0  0
   13.3446   45.7551    2.7947 C   0  0  0  0  0  0  0  0  0  0  0  0
   14.2299   42.7305    6.6341 C   0  0  0  0  0  0  0  0  0  0  0  0
   16.2292   42.6545    7.8996 C   0  0  0  0  0  0  0  0  0  0  0  0
   15.7000   41.6417    8.6962 C   0  0  0  0  0  0  0  0  0  0  0  0
   14.4037   41.1901    8.4255 C   0  0  0  0  0  0  0  0  0  0  0  0
   13.7778   40.1021    9.2379 C   0  0  2  0  0  0  0  0  0  0  0  0
   13.6593   40.5051   10.7102 C   0  0  0  0  0  0  0  0  0  0  0  0
   12.9952   39.3897   11.5157 C   0  0  0  0  0  0  0  0  0  0  0  0
   13.7898   38.0943   11.3734 C   0  0  0  0  0  0  0  0  0  0  0  0
   14.5577   38.7950    9.0981 C   0  0  0  0  0  0  0  0  0  0  0  0
   13.4693   36.5405    9.4203 C   0  0  0  0  0  0  0  0  0  0  0  0
   13.5444   36.2502    7.9535 C   0  0  0  0  0  0  0  0  0  0  0  0
   12.4775   37.0235    7.1858 C   0  0  0  0  0  0  0  0  0  0  0  0
   11.1078   36.4955    7.4590 C   0  0  0  0  0  0  0  0  0  0  0  0
   10.7461   35.2062    7.0475 C   0  0  0  0  0  0  0  0  0  0  0  0
    9.4587   34.7250    7.3033 C   0  0  0  0  0  0  0  0  0  0  0  0
    8.5301   35.5317    7.9683 C   0  0  0  0  0  0  0  0  0  0  0  0
    8.8876   36.8211    8.3746 C   0  0  0  0  0  0  0  0  0  0  0  0
   10.1748   37.3031    8.1186 C   0  0  0  0  0  0  0  0  0  0  0  0
   15.0730   44.9151    4.7744 N   0  0  0  0  0  0  0  0  0  0  0  0
   13.4485   43.2799    5.5664 N   0  0  0  0  0  0  0  0  0  0  0  0
   15.4897   43.1786    6.8883 N   0  0  0  0  0  0  0  0  0  0  0  0
   13.7000   41.7425    7.4026 N   0  0  0  0  0  0  0  0  0  0  0  0
   13.9551   37.7800    9.9571 N   0  0  0  0  0  0  0  0  0  0  0  0
   12.9435   35.6847   10.1815 O   0  0  0  0  0  0  0  0  0  0  0  0
    7.2829   35.0650    8.2162 F   0  0  0  0  0  0  0  0  0  0  0  0
  1  2  1  0
  3 25  2  0
  4  5  2  0
  4 26  1  0
  6  2  2  0
  7 28  2  0
  8 27  2  0
  9 10  2  0
 11 10  1  6
 11 12  1  0
 12 13  1  0
 13 14  1  0
 14 29  1  0
 15 29  1  0
 15 11  1  0
 17 16  1  0
 17 18  1  0
 18 19  1  0
 20 21  2  0
 22 23  2  0
 22 31  1  0
 24 19  2  0
 26  7  1  0
 29 16  1  0
  2  3  1  0
  4 25  1  0
  5  6  1  0
  7 27  1  0
  8  9  1  0
 10 28  1  0
 16 30  2  0
 19 20  1  0
 21 22  1  0
 23 24  1  0
M  END
>  <rmsd>  (506) 
0.239979535

$$$$
MolPort-047-592-677 211610011 MCULE-9524300244 PubChem-76850008 ZINC000211610011
     RDKit          3D

 26 28  0  0  0  0  0  0  0  0999 V2000
   13.6940   41.7008   10.2656 B   0  0  0  0  0  0  0  0  0  0  0  0
   14.2951   40.7472   11.1827 O   0  0  0  0  0  0  0  0  0  0  0  0
   12.2431   41.7154   10.3486 O   0  0  0  0  0  0  0  0  0  0  0  0
   16.2016   42.4357    5.1497 O   0  0  0  0  0  0  0  0  0  0  0  0
   15.0426   44.8908    4.7880 O   0  0  0  0  0  0  0  0  0  0  0  0
   13.3123   39.7469   11.2315 C   0  0  0  0  0  0  0  0  0  0  0  0
   11.9689   40.3792   10.6762 C   0  0  0  0  0  0  0  0  0  0  0  0
   11.4279   39.6751    9.4297 C   0  0  0  0  0  0  0  0  0  0  0  0
   10.8336   40.3791   11.6959 C   0  0  0  0  0  0  0  0  0  0  0  0
   13.8038   38.5433   10.4248 C   0  0  0  0  0  0  0  0  0  0  0  0
   13.2061   39.2787   12.6801 C   0  0  0  0  0  0  0  0  0  0  0  0
   14.3702   41.9337    8.8723 C   0  0  0  0  0  0  0  0  0  0  0  0
   13.6530   42.5160    7.8266 C   0  0  0  0  0  0  0  0  0  0  0  0
   14.2601   42.7354    6.5886 C   0  0  0  0  0  0  0  0  0  0  0  0
   15.5920   42.3139    6.4007 C   0  0  0  0  0  0  0  0  0  0  0  0
   15.6986   41.5639    8.6591 C   0  0  0  0  0  0  0  0  0  0  0  0
   17.5372   42.0149    4.9155 C   0  0  0  0  0  0  0  0  0  0  0  0
   13.9579   44.2796    4.5841 C   0  0  0  0  0  0  0  0  0  0  0  0
   13.1538   44.5894    3.3893 C   0  0  0  0  0  0  0  0  0  0  0  0
   13.5989   45.5426    2.4610 C   0  0  0  0  0  0  0  0  0  0  0  0
   12.8360   45.8344    1.3264 C   0  0  0  0  0  0  0  0  0  0  0  0
   11.6228   45.1752    1.1116 C   0  0  0  0  0  0  0  0  0  0  0  0
   11.1724   44.2239    2.0308 C   0  0  0  0  0  0  0  0  0  0  0  0
   11.9352   43.9320    3.1654 C   0  0  0  0  0  0  0  0  0  0  0  0
   16.2726   41.7548    7.4421 N   0  0  0  0  0  0  0  0  0  0  0  0
   13.4813   43.3209    5.5376 N   0  0  0  0  0  0  0  0  0  0  0  0
  1  2  1  0
  1 12  1  0
  1  3  1  0
  6  2  1  0
  6  7  1  0
  6 10  1  0
  6 11  1  0
  7  3  1  0
  7  8  1  0
  7  9  1  0
 13 14  2  0
 14 26  1  0
 15 25  2  0
 15  4  1  0
 16 12  2  0
 17  4  1  0
 18 19  1  0
 20 21  2  0
 22 23  2  0
 24 19  2  0
 26 18  1  0
 12 13  1  0
 14 15  1  0
 16 25  1  0
 18  5  2  0
 19 20  1  0
 21 22  1  0
 23 24  1  0
M  END
>  <rmsd>  (507) 
0.23997578

$$$$
Molport-020-279-129 MCULE-4540815078 MCULE-9333749686 PubChem-110255884
     RDKit          3D

 24 26  0  0  0  0  0  0  0  0999 V2000
   17.5940   43.0271    8.3250 C   0  0  0  0  0  0  0  0  0  0  0  0
   16.2183   42.5751    7.9925 C   0  0  0  0  0  0  0  0  0  0  0  0
   15.5264   43.1666    6.9378 C   0  0  0  0  0  0  0  0  0  0  0  0
   14.2325   42.7206    6.6475 C   0  0  0  0  0  0  0  0  0  0  0  0
   14.3755   41.1593    8.4255 C   0  0  0  0  0  0  0  0  0  0  0  0
   13.7390   40.0703    9.2234 C   0  0  2  0  0  0  0  0  0  0  0  0
   13.6048   40.4829   10.6907 C   0  0  0  0  0  0  0  0  0  0  0  0
   12.9514   39.3649   11.5004 C   0  0  0  0  0  0  0  0  0  0  0  0
   13.7751   38.0863   11.3815 C   0  0  0  0  0  0  0  0  0  0  0  0
   14.5407   38.7747    9.0992 C   0  0  0  0  0  0  0  0  0  0  0  0
   13.5639   36.4822    9.4433 C   0  0  0  0  0  0  0  0  0  0  0  0
   12.9254   35.4544   10.3173 C   0  0  0  0  0  0  0  0  0  0  0  0
   13.8455   44.3268    4.6745 C   0  0  0  0  0  0  0  0  0  0  0  0
   13.2951   45.7161    2.8392 C   0  0  0  0  0  0  0  0  0  0  0  0
   14.5421   46.3332    2.9154 C   0  0  0  0  0  0  0  0  0  0  0  0
   15.4286   45.9104    3.9038 C   0  0  0  0  0  0  0  0  0  0  0  0
   13.6886   41.7270    7.3992 N   0  0  0  0  0  0  0  0  0  0  0  0
   15.6349   41.5856    8.7161 N   0  0  0  0  0  0  0  0  0  0  0  0
   13.9599   37.7571    9.9704 N   0  0  0  0  0  0  0  0  0  0  0  0
   11.4861   35.6446   10.3237 N   0  0  0  0  0  0  0  0  0  0  0  0
   13.4589   43.2813    5.5770 N   0  0  0  0  0  0  0  0  0  0  0  0
   12.9706   44.7294    3.7150 N   0  0  0  0  0  0  0  0  0  0  0  0
   15.0676   44.9206    4.7612 N   0  0  0  0  0  0  0  0  0  0  0  0
   13.7247   36.2251    8.2202 O   0  0  0  0  0  0  0  0  0  0  0  0
  1  2  1  0
  2 18  2  0
  3  4  2  0
  4 21  1  0
  5 17  2  0
  6  5  1  6
  6  7  1  0
  7  8  1  0
  8  9  1  0
  9 19  1  0
 10 19  1  0
 10  6  1  0
 12 11  1  0
 12 20  1  0
 13 23  2  0
 14 22  2  0
 15 16  2  0
 19 11  1  0
 21 13  1  0
  2  3  1  0
  4 17  1  0
  5 18  1  0
 11 24  2  0
 13 22  1  0
 14 15  1  0
 16 23  1  0
M  END
>  <rmsd>  (508) 
0.239964962

$$$$
Molport-047-863-824 MCULE-9099266621 PubChem-16062737 ZINC000196109479
     RDKit          3D

 28 30  0  0  0  0  0  0  0  0999 V2000
   13.6883   41.6987   10.2662 B   0  0  0  0  0  0  0  0  0  0  0  0
   12.2373   41.7096   10.3466 O   0  0  0  0  0  0  0  0  0  0  0  0
   14.2903   40.7469   11.1847 O   0  0  0  0  0  0  0  0  0  0  0  0
   16.2041   42.4406    5.1552 O   0  0  0  0  0  0  0  0  0  0  0  0
   15.0418   44.8921    4.7866 O   0  0  0  0  0  0  0  0  0  0  0  0
   13.1775   44.5665    3.4683 O   0  0  0  0  0  0  0  0  0  0  0  0
   11.9659   40.3729   10.6747 C   0  0  0  0  0  0  0  0  0  0  0  0
   13.3102   39.7440   11.2315 C   0  0  0  0  0  0  0  0  0  0  0  0
   13.2033   39.2745   12.6797 C   0  0  0  0  0  0  0  0  0  0  0  0
   13.8062   38.5422   10.4248 C   0  0  0  0  0  0  0  0  0  0  0  0
   11.4276   39.6668    9.4283 C   0  0  0  0  0  0  0  0  0  0  0  0
   10.8298   40.3708   11.6935 C   0  0  0  0  0  0  0  0  0  0  0  0
   14.3664   41.9335    8.8742 C   0  0  0  0  0  0  0  0  0  0  0  0
   13.6500   42.5147    7.8273 C   0  0  0  0  0  0  0  0  0  0  0  0
   14.2589   42.7358    6.5904 C   0  0  0  0  0  0  0  0  0  0  0  0
   15.5922   42.3171    6.4050 C   0  0  0  0  0  0  0  0  0  0  0  0
   15.6961   41.5665    8.6633 C   0  0  0  0  0  0  0  0  0  0  0  0
   17.5411   42.0226    4.9238 C   0  0  0  0  0  0  0  0  0  0  0  0
   13.9560   44.2802    4.5892 C   0  0  0  0  0  0  0  0  0  0  0  0
   13.5833   45.5201    2.4970 C   0  0  0  0  0  0  0  0  0  0  0  0
   12.5592   45.6068    1.4220 C   0  0  0  0  0  0  0  0  0  0  0  0
   12.6389   44.7619    0.3098 C   0  0  0  0  0  0  0  0  0  0  0  0
   11.6624   44.8264   -0.6891 C   0  0  0  0  0  0  0  0  0  0  0  0
   10.6026   45.7314   -0.5735 C   0  0  0  0  0  0  0  0  0  0  0  0
   10.5177   46.5702    0.5421 C   0  0  0  0  0  0  0  0  0  0  0  0
   11.4941   46.5060    1.5412 C   0  0  0  0  0  0  0  0  0  0  0  0
   16.2720   41.7590    7.4475 N   0  0  0  0  0  0  0  0  0  0  0  0
   13.4807   43.3208    5.5384 N   0  0  0  0  0  0  0  0  0  0  0  0
  1  2  1  0
  1 13  1  0
  1  3  1  0
  7  2  1  0
  7  8  1  0
  7 11  1  0
  7 12  1  0
  8  3  1  0
  8  9  1  0
  8 10  1  0
 14 15  2  0
 15 28  1  0
 16 27  2  0
 16  4  1  0
 17 13  2  0
 18  4  1  0
 19  6  1  0
 20  6  1  0
 20 21  1  0
 22 23  2  0
 24 25  2  0
 26 21  2  0
 28 19  1  0
 13 14  1  0
 15 16  1  0
 17 27  1  0
 19  5  2  0
 21 22  1  0
 23 24  1  0
 25 26  1  0
M  END
>  <rmsd>  (509) 
0.239855498

$$$$
MolPort-016-906-836 ChemDiv-V029-4306 MCULE-6046758830 PubChem-45970893 ZINC000037385251 ZINC37385251
     RDKit          3D

 32 35  0  0  0  0  0  0  0  0999 V2000
   18.0441   36.2963   10.6272 C   0  0  0  0  0  0  0  0  0  0  0  0
   19.2816   37.1020   10.9865 C   0  0  0  0  0  0  0  0  0  0  0  0
   20.2145   38.4724   12.4566 C   0  0  0  0  0  0  0  0  0  0  0  0
   19.6177   39.8143   12.8375 C   0  0  0  0  0  0  0  0  0  0  0  0
   17.9747   40.5653   11.1618 C   0  0  0  0  0  0  0  0  0  0  0  0
   15.9427   40.1611   10.8341 C   0  0  0  0  0  0  0  0  0  0  0  0
   14.5722   39.6734   11.0579 C   0  0  0  0  0  0  0  0  0  0  0  0
   13.4158   40.4191   10.9550 C   0  0  0  0  0  0  0  0  0  0  0  0
   12.3974   39.5401   11.2816 C   0  0  0  0  0  0  0  0  0  0  0  0
   13.0006   38.3270   11.5663 C   0  0  0  0  0  0  0  0  0  0  0  0
   15.6009   41.6264    8.7990 C   0  0  0  0  0  0  0  0  0  0  0  0
   14.5209   40.9502    8.2104 C   0  0  0  0  0  0  0  0  0  0  0  0
   13.8293   41.5176    7.1372 C   0  0  0  0  0  0  0  0  0  0  0  0
   14.2191   42.7563    6.6208 C   0  0  0  0  0  0  0  0  0  0  0  0
   13.8699   44.4371    4.7254 C   0  0  0  0  0  0  0  0  0  0  0  0
   12.9129   45.0648    3.7846 C   0  0  0  0  0  0  0  0  0  0  0  0
   11.5474   44.7097    3.7483 C   0  0  0  0  0  0  0  0  0  0  0  0
   10.6790   45.3570    2.8624 C   0  0  0  0  0  0  0  0  0  0  0  0
   11.1549   46.3451    1.9981 C   0  0  0  0  0  0  0  0  0  0  0  0
   12.5049   46.6920    2.0171 C   0  0  0  0  0  0  0  0  0  0  0  0
   13.3762   46.0564    2.9047 C   0  0  0  0  0  0  0  0  0  0  0  0
   15.3102   43.4257    7.1923 C   0  0  0  0  0  0  0  0  0  0  0  0
   15.9979   42.8620    8.2691 C   0  0  0  0  0  0  0  0  0  0  0  0
   19.1850   37.5419   12.3082 O   0  0  0  0  0  0  0  0  0  0  0  0
   19.2763   40.5358   11.6629 O   0  0  0  0  0  0  0  0  0  0  0  0
   14.2992   38.4495   11.4299 O   0  0  0  0  0  0  0  0  0  0  0  0
   15.0484   44.8798    4.7961 O   0  0  0  0  0  0  0  0  0  0  0  0
   17.6202   41.3150   10.1035 N   0  0  0  0  0  0  0  0  0  0  0  0
   16.3434   41.0473    9.8869 N   0  0  0  0  0  0  0  0  0  0  0  0
   16.9575   39.8254   11.6552 N   0  0  0  0  0  0  0  0  0  0  0  0
   13.4730   43.3205    5.5347 N   0  0  0  0  0  0  0  0  0  0  0  0
   11.0411   43.7439    4.5544 F   0  0  0  0  0  0  0  0  0  0  0  0
  1  2  1  0
  2 24  1  0
  3 24  1  0
  3  4  1  0
  4 25  1  0
  5 25  1  0
  5 30  1  0
  6  7  1  0
  7 26  1  0
  8  9  1  0
 10 26  1  0
 12 13  2  0
 14 31  1  0
 14 22  2  0
 15 16  1  0
 17 32  1  0
 17 18  2  0
 19 20  2  0
 21 16  2  0
 23 11  2  0
 29 28  1  0
 29  6  1  0
 29 11  1  0
 31 15  1  0
  5 28  2  0
  6 30  2  0
  7  8  2  0
  9 10  2  0
 11 12  1  0
 13 14  1  0
 15 27  2  0
 16 17  1  0
 18 19  1  0
 20 21  1  0
 22 23  1  0
M  END
>  <rmsd>  (510) 
0.239808321

$$$$
MolPort-045-966-356 952991293 CSSS00160229454 MCULE-7681060958 PubChem-131937820 ZINC000952991293
     RDKit          3D

 27 29  0  0  0  0  0  0  0  0999 V2000
   13.0863   44.6818    1.1800 C   0  0  0  0  0  0  0  0  0  0  0  0
   13.1412   44.5357    3.3804 C   0  0  0  0  0  0  0  0  0  0  0  0
   13.9622   44.2551    4.5892 C   0  0  0  0  0  0  0  0  0  0  0  0
   14.2618   42.7687    6.6333 C   0  0  0  0  0  0  0  0  0  0  0  0
   13.6406   42.5967    7.8742 C   0  0  0  0  0  0  0  0  0  0  0  0
   14.3449   42.0603    8.9528 C   0  0  0  0  0  0  0  0  0  0  0  0
   15.6800   41.6668    8.7989 C   0  0  0  0  0  0  0  0  0  0  0  0
   15.9151   40.6628   11.1379 C   0  0  0  0  0  0  0  0  0  0  0  0
   14.6198   39.9462   11.2035 C   0  0  0  0  0  0  0  0  0  0  0  0
   13.7577   40.0234   12.3238 C   0  0  0  0  0  0  0  0  0  0  0  0
   14.0606   40.8888   13.5056 C   0  0  0  0  0  0  0  0  0  0  0  0
   10.7046   38.4108   12.7357 C   0  0  0  0  0  0  0  0  0  0  0  0
   11.0517   37.9294   11.4679 C   0  0  0  0  0  0  0  0  0  0  0  0
   12.2660   38.5381   11.2476 C   0  0  0  0  0  0  0  0  0  0  0  0
   14.2324   39.1195   10.1256 C   0  0  0  0  0  0  0  0  0  0  0  0
   16.3000   41.8205    7.5569 C   0  0  0  0  0  0  0  0  0  0  0  0
   15.5997   42.3523    6.4607 C   0  0  0  0  0  0  0  0  0  0  0  0
   17.5444   42.0291    4.9594 C   0  0  0  0  0  0  0  0  0  0  0  0
   13.8539   44.1863    2.2332 O   0  0  0  0  0  0  0  0  0  0  0  0
   15.0380   44.8849    4.7733 O   0  0  0  0  0  0  0  0  0  0  0  0
   16.6109   40.7860   12.1803 O   0  0  0  0  0  0  0  0  0  0  0  0
   16.2057   42.4403    5.2022 O   0  0  0  0  0  0  0  0  0  0  0  0
   13.4871   43.3156    5.5581 N   0  0  0  0  0  0  0  0  0  0  0  0
   16.4436   41.1571    9.8992 N   0  0  0  0  0  0  0  0  0  0  0  0
   12.6055   39.3052   12.2835 N   0  0  0  0  0  0  0  0  0  0  0  0
   11.6651   39.2437   13.2060 N   0  0  0  0  0  0  0  0  0  0  0  0
   13.0587   38.4262   10.1565 N   0  0  0  0  0  0  0  0  0  0  0  0
  1 19  1  0
  2 19  1  0
  2  3  1  0
  3 23  1  0
  5  6  2  0
  7 24  1  0
  7 16  2  0
  8  9  1  0
 10 25  1  0
 11 10  1  0
 12 13  1  0
 14 27  1  0
 14 25  1  0
 15  9  1  0
 17 22  1  0
 17  4  2  0
 18 22  1  0
 23  4  1  0
 24  8  1  0
 25 26  1  0
  3 20  2  0
  4  5  1  0
  6  7  1  0
  8 21  2  0
  9 10  2  0
 12 26  2  0
 13 14  2  0
 15 27  2  0
 16 17  1  0
M  END
>  <rmsd>  (511) 
0.239808306

$$$$
MolPort-020-278-653 MCULE-6054173363 PubChem-110255525
     RDKit          3D

 26 29  0  0  0  0  0  0  0  0999 V2000
   17.5915   43.0309    8.3285 C   0  0  0  0  0  0  0  0  0  0  0  0
   16.2163   42.5779    7.9949 C   0  0  0  0  0  0  0  0  0  0  0  0
   15.5248   43.1684    6.9395 C   0  0  0  0  0  0  0  0  0  0  0  0
   14.2316   42.7214    6.6481 C   0  0  0  0  0  0  0  0  0  0  0  0
   14.3744   41.1607    8.4269 C   0  0  0  0  0  0  0  0  0  0  0  0
   13.7383   40.0709    9.2238 C   0  0  2  0  0  0  0  0  0  0  0  0
   13.6053   40.4814   10.6918 C   0  0  0  0  0  0  0  0  0  0  0  0
   12.9514   39.3625   11.5002 C   0  0  0  0  0  0  0  0  0  0  0  0
   13.7736   38.0831   11.3791 C   0  0  0  0  0  0  0  0  0  0  0  0
   14.5400   38.7756    9.0976 C   0  0  0  0  0  0  0  0  0  0  0  0
   13.5555   36.4839    9.4448 C   0  0  0  0  0  0  0  0  0  0  0  0
   13.3431   35.0023    7.6088 C   0  0  0  0  0  0  0  0  0  0  0  0
   12.7764   34.0364    8.4381 C   0  0  0  0  0  0  0  0  0  0  0  0
   12.6132   34.3381    9.7886 C   0  0  0  0  0  0  0  0  0  0  0  0
   13.8451   44.3264    4.6743 C   0  0  0  0  0  0  0  0  0  0  0  0
   13.2953   45.7146    2.8379 C   0  0  0  0  0  0  0  0  0  0  0  0
   14.5418   46.3326    2.9149 C   0  0  0  0  0  0  0  0  0  0  0  0
   15.4278   45.9109    3.9041 C   0  0  0  0  0  0  0  0  0  0  0  0
   13.6879   41.7275    7.3997 N   0  0  0  0  0  0  0  0  0  0  0  0
   15.6332   41.5881    8.7183 N   0  0  0  0  0  0  0  0  0  0  0  0
   13.9593   37.7569    9.9678 N   0  0  0  0  0  0  0  0  0  0  0  0
   13.7206   36.2018    8.1226 N   0  0  0  0  0  0  0  0  0  0  0  0
   13.0028   35.5486   10.2662 N   0  0  0  0  0  0  0  0  0  0  0  0
   13.4586   43.2810    5.5768 N   0  0  0  0  0  0  0  0  0  0  0  0
   12.9707   44.7281    3.7139 N   0  0  0  0  0  0  0  0  0  0  0  0
   15.0666   44.9211    4.7616 N   0  0  0  0  0  0  0  0  0  0  0  0
  1  2  1  0
  2 20  2  0
  3  4  2  0
  4 24  1  0
  5 19  2  0
  6  5  1  6
  6  7  1  0
  7  8  1  0
  8  9  1  0
  9 21  1  0
 10 21  1  0
 10  6  1  0
 11 23  2  0
 12 22  2  0
 13 14  2  0
 15 26  2  0
 16 25  2  0
 17 18  2  0
 21 11  1  0
 24 15  1  0
  2  3  1  0
  4 19  1  0
  5 20  1  0
 11 22  1  0
 12 13  1  0
 14 23  1  0
 15 25  1  0
 16 17  1  0
 18 26  1  0
M  END
>  <rmsd>  (512) 
0.239778891

$$$$
MolPort-047-592-959 211499115 MCULE-4439733513 PubChem-76847709 ZINC000211499115
     RDKit          3D

 24 25  0  0  0  0  0  0  0  0999 V2000
   13.6810   41.6933   10.2664 B   0  0  0  0  0  0  0  0  0  0  0  0
   14.2810   40.7405   11.1852 O   0  0  0  0  0  0  0  0  0  0  0  0
   12.2298   41.7040   10.3436 O   0  0  0  0  0  0  0  0  0  0  0  0
   16.2082   42.4411    5.1619 O   0  0  0  0  0  0  0  0  0  0  0  0
   15.0414   44.8924    4.7842 O   0  0  0  0  0  0  0  0  0  0  0  0
   13.3007   39.7375   11.2289 C   0  0  0  0  0  0  0  0  0  0  0  0
   11.9578   40.3668   10.6694 C   0  0  0  0  0  0  0  0  0  0  0  0
   11.4226   39.6623    9.4207 C   0  0  0  0  0  0  0  0  0  0  0  0
   10.8189   40.3635   11.6853 C   0  0  0  0  0  0  0  0  0  0  0  0
   13.1904   39.2670   12.6765 C   0  0  0  0  0  0  0  0  0  0  0  0
   13.7987   38.5364   10.4224 C   0  0  0  0  0  0  0  0  0  0  0  0
   14.3622   41.9295    8.8761 C   0  0  0  0  0  0  0  0  0  0  0  0
   13.6480   42.5117    7.8283 C   0  0  0  0  0  0  0  0  0  0  0  0
   14.2594   42.7340    6.5929 C   0  0  0  0  0  0  0  0  0  0  0  0
   15.5933   42.3158    6.4100 C   0  0  0  0  0  0  0  0  0  0  0  0
   15.6922   41.5630    8.6677 C   0  0  0  0  0  0  0  0  0  0  0  0
   17.5458   42.0236    4.9331 C   0  0  0  0  0  0  0  0  0  0  0  0
   13.9655   44.2674    4.5800 C   0  0  0  0  0  0  0  0  0  0  0  0
   13.1269   44.6051    3.3894 C   0  0  0  0  0  0  0  0  0  0  0  0
   16.2708   41.7569    7.4534 N   0  0  0  0  0  0  0  0  0  0  0  0
   13.4830   43.3202    5.5401 N   0  0  0  0  0  0  0  0  0  0  0  0
   12.4153   43.4915    2.9817 F   0  0  0  0  0  0  0  0  0  0  0  0
   12.2424   45.6132    3.7231 F   0  0  0  0  0  0  0  0  0  0  0  0
   13.9303   45.0304    2.3466 F   0  0  0  0  0  0  0  0  0  0  0  0
  1  2  1  0
  1 12  1  0
  1  3  1  0
  6  2  1  0
  6  7  1  0
  6 10  1  0
  6 11  1  0
  7  3  1  0
  7  8  1  0
  7  9  1  0
 13 14  2  0
 14 21  1  0
 15 20  2  0
 15  4  1  0
 16 12  2  0
 17  4  1  0
 19 18  1  0
 19 22  1  0
 19 23  1  0
 19 24  1  0
 21 18  1  0
 12 13  1  0
 14 15  1  0
 16 20  1  0
 18  5  2  0
M  END
>  <rmsd>  (513) 
0.239751592

$$$$
MolPort-045-901-900 CSSS00160240507 MCULE-5455986199 PubChem-13064304
     RDKit          3D

 25 27  0  0  0  0  0  0  0  0999 V2000
   13.1210   46.2368    3.2373 C   0  0  0  0  0  0  0  0  0  0  0  0
   13.8396   44.4709    4.7978 C   0  0  0  0  0  0  0  0  0  0  0  0
   14.3025   42.7045    6.5858 C   0  0  0  0  0  0  0  0  0  0  0  0
   13.9217   41.4566    7.0923 C   0  0  0  0  0  0  0  0  0  0  0  0
   14.6630   40.8474    8.1134 C   0  0  0  0  0  0  0  0  0  0  0  0
   15.7832   41.4959    8.6368 C   0  0  0  0  0  0  0  0  0  0  0  0
   16.5533   40.8407    9.7236 C   0  0  0  0  0  0  0  0  0  0  0  0
   15.7555   40.8797   11.0179 C   0  0  0  0  0  0  0  0  0  0  0  0
   14.4940   40.0498   11.0786 C   0  0  0  0  0  0  0  0  0  0  0  0
   13.9545   39.9013   12.3629 C   0  0  0  0  0  0  0  0  0  0  0  0
   12.8058   39.1396   12.5828 C   0  0  0  0  0  0  0  0  0  0  0  0
   12.1741   38.5121   11.5132 C   0  0  0  0  0  0  0  0  0  0  0  0
   12.6867   38.6559   10.2238 C   0  0  0  0  0  0  0  0  0  0  0  0
   13.8439   39.4161    9.9768 C   0  0  0  0  0  0  0  0  0  0  0  0
   14.3609   38.4034    7.7326 C   0  0  0  0  0  0  0  0  0  0  0  0
   14.8857   38.5268    6.3365 C   0  0  0  0  0  0  0  0  0  0  0  0
   16.3953   38.3914    6.3436 C   0  0  0  0  0  0  0  0  0  0  0  0
   16.1690   42.7450    8.1413 C   0  0  0  0  0  0  0  0  0  0  0  0
   15.4308   43.3473    7.1182 C   0  0  0  0  0  0  0  0  0  0  0  0
   12.8451   45.1054    4.0516 O   0  0  0  0  0  0  0  0  0  0  0  0
   15.0267   44.8973    4.7726 O   0  0  0  0  0  0  0  0  0  0  0  0
   14.0504   37.2579    8.1547 O   0  0  0  0  0  0  0  0  0  0  0  0
   13.4970   43.3121    5.5667 N   0  0  0  0  0  0  0  0  0  0  0  0
   14.2950   39.5522    8.6109 N   0  0  0  0  0  0  0  0  0  0  0  0
   17.0284   38.7848    4.7300 Cl  0  0  0  0  0  0  0  0  0  0  0  0
  1 20  1  0
  2 20  1  0
  2 23  1  0
  4  5  2  0
  6 18  2  0
  7  6  1  0
  7  8  1  0
  8  9  1  0
 10 11  2  0
 12 13  2  0
 14 24  1  0
 14  9  2  0
 16 15  1  0
 16 17  1  0
 17 25  1  0
 19  3  2  0
 23  3  1  0
 24 15  1  0
 24  5  1  0
  2 21  2  0
  3  4  1  0
  5  6  1  0
  9 10  1  0
 11 12  1  0
 13 14  1  0
 15 22  2  0
 18 19  1  0
M  END
>  <rmsd>  (514) 
0.239604384

$$$$
Molport-053-362-112
     RDKit          3D

 16 17  0  0  0  0  0  0  0  0999 V2000
   13.4660   39.3642   11.4501 Cl  0  0  0  0  0  0  0  0  0  0  0  0
   13.5861   40.3276    9.9899 C   0  0  0  0  0  0  0  0  0  0  0  0
   12.4095   40.7301    9.3124 C   0  0  0  0  0  0  0  0  0  0  0  0
   12.4892   41.5039    8.1386 C   0  0  0  0  0  0  0  0  0  0  0  0
   13.7594   41.8493    7.6827 C   0  0  0  0  0  0  0  0  0  0  0  0
   14.2093   42.5749    6.6007 C   0  0  0  0  0  0  0  0  0  0  0  0
   14.7667   42.9064    3.1141 C   0  0  0  0  0  0  0  0  0  0  0  0
   16.0265   42.4826    3.2230 C   0  0  0  0  0  0  0  0  0  0  0  0
   14.8960   41.4622    8.3341 C   0  0  0  0  0  0  0  0  0  0  0  0
   14.8541   40.6968    9.4971 C   0  0  0  0  0  0  0  0  0  0  0  0
   13.3935   43.1988    5.6050 N   0  0  0  0  0  0  0  0  0  0  0  0
   15.5632   42.6122    6.6184 N   0  0  0  0  0  0  0  0  0  0  0  0
   15.9745   41.9290    7.6815 N   0  0  0  0  0  0  0  0  0  0  0  0
   14.0830   44.0494    4.2634 S   0  0  0  0  0  0  0  0  0  0  0  0
   15.1374   45.0053    4.7480 O   0  0  0  0  0  0  0  0  0  0  0  0
   13.0061   44.8398    3.5757 O   0  0  0  0  0  0  0  0  0  0  0  0
  2  1  1  0
  3  4  2  0
  5  6  1  0
  6 11  1  0
  9  5  2  0
 10  2  2  0
 13 12  1  0
 13  9  1  0
 14 11  1  0
 14  7  1  0
  2  3  1  0
  4  5  1  0
  6 12  2  0
  7  8  2  0
  9 10  1  0
 14 15  2  0
 14 16  2  0
M  END
>  <rmsd>  (515) 
0.239603564

$$$$
MolPort-002-260-585 1120823 CSSS00132445507 MCULE-6139742585 PubChem-3853618 ZINC000001120823 ZINC01120823
     RDKit          3D

 27 28  0  0  0  0  0  0  0  0999 V2000
   17.4967   41.9941    4.7480 C   0  0  0  0  0  0  0  0  0  0  0  0
   15.6131   42.2763    6.3333 C   0  0  0  0  0  0  0  0  0  0  0  0
   16.3426   41.6816    7.3766 C   0  0  0  0  0  0  0  0  0  0  0  0
   15.7666   41.4816    8.6330 C   0  0  0  0  0  0  0  0  0  0  0  0
   16.0753   40.3674   10.9189 C   0  0  0  0  0  0  0  0  0  0  0  0
   14.7063   39.8367   11.0759 C   0  0  0  0  0  0  0  0  0  0  0  0
   13.9458   40.2672   12.1707 C   0  0  0  0  0  0  0  0  0  0  0  0
   12.6432   39.8012   12.3586 C   0  0  0  0  0  0  0  0  0  0  0  0
   12.0808   38.8887   11.4566 C   0  0  0  0  0  0  0  0  0  0  0  0
   12.8467   38.4370   10.3747 C   0  0  0  0  0  0  0  0  0  0  0  0
   14.1518   38.8983   10.1783 C   0  0  0  0  0  0  0  0  0  0  0  0
   14.4452   41.8885    8.8537 C   0  0  0  0  0  0  0  0  0  0  0  0
   13.7119   42.4869    7.8286 C   0  0  0  0  0  0  0  0  0  0  0  0
   14.2903   42.7062    6.5745 C   0  0  0  0  0  0  0  0  0  0  0  0
   13.9422   44.2856    4.6094 C   0  0  0  0  0  0  0  0  0  0  0  0
   13.0782   44.6206    3.4390 C   0  0  0  0  0  0  0  0  0  0  0  0
   12.6087   46.0604    3.5187 C   0  0  0  0  0  0  0  0  0  0  0  0
   13.8269   44.3919    2.1399 C   0  0  0  0  0  0  0  0  0  0  0  0
   16.1747   42.4136    5.0586 O   0  0  0  0  0  0  0  0  0  0  0  0
   16.8521   40.3528   11.9099 O   0  0  0  0  0  0  0  0  0  0  0  0
   10.1973   37.5093   10.7561 O   0  0  0  0  0  0  0  0  0  0  0  0
   10.0553   38.8047   12.6077 O   0  0  0  0  0  0  0  0  0  0  0  0
   15.0334   44.8937    4.7886 O   0  0  0  0  0  0  0  0  0  0  0  0
   16.5576   40.8907    9.6728 N   0  0  0  0  0  0  0  0  0  0  0  0
   10.7421   38.4098   11.6426 N   0  0  0  0  0  0  0  0  0  0  0  0
   13.4863   43.3126    5.5545 N   0  0  0  0  0  0  0  0  0  0  0  0
   15.0697   38.2187    8.8416 Cl  0  0  0  0  0  0  0  0  0  0  0  0
  1 19  1  0
  2 19  1  0
  3  4  2  0
  4 24  1  0
  5  6  1  0
  7  8  2  0
  9 10  2  0
  9 25  1  0
 11 27  1  0
 11  6  2  0
 12 13  2  0
 14 26  1  0
 14  2  2  0
 16 15  1  0
 16 17  1  0
 16 18  1  0
 24  5  1  0
 25 21  1  0
 26 15  1  0
  2  3  1  0
  4 12  1  0
  5 20  2  0
  6  7  1  0
  8  9  1  0
 10 11  1  0
 13 14  1  0
 15 23  2  0
 25 22  2  0
M  CHG  2  21  -1  25   1
M  END
>  <rmsd>  (516) 
0.239566788

$$$$
Molport-020-278-651 MCULE-8541989905 PubChem-110255523
     RDKit          3D

 27 30  0  0  0  0  0  0  0  0999 V2000
   17.6178   42.9809    8.2827 C   0  0  0  0  0  0  0  0  0  0  0  0
   16.2342   42.5432    7.9640 C   0  0  0  0  0  0  0  0  0  0  0  0
   15.5380   43.1418    6.9162 C   0  0  0  0  0  0  0  0  0  0  0  0
   14.2365   42.7097    6.6393 C   0  0  0  0  0  0  0  0  0  0  0  0
   14.3815   41.1463    8.4154 C   0  0  0  0  0  0  0  0  0  0  0  0
   13.7406   40.0662    9.2215 C   0  0  2  0  0  0  0  0  0  0  0  0
   13.6023   40.4941   10.6840 C   0  0  0  0  0  0  0  0  0  0  0  0
   12.9432   39.3859   11.5025 C   0  0  0  0  0  0  0  0  0  0  0  0
   13.7645   38.1045   11.4000 C   0  0  0  0  0  0  0  0  0  0  0  0
   14.5401   38.7678    9.1136 C   0  0  0  0  0  0  0  0  0  0  0  0
   13.5510   36.4837    9.4769 C   0  0  0  0  0  0  0  0  0  0  0  0
   12.9259   35.4614   10.3778 C   0  0  0  0  0  0  0  0  0  0  0  0
   11.5343   35.0824    9.8990 C   0  0  0  0  0  0  0  0  0  0  0  0
   11.5031   33.5684    9.8006 C   0  0  0  0  0  0  0  0  0  0  0  0
   12.7340   33.0707   10.5261 C   0  0  0  0  0  0  0  0  0  0  0  0
   13.7443   34.1867   10.4072 C   0  0  0  0  0  0  0  0  0  0  0  0
   13.8440   44.3264    4.6771 C   0  0  0  0  0  0  0  0  0  0  0  0
   12.9405   44.7421    3.6951 C   0  0  0  0  0  0  0  0  0  0  0  0
   13.3042   45.7620    2.8141 C   0  0  0  0  0  0  0  0  0  0  0  0
   14.5619   46.3569    2.9208 C   0  0  0  0  0  0  0  0  0  0  0  0
   15.4400   45.9182    3.9136 C   0  0  0  0  0  0  0  0  0  0  0  0
   13.6901   41.7216    7.3963 N   0  0  0  0  0  0  0  0  0  0  0  0
   15.6477   41.5601    8.6937 N   0  0  0  0  0  0  0  0  0  0  0  0
   13.9541   37.7604    9.9931 N   0  0  0  0  0  0  0  0  0  0  0  0
   13.4583   43.2786    5.5770 N   0  0  0  0  0  0  0  0  0  0  0  0
   15.0667   44.9226    4.7620 N   0  0  0  0  0  0  0  0  0  0  0  0
   13.7206   36.2162    8.2550 O   0  0  0  0  0  0  0  0  0  0  0  0
  1  2  1  0
  2 23  2  0
  3  4  2  0
  4 25  1  0
  5 22  2  0
  6  5  1  6
  6  7  1  0
  7  8  1  0
  8  9  1  0
  9 24  1  0
 10 24  1  0
 10  6  1  0
 12 11  1  0
 12 13  1  0
 13 14  1  0
 14 15  1  0
 15 16  1  0
 16 12  1  0
 17 26  2  0
 18 19  2  0
 20 21  2  0
 24 11  1  0
 25 17  1  0
  2  3  1  0
  4 22  1  0
  5 23  1  0
 11 27  2  0
 17 18  1  0
 19 20  1  0
 21 26  1  0
M  END
>  <rmsd>  (517) 
0.239542171

$$$$
MolPort-008-387-160 16648348 CSSS00132982486 MCULE-2852355867 PubChem-17224440 ZINC000016648348 ZINC16648348
     RDKit          3D

 29 30  0  0  0  0  0  0  0  0999 V2000
   13.1326   37.7155    9.8668 C   0  0  0  0  0  0  0  0  0  0  0  0
   12.5261   38.7410   10.8065 C   0  0  0  0  0  0  0  0  0  0  0  0
   13.4982   39.0906   11.9231 C   0  0  0  0  0  0  0  0  0  0  0  0
   14.5278   40.1084   11.4576 C   0  0  0  0  0  0  0  0  0  0  0  0
   15.6488   41.4530    8.6555 C   0  0  0  0  0  0  0  0  0  0  0  0
   14.4113   40.9460    8.2449 C   0  0  0  0  0  0  0  0  0  0  0  0
   13.7045   41.5700    7.2128 C   0  0  0  0  0  0  0  0  0  0  0  0
   14.2298   42.7003    6.5776 C   0  0  0  0  0  0  0  0  0  0  0  0
   13.8852   44.4171    4.7086 C   0  0  0  0  0  0  0  0  0  0  0  0
   12.9225   44.9668    3.6997 C   0  0  0  0  0  0  0  0  0  0  0  0
   12.7477   46.4884    3.8070 C   0  0  0  0  0  0  0  0  0  0  0  0
   13.9459   47.2337    3.2192 C   0  0  0  0  0  0  0  0  0  0  0  0
   14.4552   45.3098    1.7158 C   0  0  0  0  0  0  0  0  0  0  0  0
   13.2663   44.5278    2.2714 C   0  0  0  0  0  0  0  0  0  0  0  0
   14.2540   47.6597    0.7591 C   0  0  0  0  0  0  0  0  0  0  0  0
   14.4295   47.1786   -0.6689 C   0  0  0  0  0  0  0  0  0  0  0  0
   13.3164   46.2156   -1.0354 C   0  0  0  0  0  0  0  0  0  0  0  0
   14.3871   48.3330   -1.6584 C   0  0  0  0  0  0  0  0  0  0  0  0
   15.7692   46.4832   -0.8239 C   0  0  0  0  0  0  0  0  0  0  0  0
   15.4721   43.2046    6.9923 C   0  0  0  0  0  0  0  0  0  0  0  0
   16.1782   42.5832    8.0257 C   0  0  0  0  0  0  0  0  0  0  0  0
   15.5810   39.4468   10.7014 N   0  0  0  0  0  0  0  0  0  0  0  0
   13.4721   43.3174    5.5281 N   0  0  0  0  0  0  0  0  0  0  0  0
   14.2169   46.7428    1.8712 N   0  0  0  0  0  0  0  0  0  0  0  0
   16.5478   40.6719    9.9460 S   0  0  0  0  0  0  0  0  0  0  0  0
   17.7787   40.0311    9.3674 O   0  0  0  0  0  0  0  0  0  0  0  0
   16.9544   41.6969   10.9703 O   0  0  0  0  0  0  0  0  0  0  0  0
   15.0489   44.8928    4.8023 O   0  0  0  0  0  0  0  0  0  0  0  0
   14.1387   48.8968    0.9852 O   0  0  0  0  0  0  0  0  0  0  0  0
  1  2  1  0
  2  3  1  0
  3  4  1  0
  4 22  1  0
  6  7  2  0
  8 23  1  0
  8 20  2  0
 10  9  1  0
 10 11  1  0
 11 12  1  0
 12 24  1  0
 13 24  1  0
 13 14  1  0
 14 10  1  0
 16 15  1  0
 16 17  1  0
 16 18  1  0
 16 19  1  0
 21  5  2  0
 23  9  1  0
 24 15  1  0
 25 22  1  0
 25  5  1  0
  5  6  1  0
  7  8  1  0
  9 28  2  0
 15 29  2  0
 20 21  1  0
 25 26  2  0
 25 27  2  0
M  END
>  <rmsd>  (518) 
0.239524409

$$$$
MolPort-016-630-554 65535736 CSSS00159586613 MCULE-5089715295 PubChem-50985435 ZINC000065535736 ZINC65535736
     RDKit          3D

 23 25  0  0  0  0  0  0  0  0999 V2000
   16.2998   40.7449    4.5791 C   0  0  0  0  0  0  0  0  0  0  0  0
   16.1813   42.1791    5.0615 C   0  0  0  0  0  0  0  0  0  0  0  0
   15.5508   42.2315    6.4169 C   0  0  0  0  0  0  0  0  0  0  0  0
   14.2585   42.7681    6.6168 C   0  0  0  0  0  0  0  0  0  0  0  0
   13.9544   44.2790    4.5979 C   0  0  0  0  0  0  0  0  0  0  0  0
   13.1264   44.6038    3.4079 C   0  0  0  0  0  0  0  0  0  0  0  0
   13.6838   42.7145    7.8904 C   0  0  0  0  0  0  0  0  0  0  0  0
   14.3907   42.1777    8.9675 C   0  0  0  0  0  0  0  0  0  0  0  0
   15.6799   41.6628    8.7834 C   0  0  0  0  0  0  0  0  0  0  0  0
   16.2546   41.7026    7.5068 C   0  0  0  0  0  0  0  0  0  0  0  0
   17.7335   41.4242   10.1193 C   0  0  0  0  0  0  0  0  0  0  0  0
   18.0795   40.8703   11.3371 C   0  0  0  0  0  0  0  0  0  0  0  0
   16.0149   40.4423   10.9680 C   0  0  0  0  0  0  0  0  0  0  0  0
   14.6823   39.8264   11.1343 C   0  0  0  0  0  0  0  0  0  0  0  0
   14.1708   39.6066   12.4192 C   0  0  0  0  0  0  0  0  0  0  0  0
   12.2281   38.5774   11.5228 C   0  0  0  0  0  0  0  0  0  0  0  0
   12.7065   38.7570   10.2241 C   0  0  0  0  0  0  0  0  0  0  0  0
   13.9417   39.3775   10.0342 C   0  0  0  0  0  0  0  0  0  0  0  0
   13.4802   43.3185    5.5461 N   0  0  0  0  0  0  0  0  0  0  0  0
   16.4343   41.1542    9.8956 N   0  0  0  0  0  0  0  0  0  0  0  0
   17.0011   40.2583   11.8673 N   0  0  0  0  0  0  0  0  0  0  0  0
   12.9650   38.9993   12.5850 N   0  0  0  0  0  0  0  0  0  0  0  0
   15.0436   44.8847    4.7813 O   0  0  0  0  0  0  0  0  0  0  0  0
  1  2  1  0
  2  3  1  0
  4 19  1  0
  4  7  2  0
  6  5  1  0
  8  9  2  0
  9 20  1  0
 10  3  2  0
 12 21  1  0
 13 14  1  0
 13 20  1  0
 15 22  2  0
 16 17  2  0
 18 14  2  0
 19  5  1  0
 20 11  1  0
  3  4  1  0
  5 23  2  0
  7  8  1  0
  9 10  1  0
 11 12  2  0
 13 21  2  0
 14 15  1  0
 16 22  1  0
 17 18  1  0
M  END
>  <rmsd>  (519) 
0.239509627

$$$$
MolPort-002-840-837 4666441 LN01230451 MCULE-8278033649 PubChem-7314039 ZINC000004666441 ZINC04666441
     RDKit          3D

 27 29  0  0  0  0  0  0  0  0999 V2000
   16.1843   42.1727    5.0714 C   0  0  0  0  0  0  0  0  0  0  0  0
   15.5571   42.2516    6.4213 C   0  0  0  0  0  0  0  0  0  0  0  0
   14.2605   42.7771    6.6177 C   0  0  0  0  0  0  0  0  0  0  0  0
   13.9532   44.2718    4.5829 C   0  0  0  0  0  0  0  0  0  0  0  0
   13.1571   44.5835    3.3735 C   0  0  0  0  0  0  0  0  0  0  0  0
   11.9353   43.9360    3.0861 C   0  0  0  0  0  0  0  0  0  0  0  0
   11.2221   44.2657    1.9289 C   0  0  0  0  0  0  0  0  0  0  0  0
   11.7104   45.2342    1.0502 C   0  0  0  0  0  0  0  0  0  0  0  0
   12.9171   45.8787    1.3246 C   0  0  0  0  0  0  0  0  0  0  0  0
   13.6346   45.5545    2.4782 C   0  0  0  0  0  0  0  0  0  0  0  0
   13.6848   42.7196    7.8907 C   0  0  0  0  0  0  0  0  0  0  0  0
   14.3952   42.1856    8.9672 C   0  0  0  0  0  0  0  0  0  0  0  0
   15.6902   41.6802    8.7803 C   0  0  0  0  0  0  0  0  0  0  0  0
   15.9158   40.7564   11.0773 C   0  0  0  0  0  0  0  0  0  0  0  0
   14.6496   39.9931   11.1773 C   0  0  0  0  0  0  0  0  0  0  0  0
   13.8804   39.9948   12.3587 C   0  0  0  0  0  0  0  0  0  0  0  0
   12.7007   39.2469   12.4286 C   0  0  0  0  0  0  0  0  0  0  0  0
   12.2819   38.4879   11.3337 C   0  0  0  0  0  0  0  0  0  0  0  0
   13.0426   38.4737   10.1633 C   0  0  0  0  0  0  0  0  0  0  0  0
   14.2210   39.2199   10.0877 C   0  0  0  0  0  0  0  0  0  0  0  0
   16.2607   41.7173    7.5054 C   0  0  0  0  0  0  0  0  0  0  0  0
   13.4802   43.3210    5.5454 N   0  0  0  0  0  0  0  0  0  0  0  0
   15.0406   44.8789    4.7865 O   0  0  0  0  0  0  0  0  0  0  0  0
   16.4425   41.1607    9.8424 O   0  0  0  0  0  0  0  0  0  0  0  0
   16.5843   40.9912   12.1187 O   0  0  0  0  0  0  0  0  0  0  0  0
   11.4245   42.9869    3.9091 F   0  0  0  0  0  0  0  0  0  0  0  0
   14.2526   40.7309   13.4357 F   0  0  0  0  0  0  0  0  0  0  0  0
  1  2  1  0
  3 22  1  0
  3 11  2  0
  4  5  1  0
  6 26  1  0
  6  7  2  0
  8  9  2  0
 10  5  2  0
 12 13  2  0
 13 24  1  0
 14 24  1  0
 14 15  1  0
 16 27  1  0
 16 17  2  0
 18 19  2  0
 20 15  2  0
 21  2  2  0
 22  4  1  0
  2  3  1  0
  4 23  2  0
  5  6  1  0
  7  8  1  0
  9 10  1  0
 11 12  1  0
 13 21  1  0
 14 25  2  0
 15 16  1  0
 17 18  1  0
 19 20  1  0
M  END
>  <rmsd>  (520) 
0.239414647

$$$$
Molport-020-278-644 MCULE-4525318161 PubChem-110255516
     RDKit          3D

 25 27  0  0  0  0  0  0  0  0999 V2000
   17.6013   43.0043    8.3090 C   0  0  0  0  0  0  0  0  0  0  0  0
   16.2209   42.5614    7.9828 C   0  0  0  0  0  0  0  0  0  0  0  0
   15.5292   43.1554    6.9295 C   0  0  0  0  0  0  0  0  0  0  0  0
   14.2311   42.7180    6.6450 C   0  0  0  0  0  0  0  0  0  0  0  0
   14.3699   41.1597    8.4262 C   0  0  0  0  0  0  0  0  0  0  0  0
   13.7293   40.0760    9.2279 C   0  0  2  0  0  0  0  0  0  0  0  0
   13.6157   40.4857   10.6978 C   0  0  0  0  0  0  0  0  0  0  0  0
   12.9583   39.3728   11.5112 C   0  0  0  0  0  0  0  0  0  0  0  0
   13.7660   38.0853   11.3801 C   0  0  0  0  0  0  0  0  0  0  0  0
   14.5149   38.7718    9.0913 C   0  0  0  0  0  0  0  0  0  0  0  0
   13.5138   36.4906    9.4397 C   0  0  0  0  0  0  0  0  0  0  0  0
   12.9288   35.4450   10.3299 C   0  0  0  0  0  0  0  0  0  0  0  0
   13.3075   33.8406   11.7946 C   0  0  0  0  0  0  0  0  0  0  0  0
   13.8465   44.3253    4.6727 C   0  0  0  0  0  0  0  0  0  0  0  0
   15.4302   45.9104    3.9057 C   0  0  0  0  0  0  0  0  0  0  0  0
   14.5466   46.3307    2.9138 C   0  0  0  0  0  0  0  0  0  0  0  0
   13.3005   45.7119    2.8339 C   0  0  0  0  0  0  0  0  0  0  0  0
   13.6833   41.7297    7.4010 N   0  0  0  0  0  0  0  0  0  0  0  0
   15.6334   41.5776    8.7107 N   0  0  0  0  0  0  0  0  0  0  0  0
   13.9329   37.7580    9.9663 N   0  0  0  0  0  0  0  0  0  0  0  0
   13.4580   43.2808    5.5754 N   0  0  0  0  0  0  0  0  0  0  0  0
   15.0673   44.9210    4.7630 N   0  0  0  0  0  0  0  0  0  0  0  0
   12.9743   44.7258    3.7098 N   0  0  0  0  0  0  0  0  0  0  0  0
   13.6637   36.2322    8.2156 O   0  0  0  0  0  0  0  0  0  0  0  0
   13.9508   34.6703   10.8776 O   0  0  0  0  0  0  0  0  0  0  0  0
  1  2  1  0
  2 19  2  0
  3  4  2  0
  4 21  1  0
  5 18  2  0
  6  5  1  6
  6  7  1  0
  7  8  1  0
  8  9  1  0
  9 20  1  0
 10 20  1  0
 10  6  1  0
 12 11  1  0
 12 25  1  0
 13 25  1  0
 14 23  2  0
 15 22  2  0
 16 17  2  0
 20 11  1  0
 21 14  1  0
  2  3  1  0
  4 18  1  0
  5 19  1  0
 11 24  2  0
 14 22  1  0
 15 16  1  0
 17 23  1  0
M  END
>  <rmsd>  (521) 
0.239290819

$$$$
MolPort-005-101-321 12471464 CSSS00159780271 PubChem-25306940 ZINC000012471464
     RDKit          3D

 30 33  0  0  0  0  0  0  0  0999 V2000
   17.8584   41.5841   15.9617 F   0  0  0  0  0  0  0  0  0  0  0  0
   17.1096   41.0748   14.9547 C   0  0  0  0  0  0  0  0  0  0  0  0
   17.7093   40.7442   13.7362 C   0  0  0  0  0  0  0  0  0  0  0  0
   16.9369   40.2183   12.6960 C   0  0  0  0  0  0  0  0  0  0  0  0
   15.5626   40.0204   12.8678 C   0  0  0  0  0  0  0  0  0  0  0  0
   14.7836   39.4640   11.7537 C   0  0  0  0  0  0  0  0  0  0  0  0
   13.4723   39.2561   11.8259 C   0  0  0  0  0  0  0  0  0  0  0  0
   12.7271   38.6904   10.6641 C   0  0  0  0  0  0  0  0  0  0  0  0
   12.7722   38.8343    8.3262 C   0  0  0  0  0  0  0  0  0  0  0  0
   12.5868   39.6930    7.0624 C   0  0  0  0  0  0  0  0  0  0  0  0
   12.4089   41.1934    7.3435 C   0  0  0  0  0  0  0  0  0  0  0  0
   11.5075   41.4936    8.5518 C   0  0  0  0  0  0  0  0  0  0  0  0
   11.4827   40.3608    9.5803 C   0  0  0  0  0  0  0  0  0  0  0  0
   15.6492   42.4251    8.2228 C   0  0  0  0  0  0  0  0  0  0  0  0
   15.4315   43.2132    7.0981 C   0  0  0  0  0  0  0  0  0  0  0  0
   14.1808   42.8139    6.6651 C   0  0  0  0  0  0  0  0  0  0  0  0
   13.9383   44.3350    4.6313 C   0  0  0  0  0  0  0  0  0  0  0  0
   13.0965   44.7560    3.4982 C   0  0  0  0  0  0  0  0  0  0  0  0
   11.8491   44.1588    3.2749 C   0  0  0  0  0  0  0  0  0  0  0  0
   11.4835   45.5246    1.3679 C   0  0  0  0  0  0  0  0  0  0  0  0
   12.7190   46.1482    1.5511 C   0  0  0  0  0  0  0  0  0  0  0  0
   13.5257   45.7601    2.6217 C   0  0  0  0  0  0  0  0  0  0  0  0
   14.9647   40.3554   14.0936 C   0  0  0  0  0  0  0  0  0  0  0  0
   15.7372   40.8807   15.1337 C   0  0  0  0  0  0  0  0  0  0  0  0
   12.7434   39.6282    9.5533 N   0  0  0  0  0  0  0  0  0  0  0  0
   13.7012   41.8613    7.4761 N   0  0  0  0  0  0  0  0  0  0  0  0
   14.5863   41.6182    8.4261 N   0  0  0  0  0  0  0  0  0  0  0  0
   13.4693   43.3179    5.5272 N   0  0  0  0  0  0  0  0  0  0  0  0
   11.0772   44.5511    2.2259 N   0  0  0  0  0  0  0  0  0  0  0  0
   15.0666   44.8708    4.8068 O   0  0  0  0  0  0  0  0  0  0  0  0
  2  1  1  0
  3  4  2  0
  5  6  1  0
  5 23  2  0
  8  7  1  0
  8 25  1  0
  9 25  1  0
  9 10  1  0
 10 11  1  0
 11 12  1  0
 11 26  1  0
 12 13  1  0
 13 25  1  0
 14 15  1  0
 16 28  1  0
 16 26  1  0
 17 18  1  0
 19 29  2  0
 20 21  2  0
 22 18  2  0
 24  2  2  0
 26 27  1  0
 28 17  1  0
  2  3  1  0
  4  5  1  0
  6  7  2  0
 14 27  2  0
 15 16  2  0
 17 30  2  0
 18 19  1  0
 20 29  1  0
 21 22  1  0
 23 24  1  0
M  END
>  <rmsd>  (522) 
0.239214137

$$$$
MolPort-023-256-740 77378919 CSSS00160048253 MCULE-7439721206 PubChem-136239114 ZINC000077378919 ZINC77378919
     RDKit          3D

 27 29  0  0  0  0  0  0  0  0999 V2000
   12.9501   44.5649    1.2002 C   0  0  0  0  0  0  0  0  0  0  0  0
   13.1264   44.5865    3.3987 C   0  0  0  0  0  0  0  0  0  0  0  0
   13.9549   44.2741    4.5945 C   0  0  0  0  0  0  0  0  0  0  0  0
   14.2598   42.7696    6.6183 C   0  0  0  0  0  0  0  0  0  0  0  0
   15.5589   42.2501    6.4219 C   0  0  0  0  0  0  0  0  0  0  0  0
   16.1913   42.1833    5.0738 C   0  0  0  0  0  0  0  0  0  0  0  0
   16.2611   41.7116    7.5043 C   0  0  0  0  0  0  0  0  0  0  0  0
   15.6842   41.6594    8.7800 C   0  0  0  0  0  0  0  0  0  0  0  0
   14.3912   42.1654    8.9653 C   0  0  0  0  0  0  0  0  0  0  0  0
   13.6823   42.7040    7.8900 C   0  0  0  0  0  0  0  0  0  0  0  0
   17.7394   41.4102   10.1121 C   0  0  0  0  0  0  0  0  0  0  0  0
   18.0852   40.8533   11.3286 C   0  0  0  0  0  0  0  0  0  0  0  0
   16.0187   40.4334   10.9617 C   0  0  0  0  0  0  0  0  0  0  0  0
   14.6838   39.8231   11.1292 C   0  0  0  0  0  0  0  0  0  0  0  0
   14.1691   39.6292   12.4175 C   0  0  0  0  0  0  0  0  0  0  0  0
   12.9221   39.0112   12.6082 C   0  0  0  0  0  0  0  0  0  0  0  0
   13.0672   39.2368   15.0689 C   0  0  0  0  0  0  0  0  0  0  0  0
   12.1957   38.5734   11.4922 C   0  0  0  0  0  0  0  0  0  0  0  0
   12.7138   38.7450   10.2060 C   0  0  0  0  0  0  0  0  0  0  0  0
   13.9544   39.3605   10.0261 C   0  0  0  0  0  0  0  0  0  0  0  0
   13.8248   44.2503    2.2391 O   0  0  0  0  0  0  0  0  0  0  0  0
   15.0411   44.8857    4.7801 O   0  0  0  0  0  0  0  0  0  0  0  0
   12.3924   38.8221   13.8891 O   0  0  0  0  0  0  0  0  0  0  0  0
   10.9589   37.9624   11.6566 O   0  0  0  0  0  0  0  0  0  0  0  0
   13.4803   43.3188    5.5478 N   0  0  0  0  0  0  0  0  0  0  0  0
   16.4390   41.1454    9.8896 N   0  0  0  0  0  0  0  0  0  0  0  0
   17.0052   40.2445   11.8595 N   0  0  0  0  0  0  0  0  0  0  0  0
  1 21  1  0
  2 21  1  0
  2  3  1  0
  3 25  1  0
  5  7  2  0
  6  5  1  0
  8  9  2  0
  8 26  1  0
 10  4  2  0
 12 27  1  0
 13 14  1  0
 13 26  1  0
 15 16  2  0
 16 23  1  0
 17 23  1  0
 18 24  1  0
 18 19  2  0
 20 14  2  0
 25  4  1  0
 26 11  1  0
  3 22  2  0
  4  5  1  0
  7  8  1  0
  9 10  1  0
 11 12  2  0
 13 27  2  0
 14 15  1  0
 16 18  1  0
 19 20  1  0
M  END
>  <rmsd>  (523) 
0.239197001

$$$$
MolPort-002-776-346 MCULE-9426573331 PubChem-19614191 ZINC000020607634
     RDKit          3D

 32 37  0  0  0  0  0  0  0  0999 V2000
   14.2116   42.8525    6.6944 C   0  0  0  0  0  0  0  0  0  0  0  0
   13.9347   44.3053    4.6266 C   0  0  0  0  0  0  0  0  0  0  0  0
   13.0817   44.6671    3.4770 C   0  0  0  0  0  0  0  0  0  0  0  0
   11.8288   44.0459    3.2951 C   0  0  0  0  0  0  0  0  0  0  0  0
   11.0122   44.3817    2.1875 C   0  0  0  0  0  0  0  0  0  0  0  0
    9.6691   43.7406    2.0325 C   0  0  0  0  0  0  0  0  0  0  0  0
    9.8255   42.2467    1.8050 C   0  0  0  0  0  0  0  0  0  0  0  0
    9.5227   43.1574    0.6377 C   0  0  0  0  0  0  0  0  0  0  0  0
   12.6292   45.9255    1.4800 C   0  0  0  0  0  0  0  0  0  0  0  0
   14.5677   46.4269    2.3656 C   0  0  0  0  0  0  0  0  0  0  0  0
   13.4494   45.6215    2.5223 C   0  0  0  0  0  0  0  0  0  0  0  0
   12.6535   47.4635   -0.4870 C   0  0  0  0  0  0  0  0  0  0  0  0
   14.8069   41.8182    8.4887 C   0  0  0  0  0  0  0  0  0  0  0  0
   13.6593   40.2065    9.7550 C   0  0  0  0  0  0  0  0  0  0  0  0
   13.5693   39.3212   10.9604 C   0  0  0  0  0  0  0  0  0  0  0  0
   12.5724   40.2740    8.8484 C   0  0  0  0  0  0  0  0  0  0  0  0
   12.6330   41.1208    7.7218 C   0  0  0  0  0  0  0  0  0  0  0  0
   11.4759   41.2407    6.7710 C   0  0  0  0  0  0  0  0  0  0  0  0
   11.8336   40.6034    5.4385 C   0  0  0  0  0  0  0  0  0  0  0  0
   10.9255   39.8726    6.3985 C   0  0  0  0  0  0  0  0  0  0  0  0
   13.7862   41.8988    7.5896 C   0  0  0  0  0  0  0  0  0  0  0  0
   13.4799   43.3134    5.5546 N   0  0  0  0  0  0  0  0  0  0  0  0
   11.4230   45.3351    1.2949 N   0  0  0  0  0  0  0  0  0  0  0  0
   13.1987   46.8640    0.7181 N   0  0  0  0  0  0  0  0  0  0  0  0
   14.3759   47.1752    1.2459 N   0  0  0  0  0  0  0  0  0  0  0  0
   15.4352   43.3009    7.0646 N   0  0  0  0  0  0  0  0  0  0  0  0
   15.8034   42.6637    8.1733 N   0  0  0  0  0  0  0  0  0  0  0  0
   14.7628   40.9948    9.5642 N   0  0  0  0  0  0  0  0  0  0  0  0
   15.0542   44.8622    4.7889 O   0  0  0  0  0  0  0  0  0  0  0  0
   14.8213   39.1426   11.5220 F   0  0  0  0  0  0  0  0  0  0  0  0
   12.7342   39.9034   11.8958 F   0  0  0  0  0  0  0  0  0  0  0  0
   13.0611   38.0850   10.6034 F   0  0  0  0  0  0  0  0  0  0  0  0
  1 22  1  0
  2  3  1  0
  4  5  2  0
  6  5  1  0
  6  7  1  0
  7  8  1  0
  8  6  1  0
  9 23  2  0
  9 24  1  0
 10 11  1  0
 11  3  2  0
 12 24  1  0
 14 28  2  0
 15 14  1  0
 15 30  1  0
 15 31  1  0
 15 32  1  0
 16 17  2  0
 18 17  1  0
 18 19  1  0
 19 20  1  0
 20 18  1  0
 21  1  1  0
 21 13  2  0
 22  2  1  0
 24 25  1  0
 27 26  1  0
 27 13  1  0
  1 26  2  0
  2 29  2  0
  3  4  1  0
  5 23  1  0
 10 25  2  0
 11  9  1  0
 13 28  1  0
 14 16  1  0
 17 21  1  0
M  END
>  <rmsd>  (524) 
0.239128292

$$$$
MolPort-003-112-255 8959290 CSSS03436950445 MCULE-6540110749 PubChem-40887186 VZHRHASBLZJDLJ-UHFFFAOYSA-N ZINC000008959290 ZINC08959290
     RDKit          3D

 23 24  0  0  0  0  0  0  0  0999 V2000
   13.2558   39.6132   12.5997 C   0  0  0  0  0  0  0  0  0  0  0  0
   13.9011   39.5289   11.2332 C   0  0  0  0  0  0  0  0  0  0  0  0
   13.2172   38.4421   10.4260 C   0  0  0  0  0  0  0  0  0  0  0  0
   15.3780   39.2100   11.3944 C   0  0  0  0  0  0  0  0  0  0  0  0
   16.1601   39.5072   10.1176 C   0  0  0  0  0  0  0  0  0  0  0  0
   15.6529   41.5368    8.7377 C   0  0  0  0  0  0  0  0  0  0  0  0
   16.2618   42.5499    7.9515 C   0  0  0  0  0  0  0  0  0  0  0  0
   18.5480   42.3331    8.9386 C   0  0  0  0  0  0  0  0  0  0  0  0
   18.2559   42.5134   10.4209 C   0  0  0  0  0  0  0  0  0  0  0  0
   19.4485   41.9865   11.1962 C   0  0  0  0  0  0  0  0  0  0  0  0
   18.0852   43.9897   10.7458 C   0  0  0  0  0  0  0  0  0  0  0  0
   17.0288   41.7473   10.8263 C   0  0  0  0  0  0  0  0  0  0  0  0
   15.5365   43.1390    6.9102 C   0  0  0  0  0  0  0  0  0  0  0  0
   14.2328   42.7282    6.6080 C   0  0  0  0  0  0  0  0  0  0  0  0
   13.9066   44.3709    4.6681 C   0  0  0  0  0  0  0  0  0  0  0  0
   12.9863   44.8558    3.6073 C   0  0  0  0  0  0  0  0  0  0  0  0
   13.6515   41.7067    7.3573 C   0  0  0  0  0  0  0  0  0  0  0  0
   14.3529   41.1206    8.4104 C   0  0  0  0  0  0  0  0  0  0  0  0
   16.2987   40.9459    9.8817 N   0  0  0  0  0  0  0  0  0  0  0  0
   13.4784   43.3171    5.5398 N   0  0  0  0  0  0  0  0  0  0  0  0
   17.5780   42.9898    8.1323 O   0  0  0  0  0  0  0  0  0  0  0  0
   16.6572   41.7748   12.0319 O   0  0  0  0  0  0  0  0  0  0  0  0
   15.0460   44.8945    4.7834 O   0  0  0  0  0  0  0  0  0  0  0  0
  1  2  1  0
  2  3  1  0
  2  4  1  0
  4  5  1  0
  5 19  1  0
  7 21  1  0
  7 13  2  0
  8 21  1  0
  8  9  1  0
  9 10  1  0
  9 11  1  0
  9 12  1  0
 12 19  1  0
 14 20  1  0
 14 17  2  0
 16 15  1  0
 18  6  2  0
 19  6  1  0
 20 15  1  0
  6  7  1  0
 12 22  2  0
 13 14  1  0
 15 23  2  0
 17 18  1  0
M  END
>  <rmsd>  (525) 
0.23906444

$$$$
MolPort-029-896-536 96149094 CSSS00159654518 MCULE-9308766807 PubChem-72885521 ZINC000096149094 ZINC96149094
     RDKit          3D

 23 24  0  0  0  0  0  0  0  0999 V2000
   13.0707   39.5180   12.0460 C   0  0  0  0  0  0  0  0  0  0  0  0
   14.0651   39.3652   10.9143 C   0  0  0  0  0  0  0  0  0  0  0  0
   14.9076   40.2101    9.0582 C   0  0  0  0  0  0  0  0  0  0  0  0
   13.8446   41.5906    7.2848 C   0  0  0  0  0  0  0  0  0  0  0  0
   14.2634   42.6518    6.5151 C   0  0  0  0  0  0  0  0  0  0  0  0
   13.8932   44.4110    4.7148 C   0  0  0  0  0  0  0  0  0  0  0  0
   13.3247   46.1020    2.9191 C   0  0  0  0  0  0  0  0  0  0  0  0
   13.3204   47.3803    3.7409 C   0  0  0  0  0  0  0  0  0  0  0  0
   13.6681   48.5757    2.8688 C   0  0  0  0  0  0  0  0  0  0  0  0
   12.4812   49.0379    2.0915 C   0  0  0  0  0  0  0  0  0  0  0  0
   10.8351   48.9692    0.5683 C   0  0  0  0  0  0  0  0  0  0  0  0
   10.0147   48.3621   -0.5160 C   0  0  0  0  0  0  0  0  0  0  0  0
   10.6087   50.2407    1.0852 C   0  0  0  0  0  0  0  0  0  0  0  0
    9.5435   51.1922    0.6640 C   0  0  0  0  0  0  0  0  0  0  0  0
   15.5647   42.9495    6.8772 C   0  0  0  0  0  0  0  0  0  0  0  0
   13.9635   40.4585   10.0554 O   0  0  0  0  0  0  0  0  0  0  0  0
   15.0538   44.8892    4.8362 O   0  0  0  0  0  0  0  0  0  0  0  0
   14.8850   41.2838    8.0799 N   0  0  0  0  0  0  0  0  0  0  0  0
   13.4678   43.3078    5.5218 N   0  0  0  0  0  0  0  0  0  0  0  0
   12.9844   44.9654    3.7618 N   0  0  0  0  0  0  0  0  0  0  0  0
   11.8797   48.3037    1.1283 N   0  0  0  0  0  0  0  0  0  0  0  0
   15.9150   42.0812    7.8461 N   0  0  0  0  0  0  0  0  0  0  0  0
   11.7515   50.5421    2.2801 S   0  0  0  0  0  0  0  0  0  0  0  0
  1  2  1  0
  2 16  1  0
  3 16  1  0
  3 18  1  0
  5 19  1  0
  5 15  1  0
  6 20  1  0
  7 20  1  0
  7  8  1  0
  8  9  1  0
  9 10  1  0
 10 23  1  0
 11 21  1  0
 12 11  1  0
 13 23  1  0
 14 13  1  0
 18  4  1  0
 18 22  1  0
 19  6  1  0
  4  5  2  0
  6 17  2  0
 10 21  2  0
 11 13  2  0
 15 22  2  0
M  END
>  <rmsd>  (526) 
0.23898609

$$$$
MolPort-007-657-051 CSSS00025804467 ChemDiv-C685-0468 MCULE-4330609593 PubChem-20875034
     RDKit          3D

 26 28  0  0  0  0  0  0  0  0999 V2000
   13.1439   37.9674    9.6765 C   0  0  0  0  0  0  0  0  0  0  0  0
   12.5762   38.4731   10.9913 C   0  0  0  0  0  0  0  0  0  0  0  0
   13.1865   39.8188   11.3445 C   0  0  0  0  0  0  0  0  0  0  0  0
   14.6232   39.6477   11.8128 C   0  0  0  0  0  0  0  0  0  0  0  0
   15.0384   41.6468   13.2548 C   0  0  0  0  0  0  0  0  0  0  0  0
   16.1921   41.4532   11.0384 C   0  0  0  0  0  0  0  0  0  0  0  0
   16.4255   40.7433    9.7411 C   0  0  0  0  0  0  0  0  0  0  0  0
   15.6705   41.4042    8.6381 C   0  0  0  0  0  0  0  0  0  0  0  0
   16.2384   42.4779    7.9452 C   0  0  0  0  0  0  0  0  0  0  0  0
   15.5237   43.1086    6.9241 C   0  0  0  0  0  0  0  0  0  0  0  0
   14.2352   42.6735    6.5859 C   0  0  0  0  0  0  0  0  0  0  0  0
   13.8691   44.4083    4.7289 C   0  0  0  0  0  0  0  0  0  0  0  0
   15.3131   45.9556    3.8116 C   0  0  1  0  0  0  0  0  0  0  0  0
   16.7162   45.8035    3.2399 C   0  0  0  0  0  0  0  0  0  0  0  0
   14.7776   44.8825    1.6034 C   0  0  0  0  0  0  0  0  0  0  0  0
   14.2626   45.8073    2.6990 C   0  0  1  0  0  0  0  0  0  0  0  0
   13.6676   41.6068    7.2898 C   0  0  0  0  0  0  0  0  0  0  0  0
   14.3791   40.9778    8.3144 C   0  0  0  0  0  0  0  0  0  0  0  0
   15.2459   40.9501   11.9956 N   0  0  0  0  0  0  0  0  0  0  0  0
   13.4700   43.3013    5.5476 N   0  0  0  0  0  0  0  0  0  0  0  0
   15.0540   44.9127    4.7844 N   0  0  0  0  0  0  0  0  0  0  0  0
   16.8182   42.5250   11.2652 O   0  0  0  0  0  0  0  0  0  0  0  0
   17.0469   43.4646    1.9236 O   0  0  0  0  0  0  0  0  0  0  0  0
   17.1799   45.5435    0.5797 O   0  0  0  0  0  0  0  0  0  0  0  0
   16.5319   44.8672    1.7577 S   0  0  0  0  0  0  0  0  0  0  0  0
   12.7964   45.0471    3.4571 S   0  0  0  0  0  0  0  0  0  0  0  0
  1  2  1  0
  2  3  1  0
  3  4  1  0
  4 19  1  0
  5 19  1  0
  7  6  1  0
  7  8  1  0
  9 10  2  0
 11 20  1  0
 11 17  2  0
 12 26  1  0
 13 21  1  0
 13 14  1  6
 14 25  1  0
 16 15  1  6
 16 26  1  0
 16 13  1  0
 18  8  2  0
 19  6  1  0
 20 12  1  0
 25 15  1  0
  6 22  2  0
  8  9  1  0
 10 11  1  0
 12 21  2  0
 17 18  1  0
 25 23  2  0
 25 24  2  0
M  END
>  <rmsd>  (527) 
0.238967761

$$$$
MolPort-046-676-541 MCULE-3604227003 PubChem-137944645
     RDKit          3D

 23 24  0  0  0  0  0  0  0  0999 V2000
   13.5176   39.3573   11.3420 C   0  0  0  0  0  0  0  0  0  0  0  0
   14.3702   39.2724   10.0904 C   0  0  1  0  0  0  0  0  0  0  0  0
   14.3488   41.0156    8.3335 C   0  0  0  0  0  0  0  0  0  0  0  0
   15.6476   41.4445    8.6497 C   0  0  0  0  0  0  0  0  0  0  0  0
   16.2345   42.4929    7.9377 C   0  0  0  0  0  0  0  0  0  0  0  0
   15.5280   43.1177    6.9072 C   0  0  0  0  0  0  0  0  0  0  0  0
   14.2296   42.6981    6.5812 C   0  0  0  0  0  0  0  0  0  0  0  0
   13.8961   44.3922    4.6853 C   0  0  0  0  0  0  0  0  0  0  0  0
   13.3304   45.9746    2.8699 C   0  0  0  0  0  0  0  0  0  0  0  0
   13.1687   47.2642    3.6011 C   0  0  0  0  0  0  0  0  0  0  0  0
   11.8890   47.7618    3.8723 C   0  0  0  0  0  0  0  0  0  0  0  0
   11.7389   48.9641    4.5703 C   0  0  0  0  0  0  0  0  0  0  0  0
   12.8678   49.6686    5.0000 C   0  0  0  0  0  0  0  0  0  0  0  0
   14.1468   49.1707    4.7325 C   0  0  0  0  0  0  0  0  0  0  0  0
   14.2971   47.9685    4.0345 C   0  0  0  0  0  0  0  0  0  0  0  0
   13.6492   41.6473    7.3000 C   0  0  0  0  0  0  0  0  0  0  0  0
   14.5961   37.8487    9.7060 C   0  0  0  0  0  0  0  0  0  0  0  0
   13.7335   39.9691    9.0264 O   0  0  0  0  0  0  0  0  0  0  0  0
   15.0484   44.8922    4.8024 O   0  0  0  0  0  0  0  0  0  0  0  0
   13.0120   44.8771    3.7188 O   0  0  0  0  0  0  0  0  0  0  0  0
   15.8860   37.3359    9.6970 O   0  0  0  0  0  0  0  0  0  0  0  0
   13.6273   37.1115    9.3823 O   0  0  0  0  0  0  0  0  0  0  0  0
   13.4724   43.3158    5.5313 N   0  0  0  0  0  0  0  0  0  0  0  0
  2  1  1  1
  2 18  1  0
  2 17  1  0
  3 18  1  0
  4  5  2  0
  6  7  2  0
  7 23  1  0
  8 20  1  0
  9 20  1  0
  9 10  1  0
 11 12  2  0
 13 14  2  0
 15 10  2  0
 16  3  2  0
 17 21  1  0
 23  8  1  0
  3  4  1  0
  5  6  1  0
  7 16  1  0
  8 19  2  0
 10 11  1  0
 12 13  1  0
 14 15  1  0
 17 22  2  0
M  END
>  <rmsd>  (528) 
0.238895476

$$$$
MolPort-007-710-791 ChemDiv-D481-2659 MCULE-6464981185 PubChem-46269944 ZINC000033019591 ZINC33019591
     RDKit          3D

 31 34  0  0  0  0  0  0  0  0999 V2000
   12.9202   44.9583    3.7228 C   0  0  0  0  0  0  0  0  0  0  0  0
   13.8841   44.4045    4.7083 C   0  0  0  0  0  0  0  0  0  0  0  0
   14.2651   42.6874    6.5717 C   0  0  0  0  0  0  0  0  0  0  0  0
   13.7295   41.5897    7.2524 C   0  0  0  0  0  0  0  0  0  0  0  0
   14.4612   40.9583    8.2618 C   0  0  0  0  0  0  0  0  0  0  0  0
   15.7358   41.4225    8.6146 C   0  0  0  0  0  0  0  0  0  0  0  0
   16.2765   42.5145    7.9225 C   0  0  0  0  0  0  0  0  0  0  0  0
   15.5461   43.1452    6.9117 C   0  0  0  0  0  0  0  0  0  0  0  0
   16.5410   40.7506    9.6579 C   0  0  0  0  0  0  0  0  0  0  0  0
   17.1994   39.5300   11.2579 C   0  0  0  0  0  0  0  0  0  0  0  0
   16.9601   39.8667   13.8248 C   0  0  0  0  0  0  0  0  0  0  0  0
   15.9210   39.5084   14.8368 C   0  0  0  0  0  0  0  0  0  0  0  0
   15.2241   39.0277   17.1974 C   0  0  0  0  0  0  0  0  0  0  0  0
   15.5358   39.6414   18.5622 C   0  0  0  0  0  0  0  0  0  0  0  0
   17.6908   40.0841   18.0969 C   0  0  0  0  0  0  0  0  0  0  0  0
   17.6405   39.5278   16.6738 C   0  0  0  0  0  0  0  0  0  0  0  0
   14.7254   39.6052   10.9859 C   0  0  0  0  0  0  0  0  0  0  0  0
   14.3140   38.2715   11.1174 C   0  0  0  0  0  0  0  0  0  0  0  0
   13.0063   37.9734   11.5104 C   0  0  0  0  0  0  0  0  0  0  0  0
   12.1048   39.0069   11.7808 C   0  0  0  0  0  0  0  0  0  0  0  0
   12.5115   40.3388   11.6610 C   0  0  0  0  0  0  0  0  0  0  0  0
   13.8192   40.6377   11.2684 C   0  0  0  0  0  0  0  0  0  0  0  0
   15.0387   44.9004    4.7881 O   0  0  0  0  0  0  0  0  0  0  0  0
   14.7404   39.2920   14.4504 O   0  0  0  0  0  0  0  0  0  0  0  0
   16.8541   39.3275   18.9353 O   0  0  0  0  0  0  0  0  0  0  0  0
   13.4824   43.3129    5.5455 N   0  0  0  0  0  0  0  0  0  0  0  0
   17.8835   40.8663    9.7271 N   0  0  0  0  0  0  0  0  0  0  0  0
   18.2948   40.1052   10.7302 N   0  0  0  0  0  0  0  0  0  0  0  0
   16.2474   39.4347   16.2327 N   0  0  0  0  0  0  0  0  0  0  0  0
   16.0777   39.9098   10.6132 N   0  0  0  0  0  0  0  0  0  0  0  0
   17.2463   38.4682   12.7013 S   0  0  0  0  0  0  0  0  0  0  0  0
  1  2  1  0
  2 26  1  0
  4  5  2  0
  6  7  2  0
  6  9  1  0
  8  3  2  0
 10 31  1  0
 10 30  1  0
 11 31  1  0
 11 12  1  0
 12 29  1  0
 13 29  1  0
 13 14  1  0
 14 25  1  0
 15 25  1  0
 15 16  1  0
 16 29  1  0
 18 19  2  0
 20 21  2  0
 22 17  2  0
 26  3  1  0
 27 28  1  0
 30 17  1  0
 30  9  1  0
  2 23  2  0
  3  4  1  0
  5  6  1  0
  7  8  1  0
  9 27  2  0
 10 28  2  0
 12 24  2  0
 17 18  1  0
 19 20  1  0
 21 22  1  0
M  END
>  <rmsd>  (529) 
0.238875881

$$$$
MolPort-010-903-901 ChemDiv-M535-1321 MCULE-7098690132 PubChem-53146014 ZINC000065166013
     RDKit          3D

 33 37  0  0  0  0  0  0  0  0999 V2000
   15.0330   44.8927    4.7645 O   0  0  0  0  0  0  0  0  0  0  0  0
   16.5644   39.7010    9.8940 O   0  0  0  0  0  0  0  0  0  0  0  0
   13.9043   44.3418    4.6566 C   0  0  0  0  0  0  0  0  0  0  0  0
   14.2697   42.7525    6.6366 C   0  0  0  0  0  0  0  0  0  0  0  0
   13.6961   41.7616    7.4353 C   0  0  0  0  0  0  0  0  0  0  0  0
   14.4060   41.1781    8.4967 C   0  0  0  0  0  0  0  0  0  0  0  0
   13.7546   40.3759   10.7869 C   0  0  0  0  0  0  0  0  0  0  0  0
   12.8776   39.3420   11.5003 C   0  0  0  0  0  0  0  0  0  0  0  0
   13.4543   37.9215   11.4569 C   0  0  0  0  0  0  0  0  0  0  0  0
   14.2189   37.5810   10.1739 C   0  0  0  0  0  0  0  0  0  0  0  0
   13.4047   37.7798    8.8928 C   0  0  0  0  0  0  0  0  0  0  0  0
   12.8763   39.2058    8.6951 C   0  0  0  0  0  0  0  0  0  0  0  0
   15.7370   41.5984    8.7497 C   0  0  0  0  0  0  0  0  0  0  0  0
   16.3032   42.5962    7.9446 C   0  0  0  0  0  0  0  0  0  0  0  0
   15.5772   43.1722    6.9026 C   0  0  0  0  0  0  0  0  0  0  0  0
   16.5918   40.9563    9.7735 C   0  0  0  0  0  0  0  0  0  0  0  0
   17.2364   43.1519   10.8319 C   0  0  0  0  0  0  0  0  0  0  0  0
   18.5607   43.9075   10.8474 C   0  0  0  0  0  0  0  0  0  0  0  0
   19.7590   41.8101   11.4902 C   0  0  0  0  0  0  0  0  0  0  0  0
   18.4389   41.0450   11.4685 C   0  0  0  0  0  0  0  0  0  0  0  0
   20.1148   43.9037   12.8437 C   0  0  0  0  0  0  0  0  0  0  0  0
   21.5773   43.8348   14.7230 C   0  0  0  0  0  0  0  0  0  0  0  0
   21.3315   45.1813   14.9961 C   0  0  0  0  0  0  0  0  0  0  0  0
   20.4603   45.8945   14.1728 C   0  0  0  0  0  0  0  0  0  0  0  0
   19.8478   45.2583   13.0923 C   0  0  0  0  0  0  0  0  0  0  0  0
   12.9591   44.8032    3.5954 C   0  0  0  0  0  0  0  0  0  0  0  0
   12.5454   43.6304    2.7246 C   0  0  0  0  0  0  0  0  0  0  0  0
   13.5838   44.6086    2.2254 C   0  0  0  0  0  0  0  0  0  0  0  0
   13.4940   43.3127    5.5685 N   0  0  0  0  0  0  0  0  0  0  0  0
   13.7405   40.2095    9.3256 N   0  0  0  0  0  0  0  0  0  0  0  0
   17.4821   41.7282   10.5979 N   0  0  0  0  0  0  0  0  0  0  0  0
   19.4961   43.2248   11.7386 N   0  0  0  0  0  0  0  0  0  0  0  0
   20.9710   43.2315   13.6652 N   0  0  0  0  0  0  0  0  0  0  0  0
  3 29  1  0
  5  6  2  0
  6 30  1  0
  7 30  1  0
  7  8  1  0
  8  9  1  0
  9 10  1  0
 10 11  1  0
 11 12  1  0
 12 30  1  0
 13 14  2  0
 13 16  1  0
 15  4  2  0
 16 31  1  0
 17 31  1  0
 17 18  1  0
 18 32  1  0
 19 32  1  0
 19 20  1  0
 20 31  1  0
 22 33  2  0
 23 24  2  0
 25 21  2  0
 26  3  1  0
 26 27  1  0
 27 28  1  0
 28 26  1  0
 29  4  1  0
 32 21  1  0
  3  1  2  0
  4  5  1  0
  6 13  1  0
 14 15  1  0
 16  2  2  0
 21 33  1  0
 22 23  1  0
 24 25  1  0
M  END
>  <rmsd>  (530) 
0.238867164

$$$$
MolPort-002-774-359 36613522 CSSS00132994710 MCULE-5866297063 PubChem-44821590 ZINC000036613522 ZINC36613522
     RDKit          3D

 30 33  0  0  0  0  0  0  0  0999 V2000
   13.0690   39.5206   12.0418 C   0  0  0  0  0  0  0  0  0  0  0  0
   14.0637   39.3669   10.9104 C   0  0  0  0  0  0  0  0  0  0  0  0
   14.9133   40.2147    9.0591 C   0  0  0  0  0  0  0  0  0  0  0  0
   13.8481   41.5942    7.2862 C   0  0  0  0  0  0  0  0  0  0  0  0
   14.2667   42.6537    6.5142 C   0  0  0  0  0  0  0  0  0  0  0  0
   13.8910   44.4125    4.7095 C   0  0  0  0  0  0  0  0  0  0  0  0
   12.9695   45.0032    3.7161 C   0  0  0  0  0  0  0  0  0  0  0  0
   11.6657   44.5397    3.5085 C   0  0  0  0  0  0  0  0  0  0  0  0
   10.9140   43.5233    4.0800 C   0  0  0  0  0  0  0  0  0  0  0  0
    8.5265   44.8092    1.7315 C   0  0  0  0  0  0  0  0  0  0  0  0
   10.8542   45.1165    2.5814 C   0  0  0  0  0  0  0  0  0  0  0  0
   12.5077   46.6641    1.9595 C   0  0  0  0  0  0  0  0  0  0  0  0
   13.3840   46.0890    2.9165 C   0  0  0  0  0  0  0  0  0  0  0  0
   12.9493   47.8020    1.1251 C   0  0  0  0  0  0  0  0  0  0  0  0
   14.2402   48.3368    1.2605 C   0  0  0  0  0  0  0  0  0  0  0  0
   14.6487   49.4123    0.4676 C   0  0  0  0  0  0  0  0  0  0  0  0
   13.7706   49.9704   -0.4746 C   0  0  0  0  0  0  0  0  0  0  0  0
   15.4347   51.6463   -1.2098 C   0  0  0  0  0  0  0  0  0  0  0  0
   12.4847   49.4399   -0.6116 C   0  0  0  0  0  0  0  0  0  0  0  0
   12.0763   48.3640    0.1818 C   0  0  0  0  0  0  0  0  0  0  0  0
   15.5693   42.9499    6.8725 C   0  0  0  0  0  0  0  0  0  0  0  0
   13.9718   40.4659   10.0579 O   0  0  0  0  0  0  0  0  0  0  0  0
   15.0524   44.8873    4.8377 O   0  0  0  0  0  0  0  0  0  0  0  0
   14.1486   51.0462   -1.2826 O   0  0  0  0  0  0  0  0  0  0  0  0
   14.8900   41.2870    8.0792 N   0  0  0  0  0  0  0  0  0  0  0  0
   13.4695   43.3087    5.5219 N   0  0  0  0  0  0  0  0  0  0  0  0
    9.6939   43.5307    3.4789 N   0  0  0  0  0  0  0  0  0  0  0  0
    9.6688   44.4998    2.5730 N   0  0  0  0  0  0  0  0  0  0  0  0
   11.2431   46.1598    1.8087 N   0  0  0  0  0  0  0  0  0  0  0  0
   15.9206   42.0825    7.8418 N   0  0  0  0  0  0  0  0  0  0  0  0
  1  2  1  0
  2 22  1  0
  3 22  1  0
  3 25  1  0
  5 26  1  0
  5 21  1  0
  6  7  1  0
  8  9  1  0
 10 28  1  0
 11  8  2  0
 12 29  2  0
 12 14  1  0
 13  7  2  0
 15 16  2  0
 17 24  1  0
 17 19  2  0
 18 24  1  0
 20 14  2  0
 25  4  1  0
 25 30  1  0
 26  6  1  0
 28 27  1  0
 28 11  1  0
  4  5  2  0
  6 23  2  0
  7  8  1  0
  9 27  2  0
 11 29  1  0
 12 13  1  0
 14 15  1  0
 16 17  1  0
 19 20  1  0
 21 30  2  0
M  END
>  <rmsd>  (531) 
0.238755152

$$$$
MolPort-007-595-935 MCULE-7294970288 PubChem-22423740
     RDKit          3D

 19 20  0  0  0  0  0  0  0  0999 V2000
   13.2813   39.3957   11.0919 C   0  0  0  0  0  0  0  0  0  0  0  0
   13.6313   40.6168   10.2683 C   0  0  2  0  0  0  0  0  0  0  0  0
   14.7276   40.2588    9.2788 C   0  0  0  0  0  0  0  0  0  0  0  0
   14.9302   41.3560    8.2892 C   0  0  0  0  0  0  0  0  0  0  0  0
   14.3413   42.7219    6.6067 C   0  0  0  0  0  0  0  0  0  0  0  0
   13.8726   44.3669    4.7074 C   0  0  0  0  0  0  0  0  0  0  0  0
   12.8998   44.8542    3.7135 C   0  0  0  0  0  0  0  0  0  0  0  0
   13.2400   45.8970    2.8385 C   0  0  0  0  0  0  0  0  0  0  0  0
   12.3165   46.3587    1.8960 C   0  0  0  0  0  0  0  0  0  0  0  0
   11.0463   45.7810    1.8215 C   0  0  0  0  0  0  0  0  0  0  0  0
   10.6992   44.7421    2.6889 C   0  0  0  0  0  0  0  0  0  0  0  0
   11.6225   44.2804    3.6314 C   0  0  0  0  0  0  0  0  0  0  0  0
   16.1140   42.0261    8.2175 N   0  0  0  0  0  0  0  0  0  0  0  0
   13.9416   41.7184    7.4121 N   0  0  0  0  0  0  0  0  0  0  0  0
   13.5090   43.3000    5.5946 N   0  0  0  0  0  0  0  0  0  0  0  0
   15.9059   43.1329    6.9958 S   0  0  0  0  0  0  0  0  0  0  0  0
   15.0176   44.8911    4.7711 O   0  0  0  0  0  0  0  0  0  0  0  0
   14.0697   41.6343   11.1164 O   0  0  0  0  0  0  0  0  0  0  0  0
    9.8903   46.3590    0.6416 Cl  0  0  0  0  0  0  0  0  0  0  0  0
  2  1  1  1
  2  3  1  0
  2 18  1  0
  3  4  1  0
  4 14  1  0
  5 16  1  0
  5 15  1  0
  6  7  1  0
  8  9  2  0
 10 11  2  0
 10 19  1  0
 12  7  2  0
 13 16  1  0
 15  6  1  0
  4 13  2  0
  5 14  2  0
  6 17  2  0
  7  8  1  0
  9 10  1  0
 11 12  1  0
M  END
>  <rmsd>  (532) 
0.238582894

$$$$
MolPort-008-320-696 36356972 CSSS00160791463 LN00861550 MCULE-6121196901 PubChem-45491940 ZINC000036356972 ZINC36356972
     RDKit          3D

 28 32  0  0  0  0  0  0  0  0999 V2000
   15.0459   44.8853    4.7783 O   0  0  0  0  0  0  0  0  0  0  0  0
   13.9083   44.3561    4.6570 C   0  0  0  0  0  0  0  0  0  0  0  0
   14.2201   42.7679    6.6473 C   0  0  0  0  0  0  0  0  0  0  0  0
   15.5018   43.2258    6.9832 C   0  0  0  0  0  0  0  0  0  0  0  0
   16.1898   42.6683    8.0625 C   0  0  0  0  0  0  0  0  0  0  0  0
   15.6009   41.6492    8.8142 C   0  0  0  0  0  0  0  0  0  0  0  0
   14.3176   41.1755    8.4952 C   0  0  0  0  0  0  0  0  0  0  0  0
   13.6385   41.7470    7.4056 C   0  0  0  0  0  0  0  0  0  0  0  0
   14.4088   39.5811   10.4421 C   0  0  0  0  0  0  0  0  0  0  0  0
   13.5375   38.6393   11.2695 C   0  0  0  0  0  0  0  0  0  0  0  0
   12.4987   39.4141   12.0755 C   0  0  0  0  0  0  0  0  0  0  0  0
   11.3694   40.1813    9.8961 C   0  0  0  0  0  0  0  0  0  0  0  0
   12.3688   39.6467    8.9249 C   0  0  0  0  0  0  0  0  0  0  0  0
    9.6662   41.1768   10.6550 C   0  0  0  0  0  0  0  0  0  0  0  0
    8.4841   41.8913   10.8322 C   0  0  0  0  0  0  0  0  0  0  0  0
    8.0451   42.1010   12.1529 C   0  0  0  0  0  0  0  0  0  0  0  0
    8.7877   41.5999   13.2456 C   0  0  0  0  0  0  0  0  0  0  0  0
    9.9790   40.8823   13.0322 C   0  0  0  0  0  0  0  0  0  0  0  0
   10.3832   40.6926   11.7106 C   0  0  0  0  0  0  0  0  0  0  0  0
   13.0090   44.8081    3.5891 C   0  0  0  0  0  0  0  0  0  0  0  0
   13.2890   45.7973    2.6588 C   0  0  0  0  0  0  0  0  0  0  0  0
   12.2334   46.0124    1.7609 C   0  0  0  0  0  0  0  0  0  0  0  0
   11.1208   45.2013    1.9738 C   0  0  0  0  0  0  0  0  0  0  0  0
   13.4803   43.3170    5.5486 N   0  0  0  0  0  0  0  0  0  0  0  0
   13.7069   40.1258    9.2725 N   0  0  0  0  0  0  0  0  0  0  0  0
   11.4666   40.0519   11.2495 N   0  0  0  0  0  0  0  0  0  0  0  0
   10.2683   40.8676    9.4930 N   0  0  0  0  0  0  0  0  0  0  0  0
   11.4687   44.2155    3.2917 S   0  0  0  0  0  0  0  0  0  0  0  0
  2 24  1  0
  2 20  1  0
  4  5  2  0
  6  7  2  0
  7 25  1  0
  8  3  2  0
  9 25  1  0
  9 10  1  0
 10 11  1  0
 11 26  1  0
 13 12  1  0
 13 25  1  0
 14 27  1  0
 15 16  2  0
 17 18  2  0
 19 14  2  0
 19 26  1  0
 20 28  1  0
 21 22  1  0
 23 28  1  0
 24  3  1  0
 26 12  1  0
  2  1  2  0
  3  4  1  0
  5  6  1  0
  7  8  1  0
 12 27  2  0
 14 15  1  0
 16 17  1  0
 18 19  1  0
 20 21  2  0
 22 23  2  0
M  END
>  <rmsd>  (533) 
0.238546982

$$$$
MolPort-039-210-472 CSSS03437008378 MCULE-4993795903 PubChem-121017025
     RDKit          3D

 24 26  0  0  0  0  0  0  0  0999 V2000
    9.7480   46.6205    1.0264 C   0  0  0  0  0  0  0  0  0  0  0  0
   10.7072   46.1640    2.0732 C   0  0  0  0  0  0  0  0  0  0  0  0
   10.4228   45.0630    2.9029 C   0  0  0  0  0  0  0  0  0  0  0  0
    9.1482   44.2992    2.7768 C   0  0  0  0  0  0  0  0  0  0  0  0
   11.3501   44.6679    3.8723 C   0  0  0  0  0  0  0  0  0  0  0  0
   12.5572   45.3584    4.0196 C   0  0  0  0  0  0  0  0  0  0  0  0
   12.8363   46.4538    3.1967 C   0  0  0  0  0  0  0  0  0  0  0  0
   11.9141   46.8539    2.2263 C   0  0  0  0  0  0  0  0  0  0  0  0
   14.2193   42.5121    6.6260 C   0  0  0  0  0  0  0  0  0  0  0  0
   14.0510   41.1964    6.9908 C   0  0  0  0  0  0  0  0  0  0  0  0
   15.1619   39.6981    8.6308 C   0  0  0  0  0  0  0  0  0  0  0  0
   14.5553   39.7674   10.0233 C   0  0  1  0  0  0  0  0  0  0  0  0
   13.0260   39.7526    9.9360 C   0  0  0  0  0  0  0  0  0  0  0  0
   12.4485   39.8446   11.3457 C   0  0  0  0  0  0  0  0  0  0  0  0
   13.1041   38.8093   12.2560 C   0  0  0  0  0  0  0  0  0  0  0  0
   14.6232   38.9131   12.1143 C   0  0  0  0  0  0  0  0  0  0  0  0
   15.2568   43.0344    7.3752 C   0  0  0  0  0  0  0  0  0  0  0  0
   13.7107   44.8633    5.2438 S   0  0  0  0  0  0  0  0  0  0  0  0
   13.5303   45.7162    6.4677 O   0  0  0  0  0  0  0  0  0  0  0  0
   15.1058   45.0221    4.7073 O   0  0  0  0  0  0  0  0  0  0  0  0
   14.9982   38.6670   10.7803 O   0  0  0  0  0  0  0  0  0  0  0  0
   13.4426   43.2001    5.6455 N   0  0  0  0  0  0  0  0  0  0  0  0
   14.9805   40.9612    7.9334 N   0  0  0  0  0  0  0  0  0  0  0  0
   15.7017   42.0452    8.1746 N   0  0  0  0  0  0  0  0  0  0  0  0
  1  2  1  0
  3  5  2  0
  4  3  1  0
  6  7  2  0
  8  2  2  0
 10 23  1  0
 11 23  1  0
 12 11  1  6
 12 13  1  0
 12 21  1  0
 13 14  1  0
 14 15  1  0
 15 16  1  0
 16 21  1  0
 17  9  1  0
 18  6  1  0
 18 22  1  0
 22  9  1  0
 23 24  1  0
  2  3  1  0
  5  6  1  0
  7  8  1  0
  9 10  2  0
 17 24  2  0
 18 19  2  0
 18 20  2  0
M  END
>  <rmsd>  (534) 
0.238469258

$$$$
MolPort-002-004-927 CHEMBL1572894 CSSS00159746572 MCULE-2537895063 PubChem-2943507
     RDKit          3D

 17 18  0  0  0  0  0  0  0  0999 V2000
   13.2783   39.3933   11.0925 C   0  0  0  0  0  0  0  0  0  0  0  0
   13.6291   40.6143   10.2692 C   0  0  2  0  0  0  0  0  0  0  0  0
   14.7250   40.2558    9.2794 C   0  0  0  0  0  0  0  0  0  0  0  0
   14.9283   41.3532    8.2901 C   0  0  0  0  0  0  0  0  0  0  0  0
   14.3403   42.7200    6.6080 C   0  0  0  0  0  0  0  0  0  0  0  0
   13.8743   44.3651    4.7107 C   0  0  0  0  0  0  0  0  0  0  0  0
   12.9051   44.8499    3.7219 C   0  0  0  0  0  0  0  0  0  0  0  0
   11.6182   44.3658    3.5455 C   0  0  0  0  0  0  0  0  0  0  0  0
   10.9252   45.0273    2.5212 C   0  0  0  0  0  0  0  0  0  0  0  0
   11.6540   46.0308    1.8864 C   0  0  0  0  0  0  0  0  0  0  0  0
   14.0684   41.6314   11.1175 O   0  0  0  0  0  0  0  0  0  0  0  0
   15.0176   44.8913    4.7708 O   0  0  0  0  0  0  0  0  0  0  0  0
   16.1126   42.0225    8.2184 N   0  0  0  0  0  0  0  0  0  0  0  0
   13.5087   43.2989    5.5961 N   0  0  0  0  0  0  0  0  0  0  0  0
   13.9400   41.7164    7.4131 N   0  0  0  0  0  0  0  0  0  0  0  0
   15.9053   43.1297    6.9970 S   0  0  0  0  0  0  0  0  0  0  0  0
   13.1690   46.0828    2.6160 S   0  0  0  0  0  0  0  0  0  0  0  0
  2  1  1  1
  2 11  1  0
  2  3  1  0
  3  4  1  0
  4 15  1  0
  5 16  1  0
  5 14  1  0
  6  7  1  0
  7 17  1  0
  8  9  1  0
 10 17  1  0
 13 16  1  0
 14  6  1  0
  4 13  2  0
  5 15  2  0
  6 12  2  0
  7  8  2  0
  9 10  2  0
M  END
>  <rmsd>  (535) 
0.238401219

$$$$
MolPort-010-714-222 ChemDiv-D481-2665 MCULE-5981365152 PubChem-50751107 ZINC000033320748 ZINC33320748
     RDKit          3D

 35 39  0  0  0  0  0  0  0  0999 V2000
   12.9464   44.8539    3.6417 C   0  0  0  0  0  0  0  0  0  0  0  0
   13.8908   44.3714    4.6831 C   0  0  0  0  0  0  0  0  0  0  0  0
   14.2520   42.7542    6.6419 C   0  0  0  0  0  0  0  0  0  0  0  0
   13.7089   41.6961    7.3794 C   0  0  0  0  0  0  0  0  0  0  0  0
   14.4184   41.1395    8.4454 C   0  0  0  0  0  0  0  0  0  0  0  0
   15.6810   41.6382    8.7958 C   0  0  0  0  0  0  0  0  0  0  0  0
   16.2232   42.6923    8.0473 C   0  0  0  0  0  0  0  0  0  0  0  0
   15.5147   43.2460    6.9803 C   0  0  0  0  0  0  0  0  0  0  0  0
   16.4601   41.0811    9.9258 C   0  0  0  0  0  0  0  0  0  0  0  0
   17.1057   40.0033   11.6371 C   0  0  0  0  0  0  0  0  0  0  0  0
   17.6623   37.5603   12.4663 C   0  0  0  0  0  0  0  0  0  0  0  0
   16.6797   36.4662   12.7217 C   0  0  0  0  0  0  0  0  0  0  0  0
   16.8957   35.7098   10.3335 C   0  0  0  0  0  0  0  0  0  0  0  0
   15.8464   35.4037    9.2724 C   0  0  0  0  0  0  0  0  0  0  0  0
   15.2878   34.0381    9.5054 C   0  0  0  0  0  0  0  0  0  0  0  0
   14.9441   33.2300    8.4100 C   0  0  0  0  0  0  0  0  0  0  0  0
   14.4289   31.9477    8.6160 C   0  0  0  0  0  0  0  0  0  0  0  0
   14.2481   31.4775    9.9164 C   0  0  0  0  0  0  0  0  0  0  0  0
   14.5947   32.2808   11.0122 C   0  0  0  0  0  0  0  0  0  0  0  0
   15.1163   33.5593   10.8125 C   0  0  0  0  0  0  0  0  0  0  0  0
   15.4672   34.4055   12.0111 C   0  0  0  0  0  0  0  0  0  0  0  0
   14.6899   39.7213   11.0916 C   0  0  0  0  0  0  0  0  0  0  0  0
   14.4595   38.3485   10.9442 C   0  0  0  0  0  0  0  0  0  0  0  0
   13.1770   37.8314   11.1009 C   0  0  0  0  0  0  0  0  0  0  0  0
   12.1119   38.6844   11.4136 C   0  0  0  0  0  0  0  0  0  0  0  0
   12.3402   40.0526   11.5693 C   0  0  0  0  0  0  0  0  0  0  0  0
   13.6293   40.5717   11.4086 C   0  0  0  0  0  0  0  0  0  0  0  0
   15.0384   44.8919    4.7667 O   0  0  0  0  0  0  0  0  0  0  0  0
   16.2289   36.2979   13.8929 O   0  0  0  0  0  0  0  0  0  0  0  0
   13.4872   43.3132    5.5623 N   0  0  0  0  0  0  0  0  0  0  0  0
   17.7822   41.3194   10.0849 N   0  0  0  0  0  0  0  0  0  0  0  0
   18.1777   40.6528   11.1601 N   0  0  0  0  0  0  0  0  0  0  0  0
   16.3066   35.5630   11.6696 N   0  0  0  0  0  0  0  0  0  0  0  0
   16.0043   40.2502   10.8925 N   0  0  0  0  0  0  0  0  0  0  0  0
   17.1030   39.1221   13.1953 S   0  0  0  0  0  0  0  0  0  0  0  0
  1  2  1  0
  2 30  1  0
  4  5  2  0
  6  7  2  0
  6  9  1  0
  8  3  2  0
 10 35  1  0
 10 34  1  0
 11 35  1  0
 11 12  1  0
 12 33  1  0
 13 33  1  0
 13 14  1  0
 14 15  1  0
 16 17  2  0
 18 19  2  0
 20 15  2  0
 21 20  1  0
 21 33  1  0
 23 24  2  0
 25 26  2  0
 27 22  2  0
 30  3  1  0
 31 32  1  0
 34 22  1  0
 34  9  1  0
  2 28  2  0
  3  4  1  0
  5  6  1  0
  7  8  1  0
  9 31  2  0
 10 32  2  0
 12 29  2  0
 15 16  1  0
 17 18  1  0
 19 20  1  0
 22 23  1  0
 24 25  1  0
 26 27  1  0
M  END
>  <rmsd>  (536) 
0.23820141

$$$$
MolPort-007-752-072 ChemDiv-E649-1604 MCULE-2966478132 PubChem-20909601 ZINC000015680328 ZINC15680328
     RDKit          3D

 31 33  0  0  0  0  0  0  0  0999 V2000
   12.6432   47.4067    8.4365 C   0  0  0  0  0  0  0  0  0  0  0  0
   13.8866   47.1002    7.6280 C   0  0  0  0  0  0  0  0  0  0  0  0
   15.0693   44.9520    7.8467 C   0  0  0  0  0  0  0  0  0  0  0  0
   15.1117   43.4957    7.6064 C   0  0  0  0  0  0  0  0  0  0  0  0
   14.3667   42.7882    6.6400 C   0  0  0  0  0  0  0  0  0  0  0  0
   13.8442   44.4154    4.7746 C   0  0  0  0  0  0  0  0  0  0  0  0
   12.8039   44.9996    3.8878 C   0  0  0  0  0  0  0  0  0  0  0  0
   14.5871   41.4575    6.9057 C   0  0  0  0  0  0  0  0  0  0  0  0
   15.4361   41.4013    7.9393 C   0  0  0  0  0  0  0  0  0  0  0  0
   14.7411   39.1877    7.1944 C   0  0  0  0  0  0  0  0  0  0  0  0
   14.5069   37.7328    6.9858 C   0  0  0  0  0  0  0  0  0  0  0  0
   14.1633   40.2209    6.4351 C   0  0  0  0  0  0  0  0  0  0  0  0
   13.2154   40.0261    5.3013 C   0  0  0  0  0  0  0  0  0  0  0  0
   16.5552   42.8834    9.6083 C   0  0  0  0  0  0  0  0  0  0  0  0
   15.6453   42.9528   10.7863 C   0  0  0  0  0  0  0  0  0  0  0  0
   14.0808   41.6350   12.3406 C   0  0  0  0  0  0  0  0  0  0  0  0
   13.4696   40.3924   12.6000 C   0  0  0  0  0  0  0  0  0  0  0  0
   13.7071   39.2142   11.7123 C   0  0  0  0  0  0  0  0  0  0  0  0
   12.7213   39.2233   10.5580 C   0  0  0  0  0  0  0  0  0  0  0  0
   12.5921   40.2573   13.6826 C   0  0  0  0  0  0  0  0  0  0  0  0
   12.3264   41.3464   14.5157 C   0  0  0  0  0  0  0  0  0  0  0  0
   12.9311   42.5797   14.2651 C   0  0  0  0  0  0  0  0  0  0  0  0
   13.8026   42.7233   13.1827 C   0  0  0  0  0  0  0  0  0  0  0  0
   13.9758   45.7006    7.4066 O   0  0  0  0  0  0  0  0  0  0  0  0
   16.0098   45.5131    8.4716 O   0  0  0  0  0  0  0  0  0  0  0  0
   15.0136   44.8842    4.7561 O   0  0  0  0  0  0  0  0  0  0  0  0
   15.4560   44.0593   11.3571 O   0  0  0  0  0  0  0  0  0  0  0  0
   13.5163   43.3009    5.6078 N   0  0  0  0  0  0  0  0  0  0  0  0
   15.7886   42.6124    8.3977 N   0  0  0  0  0  0  0  0  0  0  0  0
   14.9821   41.7620   11.2298 N   0  0  0  0  0  0  0  0  0  0  0  0
   15.7547   39.8265    8.4188 S   0  0  0  0  0  0  0  0  0  0  0  0
  1  2  1  0
  2 24  1  0
  3 24  1  0
  3  4  1  0
  5 28  1  0
  5  8  1  0
  7  6  1  0
  9 31  1  0
  9 29  1  0
 10 31  1  0
 11 10  1  0
 12  8  1  0
 13 12  1  0
 14 29  1  0
 14 15  1  0
 15 30  1  0
 17 20  2  0
 18 17  1  0
 18 19  1  0
 21 22  2  0
 23 16  2  0
 28  6  1  0
 29  4  1  0
 30 16  1  0
  3 25  2  0
  4  5  2  0
  6 26  2  0
  8  9  2  0
 10 12  2  0
 15 27  2  0
 16 17  1  0
 20 21  1  0
 22 23  1  0
M  END
>  <rmsd>  (537) 
0.238181993

$$$$
MolPort-002-761-544 2809624 CSSS00132992731 MCULE-2379035670 PubChem-19584150 ZINC000002809624 ZINC02809624
     RDKit          3D

 31 35  0  0  0  0  0  0  0  0999 V2000
   15.9505   42.9265   14.6748 F   0  0  0  0  0  0  0  0  0  0  0  0
   17.0905   43.9893   13.0483 F   0  0  0  0  0  0  0  0  0  0  0  0
   14.9392   44.5252   13.4475 F   0  0  0  0  0  0  0  0  0  0  0  0
   15.8540   43.4890   13.4156 C   0  0  0  0  0  0  0  0  0  0  0  0
   15.4023   42.4518   12.4378 C   0  0  0  0  0  0  0  0  0  0  0  0
   15.8036   40.5571    9.4635 C   0  0  0  0  0  0  0  0  0  0  0  0
   15.3947   41.4348    8.3318 C   0  0  0  0  0  0  0  0  0  0  0  0
   14.3309   42.6859    6.5960 C   0  0  0  0  0  0  0  0  0  0  0  0
   13.8445   44.3485    4.7482 C   0  0  0  0  0  0  0  0  0  0  0  0
   16.0997   46.7798    3.5202 C   0  0  0  0  0  0  0  0  0  0  0  0
   16.1799   47.8589    4.5450 C   0  0  0  0  0  0  0  0  0  0  0  0
   16.9614   47.6771    5.6916 C   0  0  0  0  0  0  0  0  0  0  0  0
   17.0225   48.6808    6.6634 C   0  0  0  0  0  0  0  0  0  0  0  0
   16.2983   49.8649    6.4921 C   0  0  0  0  0  0  0  0  0  0  0  0
   15.5106   50.0442    5.3505 C   0  0  0  0  0  0  0  0  0  0  0  0
   15.4487   49.0405    4.3785 C   0  0  0  0  0  0  0  0  0  0  0  0
   13.7838   45.9168    3.2450 C   0  0  0  0  0  0  0  0  0  0  0  0
   12.9999   44.9271    3.8187 C   0  0  0  0  0  0  0  0  0  0  0  0
   14.2629   40.9253   11.4059 C   0  0  0  0  0  0  0  0  0  0  0  0
   14.2078   41.7488   12.5188 C   0  0  0  0  0  0  0  0  0  0  0  0
   13.1801   39.9869   10.9655 C   0  0  0  0  0  0  0  0  0  0  0  0
   13.6878   38.5570   11.0122 C   0  0  0  0  0  0  0  0  0  0  0  0
   12.7794   39.0682   12.1068 C   0  0  0  0  0  0  0  0  0  0  0  0
   16.1057   42.0884   11.3471 N   0  0  0  0  0  0  0  0  0  0  0  0
   15.4044   41.1570   10.7287 N   0  0  0  0  0  0  0  0  0  0  0  0
   16.1790   42.4113    7.8256 N   0  0  0  0  0  0  0  0  0  0  0  0
   15.5890   43.1062    6.8549 N   0  0  0  0  0  0  0  0  0  0  0  0
   13.4747   43.2670    5.6083 N   0  0  0  0  0  0  0  0  0  0  0  0
   15.0520   44.9369    4.7444 N   0  0  0  0  0  0  0  0  0  0  0  0
   14.9986   45.8805    3.8236 N   0  0  0  0  0  0  0  0  0  0  0  0
   13.8820   41.4055    7.5901 S   0  0  0  0  0  0  0  0  0  0  0  0
  4  1  1  0
  4  2  1  0
  4  3  1  0
  4  5  1  0
  6 25  1  0
  6  7  1  0
  7 31  1  0
  8 28  1  0
  8 31  1  0
 10 30  1  0
 10 11  1  0
 12 13  2  0
 14 15  2  0
 16 11  2  0
 18  9  1  0
 20  5  1  0
 21 19  1  0
 21 22  1  0
 22 23  1  0
 23 21  1  0
 25 24  1  0
 25 19  1  0
 26 27  1  0
 28  9  1  0
 30 29  1  0
 30 17  1  0
  5 24  2  0
  7 26  2  0
  8 27  2  0
  9 29  2  0
 11 12  1  0
 13 14  1  0
 15 16  1  0
 17 18  2  0
 19 20  2  0
M  END
>  <rmsd>  (538) 
0.238085389

$$$$
MolPort-006-464-632 ChemDiv-V009-4776 MCULE-5161161012 PubChem-45944114 ZINC000035806832 ZINC35806832
     RDKit          3D

 35 39  0  0  0  0  0  0  0  0999 V2000
   20.8704   38.3095   11.7596 C   0  0  0  0  0  0  0  0  0  0  0  0
   19.9235   39.3633   12.2948 C   0  0  0  0  0  0  0  0  0  0  0  0
   18.1843   40.3181   10.8469 C   0  0  0  0  0  0  0  0  0  0  0  0
   16.1061   40.0487   10.7107 C   0  0  0  0  0  0  0  0  0  0  0  0
   15.6762   41.5721    8.7333 C   0  0  0  0  0  0  0  0  0  0  0  0
   16.1149   42.7701    8.1524 C   0  0  0  0  0  0  0  0  0  0  0  0
   15.4017   43.3537    7.1034 C   0  0  0  0  0  0  0  0  0  0  0  0
   14.2422   42.7407    6.6084 C   0  0  0  0  0  0  0  0  0  0  0  0
   13.8074   41.5399    7.1772 C   0  0  0  0  0  0  0  0  0  0  0  0
   14.5247   40.9533    8.2239 C   0  0  0  0  0  0  0  0  0  0  0  0
   13.8703   44.4322    4.7215 C   0  0  0  0  0  0  0  0  0  0  0  0
   12.9016   45.0282    3.7835 C   0  0  0  0  0  0  0  0  0  0  0  0
   13.2981   46.0496    2.9098 C   0  0  0  0  0  0  0  0  0  0  0  0
   12.3785   46.6182    2.0242 C   0  0  0  0  0  0  0  0  0  0  0  0
   11.0468   46.1767    2.0024 C   0  0  0  0  0  0  0  0  0  0  0  0
   10.6509   45.1561    2.8764 C   0  0  0  0  0  0  0  0  0  0  0  0
   11.5718   44.5851    3.7597 C   0  0  0  0  0  0  0  0  0  0  0  0
   14.7362   39.6044   11.0298 C   0  0  0  0  0  0  0  0  0  0  0  0
   13.6611   40.5255   11.0650 C   0  0  0  0  0  0  0  0  0  0  0  0
   12.3654   40.1045   11.4199 C   0  0  0  0  0  0  0  0  0  0  0  0
   12.1927   38.7626   11.7481 C   0  0  0  0  0  0  0  0  0  0  0  0
   13.2238   37.8802   11.7383 C   0  0  0  0  0  0  0  0  0  0  0  0
   14.5176   38.2589   11.3923 C   0  0  0  0  0  0  0  0  0  0  0  0
   11.3606   36.7369   12.3753 C   0  0  0  0  0  0  0  0  0  0  0  0
   19.5194   40.2158   11.2345 O   0  0  0  0  0  0  0  0  0  0  0  0
   15.0444   44.8912    4.7842 O   0  0  0  0  0  0  0  0  0  0  0  0
   10.4574   47.6453    0.2902 O   0  0  0  0  0  0  0  0  0  0  0  0
    8.7925   46.3335    1.0873 O   0  0  0  0  0  0  0  0  0  0  0  0
   12.7665   36.6310   12.1095 O   0  0  0  0  0  0  0  0  0  0  0  0
   11.0350   38.1130   12.1291 O   0  0  0  0  0  0  0  0  0  0  0  0
   17.1780   39.6140   11.4075 N   0  0  0  0  0  0  0  0  0  0  0  0
   16.4635   40.9581    9.7695 N   0  0  0  0  0  0  0  0  0  0  0  0
   17.7715   41.1312    9.8599 N   0  0  0  0  0  0  0  0  0  0  0  0
   13.4792   43.3192    5.5411 N   0  0  0  0  0  0  0  0  0  0  0  0
   10.1010   46.7585    1.0950 N   0  0  0  0  0  0  0  0  0  0  0  0
  1  2  1  0
  2 25  1  0
  3 25  1  0
  3 31  1  0
  4 32  1  0
  4 18  1  0
  6  7  2  0
  8  9  2  0
  8 34  1  0
 10  5  2  0
 11 12  1  0
 13 14  2  0
 15 16  2  0
 15 35  1  0
 17 12  2  0
 19 20  2  0
 21 22  2  0
 21 30  1  0
 22 29  1  0
 23 18  2  0
 24 29  1  0
 24 30  1  0
 32 33  1  0
 32  5  1  0
 34 11  1  0
 35 28  1  0
  3 33  2  0
  4 31  2  0
  5  6  1  0
  7  8  1  0
  9 10  1  0
 11 26  2  0
 12 13  1  0
 14 15  1  0
 16 17  1  0
 18 19  1  0
 20 21  1  0
 22 23  1  0
 35 27  2  0
M  CHG  2  28  -1  35   1
M  END
>  <rmsd>  (539) 
0.238016143

$$$$
MolPort-006-579-684 ChemDiv-V018-1016 MCULE-8337918688 PubChem-46040648 ZINC000037545105 ZINC37545105
     RDKit          3D

 32 35  0  0  0  0  0  0  0  0999 V2000
    8.9073   37.9918   11.9649 C   0  0  0  0  0  0  0  0  0  0  0  0
    8.5991   38.7977   10.7484 C   0  0  0  0  0  0  0  0  0  0  0  0
    7.4531   39.6002   10.7472 C   0  0  0  0  0  0  0  0  0  0  0  0
    7.1297   40.3671    9.6248 C   0  0  0  0  0  0  0  0  0  0  0  0
    7.9518   40.3339    8.4962 C   0  0  0  0  0  0  0  0  0  0  0  0
    9.0977   39.5344    8.4897 C   0  0  0  0  0  0  0  0  0  0  0  0
    9.4281   38.7616    9.6097 C   0  0  0  0  0  0  0  0  0  0  0  0
   10.6789   37.9393    9.5768 C   0  0  0  0  0  0  0  0  0  0  0  0
   12.1859   38.8756   11.3576 C   0  0  0  0  0  0  0  0  0  0  0  0
   13.6981   38.8722   11.4928 C   0  0  0  0  0  0  0  0  0  0  0  0
   14.2839   40.0721   10.7479 C   0  0  0  0  0  0  0  0  0  0  0  0
   12.6006   39.4558    8.9668 C   0  0  0  0  0  0  0  0  0  0  0  0
   14.3826   41.1912    8.5135 C   0  0  0  0  0  0  0  0  0  0  0  0
   15.7105   41.5917    8.7371 C   0  0  0  0  0  0  0  0  0  0  0  0
   16.3120   42.5512    7.9206 C   0  0  0  0  0  0  0  0  0  0  0  0
   15.5910   43.1265    6.8729 C   0  0  0  0  0  0  0  0  0  0  0  0
   14.2625   42.7479    6.6362 C   0  0  0  0  0  0  0  0  0  0  0  0
   13.9095   44.3370    4.6573 C   0  0  0  0  0  0  0  0  0  0  0  0
   13.0008   44.7465    3.5496 C   0  0  0  0  0  0  0  0  0  0  0  0
   13.9035   43.4719    1.6166 C   0  0  0  0  0  0  0  0  0  0  0  0
   15.0359   44.2961    1.5036 C   0  0  0  0  0  0  0  0  0  0  0  0
   16.0072   44.0302    0.5345 C   0  0  0  0  0  0  0  0  0  0  0  0
   15.8532   42.9410   -0.3277 C   0  0  0  0  0  0  0  0  0  0  0  0
   14.7277   42.1187   -0.2215 C   0  0  0  0  0  0  0  0  0  0  0  0
   13.7559   42.3851    0.7476 C   0  0  0  0  0  0  0  0  0  0  0  0
   13.6694   41.7851    7.4583 C   0  0  0  0  0  0  0  0  0  0  0  0
   11.8303   38.7511    9.9517 N   0  0  0  0  0  0  0  0  0  0  0  0
   13.7608   40.2156    9.3786 N   0  0  0  0  0  0  0  0  0  0  0  0
   13.4910   43.3113    5.5669 N   0  0  0  0  0  0  0  0  0  0  0  0
   12.2877   39.3708    7.7474 O   0  0  0  0  0  0  0  0  0  0  0  0
   15.0338   44.8913    4.7701 O   0  0  0  0  0  0  0  0  0  0  0  0
   12.9125   43.7116    2.5750 O   0  0  0  0  0  0  0  0  0  0  0  0
  1  2  1  0
  3  4  2  0
  5  6  2  0
  7  2  2  0
  8  7  1  0
  8 27  1  0
  9 27  1  0
  9 10  1  0
 10 11  1  0
 11 28  1  0
 12 27  1  0
 14 15  2  0
 16 17  2  0
 17 29  1  0
 19 18  1  0
 19 32  1  0
 20 32  1  0
 21 22  2  0
 23 24  2  0
 25 20  2  0
 26 13  2  0
 28 12  1  0
 28 13  1  0
 29 18  1  0
  2  3  1  0
  4  5  1  0
  6  7  1  0
 12 30  2  0
 13 14  1  0
 15 16  1  0
 17 26  1  0
 18 31  2  0
 20 21  1  0
 22 23  1  0
 24 25  1  0
M  END
>  <rmsd>  (540) 
0.237993062

$$$$
MolPort-010-903-887 ChemDiv-M535-1289 MCULE-9768535667 PubChem-53146000 ZINC000065165980 ZINC65165980
     RDKit          3D

 27 29  0  0  0  0  0  0  0  0999 V2000
   19.2474   44.9086   12.4180 C   0  0  0  0  0  0  0  0  0  0  0  0
   19.5415   44.0047   11.2358 C   0  0  0  0  0  0  0  0  0  0  0  0
   18.3569   43.9739   10.2835 C   0  0  0  0  0  0  0  0  0  0  0  0
   17.2037   43.1516   10.8484 C   0  0  0  0  0  0  0  0  0  0  0  0
   18.3774   41.0408   11.5159 C   0  0  0  0  0  0  0  0  0  0  0  0
   16.5792   40.9538    9.7781 C   0  0  0  0  0  0  0  0  0  0  0  0
   15.7281   41.5994    8.7536 C   0  0  0  0  0  0  0  0  0  0  0  0
   14.3949   41.1846    8.5032 C   0  0  0  0  0  0  0  0  0  0  0  0
   13.6872   41.7681    7.4403 C   0  0  0  0  0  0  0  0  0  0  0  0
   14.2653   42.7530    6.6374 C   0  0  0  0  0  0  0  0  0  0  0  0
   13.9051   44.3397    4.6544 C   0  0  0  0  0  0  0  0  0  0  0  0
   12.9637   44.7980    3.5885 C   0  0  0  0  0  0  0  0  0  0  0  0
   12.5541   43.6230    2.7190 C   0  0  0  0  0  0  0  0  0  0  0  0
   13.5936   44.6009    2.2214 C   0  0  0  0  0  0  0  0  0  0  0  0
   15.5760   43.1654    6.8995 C   0  0  0  0  0  0  0  0  0  0  0  0
   16.2997   42.5892    7.9429 C   0  0  0  0  0  0  0  0  0  0  0  0
   13.7565   40.3765   10.7962 C   0  0  0  0  0  0  0  0  0  0  0  0
   12.8864   39.3388   11.5125 C   0  0  0  0  0  0  0  0  0  0  0  0
   13.4607   37.9179   11.4524 C   0  0  0  0  0  0  0  0  0  0  0  0
   14.2080   37.5846   10.1573 C   0  0  0  0  0  0  0  0  0  0  0  0
   13.3777   37.7941    8.8882 C   0  0  0  0  0  0  0  0  0  0  0  0
   12.8516   39.2231    8.7069 C   0  0  0  0  0  0  0  0  0  0  0  0
   17.4305   41.7239   10.6461 N   0  0  0  0  0  0  0  0  0  0  0  0
   13.4918   43.3129    5.5676 N   0  0  0  0  0  0  0  0  0  0  0  0
   13.7266   40.2193    9.3341 N   0  0  0  0  0  0  0  0  0  0  0  0
   16.5741   39.6957    9.8686 O   0  0  0  0  0  0  0  0  0  0  0  0
   15.0329   44.8920    4.7656 O   0  0  0  0  0  0  0  0  0  0  0  0
  1  2  1  0
  2  3  1  0
  3  4  1  0
  4 23  1  0
  5 23  1  0
  6  7  1  0
  8  9  2  0
  8 25  1  0
 10 24  1  0
 10 15  2  0
 12 11  1  0
 12 13  1  0
 13 14  1  0
 14 12  1  0
 16  7  2  0
 17 25  1  0
 17 18  1  0
 18 19  1  0
 19 20  1  0
 20 21  1  0
 21 22  1  0
 22 25  1  0
 23  6  1  0
 24 11  1  0
  6 26  2  0
  7  8  1  0
  9 10  1  0
 11 27  2  0
 15 16  1  0
M  END
>  <rmsd>  (541) 
0.237918735

$$$$
Molport-053-365-321
     RDKit          3D

 16 17  0  0  0  0  0  0  0  0999 V2000
   11.8545   45.5968    4.0653 C   0  0  0  0  0  0  0  0  0  0  0  0
   13.0375   44.7959    3.5263 C   0  0  1  0  0  0  0  0  0  0  0  0
   13.9250   44.3294    4.6464 C   0  0  0  0  0  0  0  0  0  0  0  0
   14.3270   42.6686    6.5230 C   0  0  0  0  0  0  0  0  0  0  0  0
   15.7117   42.5792    6.5041 C   0  0  0  0  0  0  0  0  0  0  0  0
   14.9866   41.5042    8.1909 C   0  0  0  0  0  0  0  0  0  0  0  0
   14.8934   40.7345    9.3487 C   0  0  0  0  0  0  0  0  0  0  0  0
   13.6107   40.4758    9.8605 C   0  0  0  0  0  0  0  0  0  0  0  0
   12.4705   40.9873    9.2100 C   0  0  0  0  0  0  0  0  0  0  0  0
   12.6240   41.7559    8.0470 C   0  0  0  0  0  0  0  0  0  0  0  0
   12.4558   43.4013    2.5754 Cl  0  0  0  0  0  0  0  0  0  0  0  0
   15.0384   44.8945    4.8192 O   0  0  0  0  0  0  0  0  0  0  0  0
   13.4816   43.3012    5.5478 N   0  0  0  0  0  0  0  0  0  0  0  0
   16.1316   41.8445    7.5622 N   0  0  0  0  0  0  0  0  0  0  0  0
   13.8832   41.9787    7.5862 N   0  0  0  0  0  0  0  0  0  0  0  0
   13.4131   39.4282   11.4446 Br  0  0  0  0  0  0  0  0  0  0  0  0
  2  1  1  1
  2 11  1  0
  2  3  1  0
  3 13  1  0
  5 14  1  0
  6  7  1  0
  8 16  1  0
  8  9  1  0
 10 15  1  0
 13  4  1  0
 15  4  1  0
 15  6  1  0
  3 12  2  0
  4  5  2  0
  6 14  2  0
  7  8  2  0
  9 10  2  0
M  END
>  <rmsd>  (542) 
0.237777606

$$$$
MolPort-016-648-860 CSSS00160367009 MCULE-7229641129 PubChem-56832365
     RDKit          3D

 25 27  0  0  0  0  0  0  0  0999 V2000
   15.0649   43.8799   13.5054 C   0  0  0  0  0  0  0  0  0  0  0  0
   12.4840   41.6725   12.4154 C   0  0  0  0  0  0  0  0  0  0  0  0
   13.5855   40.9120   12.0650 C   0  0  0  0  0  0  0  0  0  0  0  0
   14.6925   41.6465   12.4517 C   0  0  0  0  0  0  0  0  0  0  0  0
   16.1459   41.3277   12.2349 C   0  0  1  0  0  0  0  0  0  0  0  0
   16.4761   39.8532   12.5123 C   0  0  0  0  0  0  0  0  0  0  0  0
   17.9105   39.6713   12.9871 C   0  0  0  0  0  0  0  0  0  0  0  0
   18.9148   40.1493   11.9510 C   0  0  0  0  0  0  0  0  0  0  0  0
   18.9320   41.6673   11.9307 C   0  0  0  0  0  0  0  0  0  0  0  0
   18.0029   42.2368   10.8532 C   0  0  0  0  0  0  0  0  0  0  0  0
   16.3419   40.8471    9.8418 C   0  0  0  0  0  0  0  0  0  0  0  0
   15.6082   41.5036    8.7208 C   0  0  0  0  0  0  0  0  0  0  0  0
   14.3146   41.0840    8.3992 C   0  0  0  0  0  0  0  0  0  0  0  0
   13.6213   41.6898    7.3474 C   0  0  0  0  0  0  0  0  0  0  0  0
   14.2154   42.7170    6.6061 C   0  0  0  0  0  0  0  0  0  0  0  0
   13.9093   44.3714    4.6726 C   0  0  0  0  0  0  0  0  0  0  0  0
   12.9976   44.8665    3.6090 C   0  0  0  0  0  0  0  0  0  0  0  0
   15.5171   43.1309    6.9280 C   0  0  0  0  0  0  0  0  0  0  0  0
   16.2111   42.5260    7.9795 C   0  0  0  0  0  0  0  0  0  0  0  0
   14.2474   42.7945   12.9900 N   0  0  0  0  0  0  0  0  0  0  0  0
   12.9252   42.8182   12.9778 N   0  0  0  0  0  0  0  0  0  0  0  0
   16.5938   41.8102   10.9132 N   0  0  0  0  0  0  0  0  0  0  0  0
   13.4714   43.3140    5.5352 N   0  0  0  0  0  0  0  0  0  0  0  0
   13.5335   39.3380   11.2913 Cl  0  0  0  0  0  0  0  0  0  0  0  0
   15.0501   44.8894    4.7979 O   0  0  0  0  0  0  0  0  0  0  0  0
  1 20  1  0
  2  3  1  0
  3 24  1  0
  4 20  1  0
  5  4  1  6
  5  6  1  0
  5 22  1  0
  6  7  1  0
  7  8  1  0
  8  9  1  0
  9 10  1  0
 10 22  1  0
 11 22  1  0
 11 12  1  0
 13 14  2  0
 15 23  1  0
 15 18  2  0
 17 16  1  0
 19 12  2  0
 20 21  1  0
 23 16  1  0
  2 21  2  0
  3  4  2  0
 12 13  1  0
 14 15  1  0
 16 25  2  0
 18 19  1  0
M  END
>  <rmsd>  (543) 
0.237430453

$$$$
MolPort-010-903-917 ChemDiv-M535-1350 MCULE-3932823686 PubChem-53146030 ZINC000065166055 ZINC65166055
     RDKit          3D

 29 32  0  0  0  0  0  0  0  0999 V2000
   18.3544   40.7597   11.3504 C   0  0  0  0  0  0  0  0  0  0  0  0
   17.2093   42.8979   10.7781 C   0  0  0  0  0  0  0  0  0  0  0  0
   15.9053   43.2068   11.4348 C   0  0  0  0  0  0  0  0  0  0  0  0
   14.8984   43.9604   10.8755 C   0  0  0  0  0  0  0  0  0  0  0  0
   13.8960   43.9680   11.8299 C   0  0  0  0  0  0  0  0  0  0  0  0
   14.3611   43.2221   12.9002 C   0  0  0  0  0  0  0  0  0  0  0  0
   16.5145   40.7323    9.6494 C   0  0  0  0  0  0  0  0  0  0  0  0
   15.6930   41.4261    8.6361 C   0  0  0  0  0  0  0  0  0  0  0  0
   14.3433   41.0751    8.4010 C   0  0  0  0  0  0  0  0  0  0  0  0
   13.6381   41.7137    7.3694 C   0  0  0  0  0  0  0  0  0  0  0  0
   14.2435   42.6944    6.5807 C   0  0  0  0  0  0  0  0  0  0  0  0
   13.9088   44.3629    4.6622 C   0  0  0  0  0  0  0  0  0  0  0  0
   12.9788   44.8708    3.6089 C   0  0  0  0  0  0  0  0  0  0  0  0
   13.6136   44.7161    2.2385 C   0  0  0  0  0  0  0  0  0  0  0  0
   12.5603   43.7329    2.6955 C   0  0  0  0  0  0  0  0  0  0  0  0
   15.5759   43.0444    6.8279 C   0  0  0  0  0  0  0  0  0  0  0  0
   16.2939   42.4127    7.8435 C   0  0  0  0  0  0  0  0  0  0  0  0
   13.4658   40.4647   10.6447 C   0  0  0  0  0  0  0  0  0  0  0  0
   14.0007   39.3497   11.5321 C   0  0  0  0  0  0  0  0  0  0  0  0
   12.9648   38.2585   11.8128 C   0  0  0  0  0  0  0  0  0  0  0  0
   12.1120   37.8373   10.6128 C   0  0  0  0  0  0  0  0  0  0  0  0
   12.9009   37.7763    9.3136 C   0  0  0  0  0  0  0  0  0  0  0  0
   12.8105   39.1198    8.6013 C   0  0  0  0  0  0  0  0  0  0  0  0
   17.3487   41.4609   10.5693 N   0  0  0  0  0  0  0  0  0  0  0  0
   13.4760   43.3132    5.5396 N   0  0  0  0  0  0  0  0  0  0  0  0
   13.6595   40.1281    9.2352 N   0  0  0  0  0  0  0  0  0  0  0  0
   15.5660   42.7848   12.6252 O   0  0  0  0  0  0  0  0  0  0  0  0
   16.4901   39.4720    9.6944 O   0  0  0  0  0  0  0  0  0  0  0  0
   15.0435   44.8955    4.7975 O   0  0  0  0  0  0  0  0  0  0  0  0
  1 24  1  0
  2 24  1  0
  2  3  1  0
  3 27  1  0
  4  5  1  0
  6 27  1  0
  7  8  1  0
  8  9  2  0
  9 26  1  0
 10 11  2  0
 11 25  1  0
 13 12  1  0
 13 14  1  0
 14 15  1  0
 15 13  1  0
 16 17  2  0
 18 26  1  0
 18 19  1  0
 19 20  1  0
 20 21  1  0
 21 22  1  0
 22 23  1  0
 23 26  1  0
 24  7  1  0
 25 12  1  0
  3  4  2  0
  5  6  2  0
  7 28  2  0
  9 10  1  0
 11 16  1  0
 12 29  2  0
 17  8  1  0
M  END
>  <rmsd>  (544) 
0.23722811

$$$$
MolPort-010-903-894 ChemDiv-M535-1311 MCULE-6417432776 PubChem-53146007 ZINC000065165996 ZINC65165996
     RDKit          3D

 32 35  0  0  0  0  0  0  0  0999 V2000
   20.3823   33.0464   10.3807 C   0  0  0  0  0  0  0  0  0  0  0  0
   19.7063   33.6748    9.1799 C   0  0  0  0  0  0  0  0  0  0  0  0
   18.3364   35.7075    9.3931 C   0  0  0  0  0  0  0  0  0  0  0  0
   18.2737   37.1802    9.6225 C   0  0  0  0  0  0  0  0  0  0  0  0
   17.5298   37.4898   10.9242 C   0  0  0  0  0  0  0  0  0  0  0  0
   17.3361   38.9960   11.0828 C   0  0  0  0  0  0  0  0  0  0  0  0
   16.4740   38.7519    8.7091 C   0  0  0  0  0  0  0  0  0  0  0  0
   17.6988   37.8968    8.3885 C   0  0  0  0  0  0  0  0  0  0  0  0
   16.4401   40.9954    9.8622 C   0  0  0  0  0  0  0  0  0  0  0  0
   15.6257   41.6011    8.7898 C   0  0  0  0  0  0  0  0  0  0  0  0
   14.3381   41.1224    8.4461 C   0  0  0  0  0  0  0  0  0  0  0  0
   13.6586   41.7037    7.3649 C   0  0  0  0  0  0  0  0  0  0  0  0
   14.2215   42.7553    6.6385 C   0  0  0  0  0  0  0  0  0  0  0  0
   13.8979   44.3767    4.6778 C   0  0  0  0  0  0  0  0  0  0  0  0
   12.9804   44.8473    3.5967 C   0  0  0  0  0  0  0  0  0  0  0  0
   11.6679   45.3161    4.1985 C   0  0  0  0  0  0  0  0  0  0  0  0
   12.7012   46.3301    3.7639 C   0  0  0  0  0  0  0  0  0  0  0  0
   15.4792   43.2457    7.0083 C   0  0  0  0  0  0  0  0  0  0  0  0
   16.1740   42.6720    8.0735 C   0  0  0  0  0  0  0  0  0  0  0  0
   13.4043   40.3616   10.6235 C   0  0  0  0  0  0  0  0  0  0  0  0
   14.0078   39.2819   11.5106 C   0  0  0  0  0  0  0  0  0  0  0  0
   13.0714   38.0915   11.6462 C   0  0  0  0  0  0  0  0  0  0  0  0
   12.9605   37.3109   10.3461 C   0  0  0  0  0  0  0  0  0  0  0  0
   12.1630   38.0987    9.3209 C   0  0  0  0  0  0  0  0  0  0  0  0
   13.0823   38.9756    8.4764 C   0  0  0  0  0  0  0  0  0  0  0  0
   19.5792   35.0738    9.3856 O   0  0  0  0  0  0  0  0  0  0  0  0
   17.2754   35.0482    9.2108 O   0  0  0  0  0  0  0  0  0  0  0  0
   16.9227   41.7467   10.7531 O   0  0  0  0  0  0  0  0  0  0  0  0
   15.0463   44.8863    4.7826 O   0  0  0  0  0  0  0  0  0  0  0  0
   16.7328   39.5873    9.8835 N   0  0  0  0  0  0  0  0  0  0  0  0
   13.4787   43.3148    5.5470 N   0  0  0  0  0  0  0  0  0  0  0  0
   13.6809   40.0994    9.2096 N   0  0  0  0  0  0  0  0  0  0  0  0
  1  2  1  0
  2 26  1  0
  3 26  1  0
  4  3  1  0
  4  5  1  0
  5  6  1  0
  6 30  1  0
  7 30  1  0
  7  8  1  0
  8  4  1  0
  9 10  1  0
 10 11  2  0
 11 32  1  0
 12 13  2  0
 13 31  1  0
 15 14  1  0
 15 16  1  0
 16 17  1  0
 17 15  1  0
 18 19  2  0
 20 32  1  0
 20 21  1  0
 21 22  1  0
 22 23  1  0
 23 24  1  0
 24 25  1  0
 25 32  1  0
 30  9  1  0
 31 14  1  0
  3 27  2  0
  9 28  2  0
 11 12  1  0
 13 18  1  0
 14 29  2  0
 19 10  1  0
M  END
>  <rmsd>  (545) 
0.236852244

$$$$
MolPort-029-888-758 CSSS00160083815 MCULE-7451351117 PubChem-72842500
     RDKit          3D

 27 29  0  0  0  0  0  0  0  0999 V2000
   18.2805   45.3265   -0.9890 N   0  0  0  0  0  0  0  0  0  0  0  0
   14.4085   44.4040    1.0906 N   0  0  0  0  0  0  0  0  0  0  0  0
   13.0177   44.8410    3.6512 N   0  0  0  0  0  0  0  0  0  0  0  0
   13.4736   43.3188    5.5347 N   0  0  0  0  0  0  0  0  0  0  0  0
   16.9755   45.6838   -1.4355 C   0  0  0  0  0  0  0  0  0  0  0  0
   15.7772   44.9340   -0.9588 C   0  0  1  0  0  0  0  0  0  0  0  0
   15.8840   43.4496   -1.3215 C   0  0  0  0  0  0  0  0  0  0  0  0
   14.9809   42.5648   -0.4572 C   0  0  0  0  0  0  0  0  0  0  0  0
   13.8643   43.3855    0.1821 C   0  0  0  0  0  0  0  0  0  0  0  0
   13.3542   45.3843    1.3009 C   0  0  0  0  0  0  0  0  0  0  0  0
   13.3918   45.9021    2.7293 C   0  0  0  0  0  0  0  0  0  0  0  0
   13.9050   44.3743    4.6671 C   0  0  0  0  0  0  0  0  0  0  0  0
   14.2107   42.7439    6.6224 C   0  0  0  0  0  0  0  0  0  0  0  0
   13.6210   41.7146    7.3644 C   0  0  0  0  0  0  0  0  0  0  0  0
   14.2973   41.1300    8.4403 C   0  0  0  0  0  0  0  0  0  0  0  0
   14.2473   39.4866   10.3021 C   0  0  0  0  0  0  0  0  0  0  0  0
   14.0646   40.3852   11.5173 C   0  0  0  0  0  0  0  0  0  0  0  0
   13.2527   39.6015   12.5285 C   0  0  0  0  0  0  0  0  0  0  0  0
   12.5673   38.5099   11.7429 C   0  0  0  0  0  0  0  0  0  0  0  0
   13.5081   38.1970   10.6027 C   0  0  0  0  0  0  0  0  0  0  0  0
   15.5832   41.5831    8.7745 C   0  0  0  0  0  0  0  0  0  0  0  0
   16.1796   42.6100    8.0395 C   0  0  0  0  0  0  0  0  0  0  0  0
   15.4955   43.1890    6.9675 C   0  0  0  0  0  0  0  0  0  0  0  0
   15.5798   45.1236    0.5500 C   0  0  0  0  0  0  0  0  0  0  0  0
   16.8304   46.6470   -2.2319 O   0  0  0  0  0  0  0  0  0  0  0  0
   15.0503   44.8874    4.7903 O   0  0  0  0  0  0  0  0  0  0  0  0
   13.6708   40.1035    9.1555 O   0  0  0  0  0  0  0  0  0  0  0  0
  1  5  1  0
  3 12  1  0
  4 13  1  0
  6  5  1  1
  6  7  1  0
  7  8  1  0
  8  9  1  0
  9  2  1  0
 10  2  1  0
 10 11  1  0
 11  3  1  0
 12  4  1  0
 14 15  2  0
 15 27  1  0
 16 27  1  0
 16 17  1  0
 17 18  1  0
 18 19  1  0
 19 20  1  0
 20 16  1  0
 21 22  2  0
 23 13  2  0
 24  2  1  0
 24  6  1  0
  5 25  2  0
 12 26  2  0
 13 14  1  0
 15 21  1  0
 22 23  1  0
M  END
>  <rmsd>  (546) 
0.236687362

$$$$
Molport-047-879-569 PubChem-165923563
     RDKit          3D

 24 25  0  0  0  0  0  0  0  0999 V2000
   11.7572   43.6554   11.0149 C   0  0  0  0  0  0  0  0  0  0  0  0
   12.4978   41.3254   10.7444 C   0  0  0  0  0  0  0  0  0  0  0  0
   13.6256   40.3539   10.6165 C   0  0  2  0  0  0  0  0  0  0  0  0
   13.8384   39.9582    9.1604 C   0  0  0  0  0  0  0  0  0  0  0  0
   14.4507   41.0716    8.3752 C   0  0  0  0  0  0  0  0  0  0  0  0
   13.7199   41.6759    7.3472 C   0  0  0  0  0  0  0  0  0  0  0  0
   14.2762   42.7181    6.5979 C   0  0  0  0  0  0  0  0  0  0  0  0
   15.5802   43.1499    6.8857 C   0  0  0  0  0  0  0  0  0  0  0  0
   16.3162   42.5446    7.9081 C   0  0  0  0  0  0  0  0  0  0  0  0
   15.7528   41.5048    8.6518 C   0  0  0  0  0  0  0  0  0  0  0  0
   13.8845   44.3841    4.6885 C   0  0  0  0  0  0  0  0  0  0  0  0
   13.2625   45.9389    2.8677 C   0  0  0  0  0  0  0  0  0  0  0  0
   13.1011   47.2346    3.5880 C   0  0  0  0  0  0  0  0  0  0  0  0
   11.8217   47.7204    3.8809 C   0  0  0  0  0  0  0  0  0  0  0  0
   11.6722   48.9285    4.5690 C   0  0  0  0  0  0  0  0  0  0  0  0
   12.8015   49.6506    4.9671 C   0  0  0  0  0  0  0  0  0  0  0  0
   14.0804   49.1646    4.6780 C   0  0  0  0  0  0  0  0  0  0  0  0
   14.2300   47.9566    3.9898 C   0  0  0  0  0  0  0  0  0  0  0  0
   12.7835   42.6795   10.9193 O   0  0  0  0  0  0  0  0  0  0  0  0
   11.3049   40.9233   10.6594 O   0  0  0  0  0  0  0  0  0  0  0  0
   15.0335   44.8976    4.7749 O   0  0  0  0  0  0  0  0  0  0  0  0
   12.9750   44.8475    3.7352 O   0  0  0  0  0  0  0  0  0  0  0  0
   13.4901   43.3148    5.5572 N   0  0  0  0  0  0  0  0  0  0  0  0
   13.3624   39.2240   11.3690 F   0  0  0  0  0  0  0  0  0  0  0  0
  1 19  1  0
  2 19  1  0
  3  2  1  0
  3  4  1  0
  3 24  1  1
  4  5  1  0
  6  7  2  0
  7 23  1  0
  8  9  2  0
 10  5  2  0
 11 22  1  0
 12 22  1  0
 12 13  1  0
 14 15  2  0
 16 17  2  0
 18 13  2  0
 23 11  1  0
  2 20  2  0
  5  6  1  0
  7  8  1  0
  9 10  1  0
 11 21  2  0
 13 14  1  0
 15 16  1  0
 17 18  1  0
M  END
>  <rmsd>  (547) 
0.236623868

$$$$
MolPort-007-919-876 3582266 CHEMBL1320868 ChemDiv-K415-0151 PubChem-5868600 ZINC000003582266 ZINC03582266
     RDKit          3D

 34 37  0  0  0  0  0  0  0  0999 V2000
    9.7264   39.2980   12.1902 C   0  0  0  0  0  0  0  0  0  0  0  0
   12.1208   38.8325   11.7802 C   0  0  0  0  0  0  0  0  0  0  0  0
   12.3889   40.1642   11.4225 C   0  0  0  0  0  0  0  0  0  0  0  0
   13.6808   40.5474   11.0506 C   0  0  0  0  0  0  0  0  0  0  0  0
   14.7177   39.6046   11.0220 C   0  0  0  0  0  0  0  0  0  0  0  0
   14.4526   38.2816   11.4010 C   0  0  0  0  0  0  0  0  0  0  0  0
   13.1603   37.8972   11.7724 C   0  0  0  0  0  0  0  0  0  0  0  0
   16.0945   40.0035   10.6739 C   0  0  0  0  0  0  0  0  0  0  0  0
   17.2271   39.6079   11.3597 C   0  0  0  0  0  0  0  0  0  0  0  0
   15.7040   41.5147    8.6877 C   0  0  0  0  0  0  0  0  0  0  0  0
   14.5436   40.9098    8.1818 C   0  0  0  0  0  0  0  0  0  0  0  0
   13.8214   41.5119    7.1478 C   0  0  0  0  0  0  0  0  0  0  0  0
   14.2590   42.7164    6.5884 C   0  0  0  0  0  0  0  0  0  0  0  0
   13.8663   44.4350    4.7340 C   0  0  0  0  0  0  0  0  0  0  0  0
   12.8817   45.0110    3.8135 C   0  0  0  0  0  0  0  0  0  0  0  0
   13.1840   46.0302    3.0118 C   0  0  0  0  0  0  0  0  0  0  0  0
   12.2167   46.6263    2.0807 C   0  0  0  0  0  0  0  0  0  0  0  0
   10.9029   46.1493    1.9726 C   0  0  0  0  0  0  0  0  0  0  0  0
   10.0115   46.7467    1.0788 C   0  0  0  0  0  0  0  0  0  0  0  0
   10.4182   47.8306    0.2836 C   0  0  0  0  0  0  0  0  0  0  0  0
    8.2043   47.9893   -0.8130 C   0  0  0  0  0  0  0  0  0  0  0  0
   11.7323   48.3109    0.3883 C   0  0  0  0  0  0  0  0  0  0  0  0
   13.4626   49.8895   -0.4137 C   0  0  0  0  0  0  0  0  0  0  0  0
   12.6235   47.7022    1.2884 C   0  0  0  0  0  0  0  0  0  0  0  0
   15.4296   43.3143    7.0783 C   0  0  0  0  0  0  0  0  0  0  0  0
   16.1493   42.7145    8.1155 C   0  0  0  0  0  0  0  0  0  0  0  0
   10.8392   38.4152   12.1493 O   0  0  0  0  0  0  0  0  0  0  0  0
   15.0404   44.8959    4.7834 O   0  0  0  0  0  0  0  0  0  0  0  0
    9.5373   48.4414   -0.6161 O   0  0  0  0  0  0  0  0  0  0  0  0
   12.1333   49.3857   -0.4125 O   0  0  0  0  0  0  0  0  0  0  0  0
   18.2636   40.2723   10.8052 N   0  0  0  0  0  0  0  0  0  0  0  0
   17.7899   41.0319    9.8295 N   0  0  0  0  0  0  0  0  0  0  0  0
   16.4785   40.8885    9.7255 N   0  0  0  0  0  0  0  0  0  0  0  0
   13.4815   43.3176    5.5444 N   0  0  0  0  0  0  0  0  0  0  0  0
  1 27  1  0
  2 27  1  0
  3  4  2  0
  5  6  2  0
  5  8  1  0
  7  2  2  0
  9 31  1  0
 11 12  2  0
 13 34  1  0
 13 25  2  0
 14 15  1  0
 16 17  1  0
 18 19  2  0
 20 29  1  0
 20 22  2  0
 21 29  1  0
 22 30  1  0
 23 30  1  0
 24 17  2  0
 26 10  2  0
 33 32  1  0
 33 10  1  0
 33  8  1  0
 34 14  1  0
  2  3  1  0
  4  5  1  0
  6  7  1  0
  8  9  2  0
 10 11  1  0
 12 13  1  0
 14 28  2  0
 15 16  2  0
 17 18  1  0
 19 20  1  0
 22 24  1  0
 25 26  1  0
 31 32  2  0
M  END
>  <rmsd>  (548) 
0.236203745

$$$$
MolPort-007-710-792 ChemDiv-D481-2666 MCULE-2167951705 PubChem-46269945 ZINC000033019594 ZINC33019594
     RDKit          3D

 32 35  0  0  0  0  0  0  0  0999 V2000
   12.9197   44.9102    3.6946 C   0  0  0  0  0  0  0  0  0  0  0  0
   13.8838   44.3911    4.6999 C   0  0  0  0  0  0  0  0  0  0  0  0
   14.2514   42.7524    6.6355 C   0  0  0  0  0  0  0  0  0  0  0  0
   15.4692   43.3104    7.0529 C   0  0  0  0  0  0  0  0  0  0  0  0
   16.1823   42.7377    8.1098 C   0  0  0  0  0  0  0  0  0  0  0  0
   15.6876   41.6048    8.7703 C   0  0  0  0  0  0  0  0  0  0  0  0
   14.4828   41.0378    8.3342 C   0  0  0  0  0  0  0  0  0  0  0  0
   13.7672   41.6112    7.2799 C   0  0  0  0  0  0  0  0  0  0  0  0
   16.4755   40.9983    9.8661 C   0  0  0  0  0  0  0  0  0  0  0  0
   17.1267   39.8331   11.5104 C   0  0  0  0  0  0  0  0  0  0  0  0
   16.6125   40.0708   14.0645 C   0  0  0  0  0  0  0  0  0  0  0  0
   17.7748   40.6918   14.7593 C   0  0  0  0  0  0  0  0  0  0  0  0
   18.9170   41.1051   17.0166 C   0  0  0  0  0  0  0  0  0  0  0  0
   20.0061   41.8157   16.4853 C   0  0  0  0  0  0  0  0  0  0  0  0
   21.0037   42.3148   17.3281 C   0  0  0  0  0  0  0  0  0  0  0  0
   20.9209   42.1055   18.7078 C   0  0  0  0  0  0  0  0  0  0  0  0
   19.8410   41.3976   19.2432 C   0  0  0  0  0  0  0  0  0  0  0  0
   18.8433   40.8996   18.3990 C   0  0  0  0  0  0  0  0  0  0  0  0
   14.6917   39.6390   11.0248 C   0  0  0  0  0  0  0  0  0  0  0  0
   14.4123   38.2654   11.0499 C   0  0  0  0  0  0  0  0  0  0  0  0
   13.1173   37.8152   11.3225 C   0  0  0  0  0  0  0  0  0  0  0  0
   12.0974   38.7362   11.5781 C   0  0  0  0  0  0  0  0  0  0  0  0
   12.3721   40.1070   11.5642 C   0  0  0  0  0  0  0  0  0  0  0  0
   13.6665   40.5576   11.2912 C   0  0  0  0  0  0  0  0  0  0  0  0
   15.0379   44.8936    4.7682 O   0  0  0  0  0  0  0  0  0  0  0  0
   18.6370   41.3263   14.0926 O   0  0  0  0  0  0  0  0  0  0  0  0
   13.4878   43.3149    5.5599 N   0  0  0  0  0  0  0  0  0  0  0  0
   17.7894   41.2491   10.0437 N   0  0  0  0  0  0  0  0  0  0  0  0
   18.1961   40.5221   11.0739 N   0  0  0  0  0  0  0  0  0  0  0  0
   17.8767   40.5742   16.1842 N   0  0  0  0  0  0  0  0  0  0  0  0
   16.0278   40.1009   10.7763 N   0  0  0  0  0  0  0  0  0  0  0  0
   17.1677   38.7521   12.9413 S   0  0  0  0  0  0  0  0  0  0  0  0
  1  2  1  0
  2 27  1  0
  4  5  2  0
  6  7  2  0
  6  9  1  0
  8  3  2  0
 10 32  1  0
 10 31  1  0
 11 32  1  0
 11 12  1  0
 12 30  1  0
 14 15  2  0
 16 17  2  0
 18 13  2  0
 20 21  2  0
 22 23  2  0
 24 19  2  0
 27  3  1  0
 28 29  1  0
 30 13  1  0
 31 19  1  0
 31  9  1  0
  2 25  2  0
  3  4  1  0
  5  6  1  0
  7  8  1  0
  9 28  2  0
 10 29  2  0
 12 26  2  0
 13 14  1  0
 15 16  1  0
 17 18  1  0
 19 20  1  0
 21 22  1  0
 23 24  1  0
M  END
>  <rmsd>  (549) 
0.236140847

$$$$
MolPort-004-903-011 27824740 CSSS03437743028 MCULE-8933295682 PubChem-35203428 ZINC000027824740 ZINC27824740
     RDKit          3D

 24 26  0  0  0  0  0  0  0  0999 V2000
   13.1209   44.6551    3.4257 C   0  0  0  0  0  0  0  0  0  0  0  0
   13.9521   44.2965    4.6038 C   0  0  0  0  0  0  0  0  0  0  0  0
   14.2508   42.7390    6.5886 C   0  0  0  0  0  0  0  0  0  0  0  0
   15.5438   42.2136    6.3772 C   0  0  0  0  0  0  0  0  0  0  0  0
   16.1710   42.1691    5.0258 C   0  0  0  0  0  0  0  0  0  0  0  0
   16.2425   41.6442    7.4447 C   0  0  0  0  0  0  0  0  0  0  0  0
   15.6737   41.5798    8.7187 C   0  0  0  0  0  0  0  0  0  0  0  0
   16.4688   40.9633    9.8191 C   0  0  0  0  0  0  0  0  0  0  0  0
   14.3717   42.0726    8.9275 C   0  0  0  0  0  0  0  0  0  0  0  0
   13.6724   42.6400    7.8571 C   0  0  0  0  0  0  0  0  0  0  0  0
   13.2066   38.1746   11.1107 C   0  0  0  0  0  0  0  0  0  0  0  0
   12.8395   36.9002   10.6907 C   0  0  0  0  0  0  0  0  0  0  0  0
   12.3016   36.7848    9.3931 C   0  0  0  0  0  0  0  0  0  0  0  0
   12.1504   37.9262    8.5691 C   0  0  0  0  0  0  0  0  0  0  0  0
   12.5343   39.2008    9.0298 C   0  0  0  0  0  0  0  0  0  0  0  0
   13.0600   39.2696   10.3175 C   0  0  0  0  0  0  0  0  0  0  0  0
   15.0476   44.8880    4.7946 O   0  0  0  0  0  0  0  0  0  0  0  0
   12.1877   42.5268   10.4205 O   0  0  0  0  0  0  0  0  0  0  0  0
   14.3695   42.7797   11.4968 O   0  0  0  0  0  0  0  0  0  0  0  0
   13.4733   43.3202    5.5335 N   0  0  0  0  0  0  0  0  0  0  0  0
   13.5083   40.3220   11.0121 N   0  0  0  0  0  0  0  0  0  0  0  0
   13.9152   39.8730   12.1946 N   0  0  0  0  0  0  0  0  0  0  0  0
   13.7418   38.5543   12.2861 N   0  0  0  0  0  0  0  0  0  0  0  0
   13.5833   41.9740   10.5012 S   0  0  0  0  0  0  0  0  0  0  0  0
  1  2  1  0
  2 20  1  0
  4  6  2  0
  5  4  1  0
  7  9  2  0
  8  7  1  0
 10  3  2  0
 11 23  1  0
 12 13  2  0
 14 15  2  0
 16 21  1  0
 16 11  2  0
 20  3  1  0
 21 22  1  0
 24  9  1  0
 24 21  1  0
  2 17  2  0
  3  4  1  0
  6  7  1  0
  9 10  1  0
 11 12  1  0
 13 14  1  0
 15 16  1  0
 22 23  2  0
 24 18  2  0
 24 19  2  0
M  END
>  <rmsd>  (550) 
0.236139044

$$$$
MolPort-010-852-351 41108820 ChemDiv-G952-3207 MCULE-3308973110 PubChem-52103595 ZINC000041108820
     RDKit          3D

 26 29  0  0  0  0  0  0  0  0999 V2000
   14.6033   41.6213    8.4799 N   0  0  0  0  0  0  0  0  0  0  0  0
   13.7356   41.8495    7.5084 N   0  0  0  0  0  0  0  0  0  0  0  0
   16.4689   42.0753    9.5666 N   0  0  0  0  0  0  0  0  0  0  0  0
   15.8168   41.1141   10.2338 N   0  0  0  0  0  0  0  0  0  0  0  0
   13.4942   43.3139    5.5700 N   0  0  0  0  0  0  0  0  0  0  0  0
   14.2238   42.8399    6.7086 C   0  0  0  0  0  0  0  0  0  0  0  0
   15.6876   42.3460    8.5070 C   0  0  0  0  0  0  0  0  0  0  0  0
   14.6684   40.8381    9.5562 C   0  0  0  0  0  0  0  0  0  0  0  0
   13.6164   39.8686    9.9830 C   0  0  0  0  0  0  0  0  0  0  0  0
   14.2097   38.4587   10.1474 C   0  0  0  0  0  0  0  0  0  0  0  0
   14.5539   38.1604   11.6063 C   0  0  0  0  0  0  0  0  0  0  0  0
   13.3089   38.2337   12.5013 C   0  0  0  0  0  0  0  0  0  0  0  0
   12.2593   39.2433   12.0151 C   0  0  0  0  0  0  0  0  0  0  0  0
   12.9030   40.3884   11.2393 C   0  0  0  0  0  0  0  0  0  0  0  0
   13.9146   44.3282    4.6466 C   0  0  0  0  0  0  0  0  0  0  0  0
   13.0183   44.7312    3.5480 C   0  0  0  0  0  0  0  0  0  0  0  0
   11.7678   44.1172    3.3940 C   0  0  0  0  0  0  0  0  0  0  0  0
   10.9148   44.5017    2.3556 C   0  0  0  0  0  0  0  0  0  0  0  0
   11.3022   45.5074    1.4555 C   0  0  0  0  0  0  0  0  0  0  0  0
   12.5501   46.1198    1.6084 C   0  0  0  0  0  0  0  0  0  0  0  0
   13.4036   45.7348    2.6470 C   0  0  0  0  0  0  0  0  0  0  0  0
    9.2038   45.3238    0.1372 C   0  0  0  0  0  0  0  0  0  0  0  0
    9.3902   43.9968   -0.5759 C   0  0  0  0  0  0  0  0  0  0  0  0
   15.7542   43.4479    7.2484 S   0  0  0  0  0  0  0  0  0  0  0  0
   15.0447   44.8749    4.7634 O   0  0  0  0  0  0  0  0  0  0  0  0
   10.4697   45.9172    0.4071 O   0  0  0  0  0  0  0  0  0  0  0  0
  1  2  1  0
  3  4  1  0
  5 15  1  0
  6 24  1  0
  6  5  1  0
  7 24  1  0
  7  1  1  0
  8  1  1  0
  9  8  1  0
  9 10  1  0
 10 11  1  0
 11 12  1  0
 12 13  1  0
 13 14  1  0
 14  9  1  0
 15 16  1  0
 17 18  2  0
 19 20  2  0
 19 26  1  0
 21 16  2  0
 22 26  1  0
 22 23  1  0
  6  2  2  0
  7  3  2  0
  8  4  2  0
 15 25  2  0
 16 17  1  0
 18 19  1  0
 20 21  1  0
M  END
>  <rmsd>  (551) 
0.23595506

$$$$
MolPort-006-464-510 ChemDiv-V018-5277 MCULE-9359605537 PubChem-1029278 ZINC000000696954 ZINC00696954
     RDKit          3D

 28 31  0  0  0  0  0  0  0  0999 V2000
   21.9190   40.0082   11.0480 C   0  0  0  0  0  0  0  0  0  0  0  0
   20.6142   40.4341   10.4090 C   0  0  0  0  0  0  0  0  0  0  0  0
   18.2105   40.0350   10.7046 C   0  0  0  0  0  0  0  0  0  0  0  0
   16.1182   39.9548   10.6359 C   0  0  0  0  0  0  0  0  0  0  0  0
   14.7200   39.6513   10.9922 C   0  0  0  0  0  0  0  0  0  0  0  0
   14.3021   38.3145   10.9760 C   0  0  0  0  0  0  0  0  0  0  0  0
   12.9887   37.9787   11.3136 C   0  0  0  0  0  0  0  0  0  0  0  0
   12.0852   38.9776   11.6811 C   0  0  0  0  0  0  0  0  0  0  0  0
   12.4969   40.3120   11.7211 C   0  0  0  0  0  0  0  0  0  0  0  0
   13.8099   40.6573   11.3851 C   0  0  0  0  0  0  0  0  0  0  0  0
   14.2162   42.0891   11.4914 C   0  0  0  0  0  0  0  0  0  0  0  0
   15.7447   41.4359    8.6243 C   0  0  0  0  0  0  0  0  0  0  0  0
   14.4673   40.9725    8.2758 C   0  0  0  0  0  0  0  0  0  0  0  0
   13.7348   41.6004    7.2656 C   0  0  0  0  0  0  0  0  0  0  0  0
   14.2710   42.6924    6.5775 C   0  0  0  0  0  0  0  0  0  0  0  0
   13.8824   44.4034    4.7036 C   0  0  0  0  0  0  0  0  0  0  0  0
   12.9249   44.9712    3.6997 C   0  0  0  0  0  0  0  0  0  0  0  0
   12.2423   43.8725    2.9053 C   0  0  0  0  0  0  0  0  0  0  0  0
   10.9165   44.2298    3.5490 C   0  0  0  0  0  0  0  0  0  0  0  0
   11.5997   45.3227    4.3488 C   0  0  0  0  0  0  0  0  0  0  0  0
   15.5526   43.1517    6.9134 C   0  0  0  0  0  0  0  0  0  0  0  0
   16.2846   42.5252    7.9255 C   0  0  0  0  0  0  0  0  0  0  0  0
   19.5324   39.8138   11.0858 O   0  0  0  0  0  0  0  0  0  0  0  0
   15.0367   44.8991    4.7859 O   0  0  0  0  0  0  0  0  0  0  0  0
   17.8446   40.8365    9.6847 N   0  0  0  0  0  0  0  0  0  0  0  0
   16.5250   40.7803    9.6410 N   0  0  0  0  0  0  0  0  0  0  0  0
   17.1633   39.4576   11.3278 N   0  0  0  0  0  0  0  0  0  0  0  0
   13.4862   43.3127    5.5505 N   0  0  0  0  0  0  0  0  0  0  0  0
  1  2  1  0
  2 23  1  0
  3 23  1  0
  3 27  1  0
  4  5  1  0
  6  7  2  0
  8  9  2  0
 10  5  2  0
 11 10  1  0
 13 14  2  0
 15 28  1  0
 15 21  2  0
 17 16  1  0
 17 18  1  0
 18 19  1  0
 19 20  1  0
 20 17  1  0
 22 12  2  0
 26 25  1  0
 26  4  1  0
 26 12  1  0
 28 16  1  0
  3 25  2  0
  4 27  2  0
  5  6  1  0
  7  8  1  0
  9 10  1  0
 12 13  1  0
 14 15  1  0
 16 24  2  0
 21 22  1  0
M  END
>  <rmsd>  (552) 
0.235876486

$$$$
MolPort-008-284-647 57823172 MCULE-2288730744 PubChem-46966760 ZINC000057823172
     RDKit          3D

 27 29  0  0  0  0  0  0  0  0999 V2000
   15.1850   37.8886    9.9374 C   0  0  0  0  0  0  0  0  0  0  0  0
   14.2076   38.6609   10.7520 C   0  0  0  0  0  0  0  0  0  0  0  0
   11.0072   39.1389   12.1951 C   0  0  0  0  0  0  0  0  0  0  0  0
   13.2431   40.1992   12.0029 C   0  0  0  0  0  0  0  0  0  0  0  0
   14.4294   39.8691   11.3795 C   0  0  0  0  0  0  0  0  0  0  0  0
   15.7267   41.5820    8.6944 C   0  0  0  0  0  0  0  0  0  0  0  0
   14.4342   42.0746    8.9131 C   0  0  0  0  0  0  0  0  0  0  0  0
   13.7104   42.6418    7.8628 C   0  0  0  0  0  0  0  0  0  0  0  0
   14.2695   42.7372    6.5844 C   0  0  0  0  0  0  0  0  0  0  0  0
   13.9396   44.3041    4.6124 C   0  0  0  0  0  0  0  0  0  0  0  0
   13.0696   44.6966    3.4510 C   0  0  0  0  0  0  0  0  0  0  0  0
   12.8264   46.9755    4.1890 C   0  0  0  0  0  0  0  0  0  0  0  0
   12.0722   47.5435    5.3665 C   0  0  0  0  0  0  0  0  0  0  0  0
   11.3848   46.3525    5.9754 C   0  0  0  0  0  0  0  0  0  0  0  0
   11.2137   45.3770    4.8301 C   0  0  0  0  0  0  0  0  0  0  0  0
   15.5610   42.2126    6.3540 C   0  0  0  0  0  0  0  0  0  0  0  0
   16.1673   42.1684    4.9931 C   0  0  0  0  0  0  0  0  0  0  0  0
   16.2776   41.6446    7.4122 C   0  0  0  0  0  0  0  0  0  0  0  0
   12.9437   38.2667   10.9814 N   0  0  0  0  0  0  0  0  0  0  0  0
   12.3808   39.1997   11.7330 N   0  0  0  0  0  0  0  0  0  0  0  0
   16.4897   40.9954    9.7521 N   0  0  0  0  0  0  0  0  0  0  0  0
   13.4772   43.3175    5.5405 N   0  0  0  0  0  0  0  0  0  0  0  0
   12.1176   45.7758    3.7516 N   0  0  0  0  0  0  0  0  0  0  0  0
   15.9054   40.8194   11.3743 S   0  0  0  0  0  0  0  0  0  0  0  0
   15.6450   42.1796   11.9582 O   0  0  0  0  0  0  0  0  0  0  0  0
   16.9432   40.1198   12.2051 O   0  0  0  0  0  0  0  0  0  0  0  0
   15.0419   44.8883    4.7899 O   0  0  0  0  0  0  0  0  0  0  0  0
  1  2  1  0
  3 20  1  0
  5  2  1  0
  7  8  2  0
  9 22  1  0
  9 16  2  0
 11 10  1  0
 11 23  1  0
 12 23  1  0
 12 13  1  0
 13 14  1  0
 14 15  1  0
 15 23  1  0
 17 16  1  0
 18  6  2  0
 20 19  1  0
 20  4  1  0
 21  6  1  0
 22 10  1  0
 24  5  1  0
 24 21  1  0
  2 19  2  0
  4  5  2  0
  6  7  1  0
  8  9  1  0
 10 27  2  0
 16 18  1  0
 24 25  2  0
 24 26  2  0
M  END
>  <rmsd>  (553) 
0.235649794

$$$$
MolPort-002-782-092 36616315 CSSS00133001696 MCULE-1810885400 PubChem-44822874 ZINC000036616315 ZINC36616315
     RDKit          3D

 26 29  0  0  0  0  0  0  0  0999 V2000
   12.8586   39.4831   12.0795 C   0  0  0  0  0  0  0  0  0  0  0  0
   13.8691   39.2138   10.9848 C   0  0  0  0  0  0  0  0  0  0  0  0
   13.9038   40.3886   10.0311 C   0  0  0  0  0  0  0  0  0  0  0  0
   14.9067   40.1133    8.9272 C   0  0  0  0  0  0  0  0  0  0  0  0
   14.3434   42.6401    6.5017 C   0  0  0  0  0  0  0  0  0  0  0  0
   13.8690   44.4182    4.7342 C   0  0  0  0  0  0  0  0  0  0  0  0
   12.8814   44.9951    3.7994 C   0  0  0  0  0  0  0  0  0  0  0  0
   13.1645   46.0828    2.9657 C   0  0  0  0  0  0  0  0  0  0  0  0
   14.2959   46.8608    2.7702 C   0  0  0  0  0  0  0  0  0  0  0  0
   12.0567   48.4301    0.4466 C   0  0  0  0  0  0  0  0  0  0  0  0
   12.2222   46.5877    2.1238 C   0  0  0  0  0  0  0  0  0  0  0  0
   10.6341   45.0056    2.8108 C   0  0  0  0  0  0  0  0  0  0  0  0
   11.5802   44.4584    3.7122 C   0  0  0  0  0  0  0  0  0  0  0  0
    9.2470   44.4464    2.7608 C   0  0  0  0  0  0  0  0  0  0  0  0
    9.2788   43.0263    2.2221 C   0  0  0  0  0  0  0  0  0  0  0  0
    8.8427   44.1610    1.3245 C   0  0  0  0  0  0  0  0  0  0  0  0
   15.6653   42.9649    6.7847 C   0  0  0  0  0  0  0  0  0  0  0  0
   15.9971   42.0289    7.7459 C   0  0  0  0  0  0  0  0  0  0  0  0
   17.3269   41.9170    8.4091 C   0  0  0  0  0  0  0  0  0  0  0  0
   14.9434   41.2310    7.9956 N   0  0  0  0  0  0  0  0  0  0  0  0
   13.9255   41.5924    7.2361 N   0  0  0  0  0  0  0  0  0  0  0  0
   13.4967   43.3028    5.5556 N   0  0  0  0  0  0  0  0  0  0  0  0
   13.9905   47.7928    1.8275 N   0  0  0  0  0  0  0  0  0  0  0  0
   12.7322   47.6186    1.4436 N   0  0  0  0  0  0  0  0  0  0  0  0
   10.9683   46.0809    2.0322 N   0  0  0  0  0  0  0  0  0  0  0  0
   15.0310   44.9028    4.8066 O   0  0  0  0  0  0  0  0  0  0  0  0
  1  2  1  0
  2  3  1  0
  3  4  1  0
  4 20  1  0
  5 22  1  0
  5 17  1  0
  6  7  1  0
  8  9  1  0
 10 24  1  0
 11  8  2  0
 12 25  2  0
 13  7  2  0
 14 12  1  0
 14 15  1  0
 15 16  1  0
 16 14  1  0
 18 20  1  0
 19 18  1  0
 20 21  1  0
 22  6  1  0
 24 23  1  0
 24 11  1  0
  5 21  2  0
  6 26  2  0
  7  8  1  0
  9 23  2  0
 11 25  1  0
 12 13  1  0
 17 18  2  0
M  END
>  <rmsd>  (554) 
0.235595927

$$$$
MolPort-001-009-502 4703810 CSSS00121621149 MCULE-8687061856 PubChem-2996968 ZINC000004703810 ZINC04703810
     RDKit          3D

 23 24  0  0  0  0  0  0  0  0999 V2000
   10.0702   46.7428   -3.0881 C   0  0  0  0  0  0  0  0  0  0  0  0
   11.0142   46.0363   -2.1336 C   0  0  0  0  0  0  0  0  0  0  0  0
   11.7050   47.0430   -1.2277 C   0  0  0  0  0  0  0  0  0  0  0  0
   10.7522   47.5657   -0.1594 C   0  0  0  0  0  0  0  0  0  0  0  0
   11.2834   46.0225    1.7182 C   0  0  0  0  0  0  0  0  0  0  0  0
   12.5713   46.5528    1.8935 C   0  0  0  0  0  0  0  0  0  0  0  0
   13.4256   46.0225    2.8638 C   0  0  0  0  0  0  0  0  0  0  0  0
   13.0050   44.9571    3.6725 C   0  0  0  0  0  0  0  0  0  0  0  0
   11.7174   44.4314    3.4967 C   0  0  0  0  0  0  0  0  0  0  0  0
   10.8629   44.9617    2.5261 C   0  0  0  0  0  0  0  0  0  0  0  0
   13.9048   44.3966    4.6961 C   0  0  0  0  0  0  0  0  0  0  0  0
   14.2403   42.6813    6.5401 C   0  0  0  0  0  0  0  0  0  0  0  0
   14.7943   40.3855    9.1291 C   0  0  0  0  0  0  0  0  0  0  0  0
   14.2675   40.9838   10.4222 C   0  0  0  0  0  0  0  0  0  0  0  0
   14.2332   39.9328   11.5172 C   0  0  0  0  0  0  0  0  0  0  0  0
   13.0660   38.9867   11.3069 C   0  0  0  0  0  0  0  0  0  0  0  0
   10.4022   46.5323    0.7579 O   0  0  0  0  0  0  0  0  0  0  0  0
   15.0613   44.8776    4.8458 O   0  0  0  0  0  0  0  0  0  0  0  0
   13.4613   43.3074    5.5162 N   0  0  0  0  0  0  0  0  0  0  0  0
   13.7884   41.6616    7.2923 N   0  0  0  0  0  0  0  0  0  0  0  0
   14.8094   41.3984    8.0889 N   0  0  0  0  0  0  0  0  0  0  0  0
   15.8260   42.2108    7.8560 N   0  0  0  0  0  0  0  0  0  0  0  0
   15.4982   43.0356    6.8745 N   0  0  0  0  0  0  0  0  0  0  0  0
  1  2  1  0
  2  3  1  0
  3  4  1  0
  4 17  1  0
  5 17  1  0
  6  7  2  0
  8  9  2  0
  8 11  1  0
 10  5  2  0
 11 19  1  0
 12 23  1  0
 13 21  1  0
 13 14  1  0
 14 15  1  0
 15 16  1  0
 19 12  1  0
 21 20  1  0
 21 22  1  0
  5  6  1  0
  7  8  1  0
  9 10  1  0
 11 18  2  0
 12 20  2  0
 22 23  2  0
M  END
>  <rmsd>  (555) 
0.23542197

$$$$
MolPort-002-656-088 9348381 CSSS00160703797 LN00744611 MCULE-6543181931 PubChem-4971255 ZINC000009348381
     RDKit          3D

 33 37  0  0  0  0  0  0  0  0999 V2000
   17.2226   39.5465   11.3759 C   0  0  0  0  0  0  0  0  0  0  0  0
   16.1191   39.9942   10.6727 C   0  0  0  0  0  0  0  0  0  0  0  0
   14.7203   39.6438   10.9665 C   0  0  0  0  0  0  0  0  0  0  0  0
   13.8307   40.6293   11.4172 C   0  0  0  0  0  0  0  0  0  0  0  0
   12.5022   40.2968   11.6979 C   0  0  0  0  0  0  0  0  0  0  0  0
   12.0589   38.9811   11.5246 C   0  0  0  0  0  0  0  0  0  0  0  0
   12.9442   37.9957   11.0735 C   0  0  0  0  0  0  0  0  0  0  0  0
   14.2736   38.3253   10.7973 C   0  0  0  0  0  0  0  0  0  0  0  0
   17.8877   40.9610    9.7877 C   0  0  0  0  0  0  0  0  0  0  0  0
   18.3088   40.1501   10.8241 C   0  0  0  0  0  0  0  0  0  0  0  0
   19.7416   39.0746   12.3438 C   0  0  0  0  0  0  0  0  0  0  0  0
   18.8530   37.5590   14.0575 C   0  0  0  0  0  0  0  0  0  0  0  0
   17.3827   38.6875   12.4595 C   0  0  0  0  0  0  0  0  0  0  0  0
   20.7113   40.5828   10.6515 C   0  0  0  0  0  0  0  0  0  0  0  0
   15.7476   41.5070    8.6822 C   0  0  0  0  0  0  0  0  0  0  0  0
   14.4774   41.0240    8.3270 C   0  0  0  0  0  0  0  0  0  0  0  0
   13.7424   41.6305    7.3052 C   0  0  0  0  0  0  0  0  0  0  0  0
   14.2677   42.7231    6.6103 C   0  0  0  0  0  0  0  0  0  0  0  0
   15.5386   43.2069    6.9540 C   0  0  0  0  0  0  0  0  0  0  0  0
   16.2725   42.6022    7.9783 C   0  0  0  0  0  0  0  0  0  0  0  0
   13.8889   44.3760    4.6859 C   0  0  0  0  0  0  0  0  0  0  0  0
   12.9670   44.8482    3.6468 C   0  0  0  0  0  0  0  0  0  0  0  0
   11.7101   44.3362    3.3987 C   0  0  0  0  0  0  0  0  0  0  0  0
   11.2260   45.0847    2.3403 C   0  0  0  0  0  0  0  0  0  0  0  0
   12.2170   45.9954    2.0135 C   0  0  0  0  0  0  0  0  0  0  0  0
   16.5364   40.8572    9.7006 N   0  0  0  0  0  0  0  0  0  0  0  0
   19.5697   39.9282   11.2808 N   0  0  0  0  0  0  0  0  0  0  0  0
   18.6535   38.4597   12.9266 N   0  0  0  0  0  0  0  0  0  0  0  0
   13.4878   43.3114    5.5605 N   0  0  0  0  0  0  0  0  0  0  0  0
   20.9031   38.8538   12.7903 O   0  0  0  0  0  0  0  0  0  0  0  0
   16.3850   38.1347   12.9972 O   0  0  0  0  0  0  0  0  0  0  0  0
   15.0337   44.8942    4.7782 O   0  0  0  0  0  0  0  0  0  0  0  0
   13.2405   45.8214    2.8157 O   0  0  0  0  0  0  0  0  0  0  0  0
  2  3  1  0
  2 26  1  0
  4  5  2  0
  6  7  2  0
  8  3  2  0
 10 27  1  0
 10  1  1  0
 11 28  1  0
 12 28  1  0
 13  1  1  0
 14 27  1  0
 16 17  2  0
 18 19  2  0
 18 29  1  0
 20 15  2  0
 21 22  1  0
 22 33  1  0
 23 24  1  0
 25 33  1  0
 26  9  1  0
 26 15  1  0
 27 11  1  0
 28 13  1  0
 29 21  1  0
  1  2  2  0
  3  4  1  0
  5  6  1  0
  7  8  1  0
  9 10  2  0
 11 30  2  0
 13 31  2  0
 15 16  1  0
 17 18  1  0
 19 20  1  0
 21 32  2  0
 22 23  2  0
 24 25  2  0
M  END
>  <rmsd>  (556) 
0.235198274

$$$$
MolPort-009-690-752 12348320 CSSS03437129077 MCULE-8578784303 PubChem-16911853 ZINC000012348320
     RDKit          3D

 26 28  0  0  0  0  0  0  0  0999 V2000
   14.3726   42.7282    6.6175 C   0  0  0  0  0  0  0  0  0  0  0  0
   13.8823   44.3370    4.6932 C   0  0  0  0  0  0  0  0  0  0  0  0
   12.9094   44.7428    3.6386 C   0  0  0  0  0  0  0  0  0  0  0  0
   13.1688   43.9964    2.3745 C   0  0  0  0  0  0  0  0  0  0  0  0
   12.6128   42.7293    2.1789 C   0  0  0  0  0  0  0  0  0  0  0  0
   12.8734   42.0269    1.0003 C   0  0  0  0  0  0  0  0  0  0  0  0
   13.6949   42.5838    0.0054 C   0  0  0  0  0  0  0  0  0  0  0  0
   14.2593   43.8537    0.2040 C   0  0  0  0  0  0  0  0  0  0  0  0
   15.6942   45.6755   -0.6627 C   0  0  0  0  0  0  0  0  0  0  0  0
   13.9918   44.5536    1.3921 C   0  0  0  0  0  0  0  0  0  0  0  0
   13.4555   40.5944   -1.4497 C   0  0  0  0  0  0  0  0  0  0  0  0
   16.1381   42.0060    8.1278 C   0  0  0  0  0  0  0  0  0  0  0  0
   14.9120   41.3866    8.3225 C   0  0  0  0  0  0  0  0  0  0  0  0
   14.7548   40.4300    9.3299 C   0  0  0  0  0  0  0  0  0  0  0  0
   15.8748   40.1095   10.1250 C   0  0  0  0  0  0  0  0  0  0  0  0
   17.1130   40.7448    9.9128 C   0  0  0  0  0  0  0  0  0  0  0  0
   17.2544   41.7093    8.9045 C   0  0  0  0  0  0  0  0  0  0  0  0
   13.2581   38.8757   10.5602 C   0  0  0  0  0  0  0  0  0  0  0  0
   13.0558   39.5990   11.8798 C   0  0  0  0  0  0  0  0  0  0  0  0
   13.5255   43.2992    5.6133 N   0  0  0  0  0  0  0  0  0  0  0  0
   13.9240   41.7856    7.4802 N   0  0  0  0  0  0  0  0  0  0  0  0
   15.0817   44.3991   -0.7878 O   0  0  0  0  0  0  0  0  0  0  0  0
   13.9652   41.8941   -1.1817 O   0  0  0  0  0  0  0  0  0  0  0  0
   15.0071   44.9009    4.7465 O   0  0  0  0  0  0  0  0  0  0  0  0
   13.5114   39.8142    9.5200 O   0  0  0  0  0  0  0  0  0  0  0  0
   16.0117   43.0992    6.8634 S   0  0  0  0  0  0  0  0  0  0  0  0
  1 20  1  0
  1 26  1  0
  3  2  1  0
  3  4  1  0
  5  6  2  0
  7  8  2  0
  7 23  1  0
  8 22  1  0
  9 22  1  0
 10  4  2  0
 11 23  1  0
 12 26  1  0
 13 14  2  0
 13 21  1  0
 14 25  1  0
 15 16  2  0
 17 12  2  0
 18 25  1  0
 18 19  1  0
 20  2  1  0
  1 21  2  0
  2 24  2  0
  4  5  1  0
  6  7  1  0
  8 10  1  0
 12 13  1  0
 14 15  1  0
 16 17  1  0
M  END
>  <rmsd>  (557) 
0.235132635

$$$$
Molport-051-950-059 CSSS20538622895
     RDKit          3D

 27 30  0  0  0  0  0  0  0  0999 V2000
   17.2770   39.6928    1.2417 C   0  0  0  0  0  0  0  0  0  0  0  0
   16.5177   40.7327    1.9834 C   0  0  0  0  0  0  0  0  0  0  0  0
   15.2463   40.4431    2.4881 C   0  0  0  0  0  0  0  0  0  0  0  0
   14.5321   41.4213    3.1862 C   0  0  0  0  0  0  0  0  0  0  0  0
   15.0880   42.6906    3.3813 C   0  0  0  0  0  0  0  0  0  0  0  0
   16.3601   42.9789    2.8744 C   0  0  0  0  0  0  0  0  0  0  0  0
   17.0744   42.0007    2.1761 C   0  0  0  0  0  0  0  0  0  0  0  0
   14.1923   42.5612    6.6802 C   0  0  0  0  0  0  0  0  0  0  0  0
   14.7906   41.3865    8.3841 C   0  0  0  0  0  0  0  0  0  0  0  0
   13.4829   40.3264   10.0003 C   0  0  0  0  0  0  0  0  0  0  0  0
   13.3624   39.4619   11.2028 C   0  0  0  0  0  0  0  0  0  0  0  0
   12.4120   41.6462    8.3122 C   0  0  0  0  0  0  0  0  0  0  0  0
   13.6837   41.9084    7.7846 C   0  0  0  0  0  0  0  0  0  0  0  0
   11.1594   42.1944    7.7557 C   0  0  0  0  0  0  0  0  0  0  0  0
   11.0907   43.5118    7.2801 C   0  0  0  0  0  0  0  0  0  0  0  0
    9.8850   44.0303    6.7992 C   0  0  0  0  0  0  0  0  0  0  0  0
    8.7336   43.2390    6.8042 C   0  0  0  0  0  0  0  0  0  0  0  0
    8.7869   41.9322    7.2956 C   0  0  0  0  0  0  0  0  0  0  0  0
    9.9937   41.4148    7.7756 C   0  0  0  0  0  0  0  0  0  0  0  0
   14.1895   43.9114    4.2641 S   0  0  0  0  0  0  0  0  0  0  0  0
   13.1323   44.4911    3.3681 O   0  0  0  0  0  0  0  0  0  0  0  0
   15.1084   45.0115    4.7170 O   0  0  0  0  0  0  0  0  0  0  0  0
   13.4379   43.1958    5.6481 N   0  0  0  0  0  0  0  0  0  0  0  0
   15.5394   42.4259    6.6599 N   0  0  0  0  0  0  0  0  0  0  0  0
   15.9104   41.7026    7.7119 N   0  0  0  0  0  0  0  0  0  0  0  0
   14.7160   40.5982    9.4815 N   0  0  0  0  0  0  0  0  0  0  0  0
   12.3554   40.8425    9.4180 N   0  0  0  0  0  0  0  0  0  0  0  0
  1  2  1  0
  3  4  2  0
  5  6  2  0
  7  2  2  0
 10 26  2  0
 11 10  1  0
 12 27  2  0
 12 14  1  0
 13  8  1  0
 13  9  2  0
 15 16  2  0
 17 18  2  0
 19 14  2  0
 20  5  1  0
 20 23  1  0
 23  8  1  0
 25 24  1  0
 25  9  1  0
  2  3  1  0
  4  5  1  0
  6  7  1  0
  8 24  2  0
  9 26  1  0
 10 27  1  0
 12 13  1  0
 14 15  1  0
 16 17  1  0
 18 19  1  0
 20 21  2  0
 20 22  2  0
M  END
>  <rmsd>  (558) 
0.235077888

$$$$
Molport-053-367-154
     RDKit          3D

 20 21  0  0  0  0  0  0  0  0999 V2000
   13.5334   39.1738   11.2006 Cl  0  0  0  0  0  0  0  0  0  0  0  0
   13.6623   40.2351    9.8071 C   0  0  0  0  0  0  0  0  0  0  0  0
   12.5815   40.3322    8.8985 C   0  0  0  0  0  0  0  0  0  0  0  0
   12.6646   41.1818    7.7769 C   0  0  0  0  0  0  0  0  0  0  0  0
   13.8325   41.9233    7.6159 C   0  0  0  0  0  0  0  0  0  0  0  0
   14.8775   41.8332    8.4917 C   0  0  0  0  0  0  0  0  0  0  0  0
   14.2486   42.8379    6.6693 C   0  0  0  0  0  0  0  0  0  0  0  0
   13.9113   44.3483    4.6659 C   0  0  0  0  0  0  0  0  0  0  0  0
   13.0121   44.8130    3.5544 C   0  0  0  0  0  0  0  0  0  0  0  0
   13.3097   44.0716    2.2322 C   0  0  0  0  0  0  0  0  0  0  0  0
   14.0425   44.9407    1.1923 C   0  0  0  0  0  0  0  0  0  0  0  0
   15.4630   45.3330    1.6338 C   0  0  0  0  0  0  0  0  0  0  0  0
   16.2219   46.0941    0.5346 C   0  0  0  0  0  0  0  0  0  0  0  0
   16.6056   45.2030   -0.5719 C   0  0  0  0  0  0  0  0  0  0  0  0
   16.9193   44.4722   -1.4811 C   0  0  0  0  0  0  0  0  0  0  0  0
   14.8330   40.9974    9.6062 C   0  0  0  0  0  0  0  0  0  0  0  0
   15.8701   42.6495    8.0989 N   0  0  0  0  0  0  0  0  0  0  0  0
   15.4925   43.2733    6.9877 N   0  0  0  0  0  0  0  0  0  0  0  0
   13.4728   43.3085    5.5558 N   0  0  0  0  0  0  0  0  0  0  0  0
   15.0553   44.8635    4.7934 O   0  0  0  0  0  0  0  0  0  0  0  0
  2  1  1  0
  3  4  2  0
  5  6  2  0
  6 17  1  0
  7 19  1  0
  7  5  1  0
  9  8  1  0
  9 10  1  0
 10 11  1  0
 11 12  1  0
 12 13  1  0
 13 14  1  0
 16  2  2  0
 17 18  1  0
 19  8  1  0
  2  3  1  0
  4  5  1  0
  6 16  1  0
  7 18  2  0
  8 20  2  0
 14 15  3  0
M  END
>  <rmsd>  (559) 
0.23499231

$$$$
MolPort-016-718-227 19714870 MCULE-5279797870 PubChem-46975114 ZINC000019714870
     RDKit          3D

 27 30  0  0  0  0  0  0  0  0999 V2000
   13.0694   39.5471   11.8588 C   0  0  0  0  0  0  0  0  0  0  0  0
   13.2580   38.8438   10.5269 C   0  0  0  0  0  0  0  0  0  0  0  0
   14.7402   40.4601    9.3564 C   0  0  0  0  0  0  0  0  0  0  0  0
   15.8436   40.1802   10.1901 C   0  0  0  0  0  0  0  0  0  0  0  0
   17.0647   40.8595   10.0193 C   0  0  0  0  0  0  0  0  0  0  0  0
   17.2053   41.8279    9.0143 C   0  0  0  0  0  0  0  0  0  0  0  0
   16.1055   42.0875    8.2021 C   0  0  0  0  0  0  0  0  0  0  0  0
   14.3640   42.7541    6.6386 C   0  0  0  0  0  0  0  0  0  0  0  0
   13.8764   44.3398    4.6864 C   0  0  0  0  0  0  0  0  0  0  0  0
   12.9044   44.7604    3.6617 C   0  0  0  0  0  0  0  0  0  0  0  0
   11.6519   44.1349    3.5746 C   0  0  0  0  0  0  0  0  0  0  0  0
   10.7302   44.5299    2.6010 C   0  0  0  0  0  0  0  0  0  0  0  0
   11.0554   45.5505    1.7024 C   0  0  0  0  0  0  0  0  0  0  0  0
   10.0636   45.9892    0.6799 C   0  0  0  0  0  0  0  0  0  0  0  0
    8.0091   46.8171    1.8462 C   0  0  0  0  0  0  0  0  0  0  0  0
   12.2989   46.1844    1.7878 C   0  0  0  0  0  0  0  0  0  0  0  0
   13.2207   45.7889    2.7615 C   0  0  0  0  0  0  0  0  0  0  0  0
   14.8953   41.4274    8.3587 C   0  0  0  0  0  0  0  0  0  0  0  0
   13.5166   39.7936    9.4980 O   0  0  0  0  0  0  0  0  0  0  0  0
   15.0064   44.8968    4.7423 O   0  0  0  0  0  0  0  0  0  0  0  0
   15.9817   43.1786    6.9346 S   0  0  0  0  0  0  0  0  0  0  0  0
   13.5264   43.3027    5.6139 N   0  0  0  0  0  0  0  0  0  0  0  0
    9.1882   47.0087    1.2344 N   0  0  0  0  0  0  0  0  0  0  0  0
    7.5468   48.0147    2.2599 N   0  0  0  0  0  0  0  0  0  0  0  0
    8.4598   48.9066    1.8980 N   0  0  0  0  0  0  0  0  0  0  0  0
    9.4587   48.2987    1.2803 N   0  0  0  0  0  0  0  0  0  0  0  0
   13.9204   41.7962    7.4876 N   0  0  0  0  0  0  0  0  0  0  0  0
  1  2  1  0
  2 19  1  0
  3 19  1  0
  4  5  2  0
  6  7  2  0
  7 21  1  0
  8 21  1  0
  8 22  1  0
  9 10  1  0
 11 12  2  0
 13 16  2  0
 14 13  1  0
 14 23  1  0
 17 10  2  0
 18 27  1  0
 18  3  2  0
 22  9  1  0
 23 15  1  0
 23 26  1  0
 24 25  1  0
  3  4  1  0
  5  6  1  0
  8 27  2  0
  9 20  2  0
 10 11  1  0
 12 13  1  0
 15 24  2  0
 16 17  1  0
 18  7  1  0
 25 26  2  0
M  END
>  <rmsd>  (560) 
0.234963208

$$$$
MolPort-003-159-980 5266307 CSSS03437068660 MCULE-5115556212 PubChem-18582437 ZINC000005266307 ZINC05266307
     RDKit          3D

 29 32  0  0  0  0  0  0  0  0999 V2000
   13.3183   39.5027   11.2683 C   0  0  0  0  0  0  0  0  0  0  0  0
   14.9882   39.6479    9.8354 C   0  0  0  0  0  0  0  0  0  0  0  0
   15.4003   39.6723    8.3714 C   0  0  0  0  0  0  0  0  0  0  0  0
   14.2756   41.2740    6.8269 C   0  0  0  0  0  0  0  0  0  0  0  0
   14.3646   42.6261    6.5158 C   0  0  0  0  0  0  0  0  0  0  0  0
   13.8235   44.5063    4.8747 C   0  0  0  0  0  0  0  0  0  0  0  0
   13.0995   46.4816    3.5042 C   0  0  0  0  0  0  0  0  0  0  0  0
   11.8352   47.1451    2.9638 C   0  0  0  0  0  0  0  0  0  0  0  0
   10.7171   44.8731    2.9374 C   0  0  0  0  0  0  0  0  0  0  0  0
   11.3962   44.7739    4.3043 C   0  0  0  0  0  0  0  0  0  0  0  0
   10.6103   46.4015    0.9135 C   0  0  0  0  0  0  0  0  0  0  0  0
    9.5679   45.6112    0.2238 C   0  0  0  0  0  0  0  0  0  0  0  0
    8.7366   44.6614    0.7843 C   0  0  0  0  0  0  0  0  0  0  0  0
    7.9393   44.2177   -0.2560 C   0  0  0  0  0  0  0  0  0  0  0  0
    8.3278   44.9280   -1.3779 C   0  0  0  0  0  0  0  0  0  0  0  0
   15.3348   43.1731    7.3376 C   0  0  0  0  0  0  0  0  0  0  0  0
   15.7835   44.4819    7.5101 C   0  0  0  0  0  0  0  0  0  0  0  0
   16.7843   44.7092    8.4707 C   0  0  0  0  0  0  0  0  0  0  0  0
   17.2985   43.6417    9.2370 C   0  0  0  0  0  0  0  0  0  0  0  0
   16.8104   42.3346    9.0598 C   0  0  0  0  0  0  0  0  0  0  0  0
   15.8171   42.1383    8.0987 C   0  0  0  0  0  0  0  0  0  0  0  0
   13.6096   39.8336    9.9459 O   0  0  0  0  0  0  0  0  0  0  0  0
   15.0179   44.9028    4.7935 O   0  0  0  0  0  0  0  0  0  0  0  0
   11.1552   47.3421    0.2739 O   0  0  0  0  0  0  0  0  0  0  0  0
    9.2972   45.7485   -1.0504 O   0  0  0  0  0  0  0  0  0  0  0  0
   15.1796   40.9913    7.7930 N   0  0  0  0  0  0  0  0  0  0  0  0
   13.5117   43.2979    5.5801 N   0  0  0  0  0  0  0  0  0  0  0  0
   12.7824   45.2326    4.2068 N   0  0  0  0  0  0  0  0  0  0  0  0
   11.0080   46.1522    2.2766 N   0  0  0  0  0  0  0  0  0  0  0  0
  1 22  1  0
  2 22  1  0
  2  3  1  0
  3 26  1  0
  5 27  1  0
  5 16  1  0
  6 28  1  0
  7 28  1  0
  7  8  1  0
  8 29  1  0
  9 29  1  0
  9 10  1  0
 10 28  1  0
 11 12  1  0
 12 25  1  0
 13 14  1  0
 15 25  1  0
 17 18  2  0
 19 20  2  0
 21 26  1  0
 21 16  2  0
 26  4  1  0
 27  6  1  0
 29 11  1  0
  4  5  2  0
  6 23  2  0
 11 24  2  0
 12 13  2  0
 14 15  2  0
 16 17  1  0
 18 19  1  0
 20 21  1  0
M  END
>  <rmsd>  (561) 
0.234672576

$$$$
MolPort-001-656-925 2804259 CHEMBL3487069 CSSS00133005194 MCULE-9047264522 PubChem-19582140 ZINC000002804259 ZINC02804259
     RDKit          3D

 22 23  0  0  0  0  0  0  0  0999 V2000
   13.0184   39.4583   11.9995 C   0  0  0  0  0  0  0  0  0  0  0  0
   14.1178   39.4059   10.9603 C   0  0  0  0  0  0  0  0  0  0  0  0
   14.9036   40.2078    9.0599 C   0  0  0  0  0  0  0  0  0  0  0  0
   13.8461   41.5820    7.2780 C   0  0  0  0  0  0  0  0  0  0  0  0
   14.2615   42.6519    6.5185 C   0  0  0  0  0  0  0  0  0  0  0  0
   13.8942   44.4140    4.7183 C   0  0  0  0  0  0  0  0  0  0  0  0
   12.9575   45.0181    3.7278 C   0  0  0  0  0  0  0  0  0  0  0  0
   12.5542   43.9894    2.6654 C   0  0  0  0  0  0  0  0  0  0  0  0
   11.2586   44.3781    1.9439 C   0  0  0  0  0  0  0  0  0  0  0  0
   10.7011   46.1567    3.4286 C   0  0  0  0  0  0  0  0  0  0  0  0
   11.7374   45.6164    4.4295 C   0  0  0  0  0  0  0  0  0  0  0  0
    8.2112   45.2826    1.6112 C   0  0  0  0  0  0  0  0  0  0  0  0
   15.5546   42.9640    6.8980 C   0  0  0  0  0  0  0  0  0  0  0  0
   13.9351   40.4359   10.0383 O   0  0  0  0  0  0  0  0  0  0  0  0
   15.0544   44.8904    4.8349 O   0  0  0  0  0  0  0  0  0  0  0  0
    9.3459   47.6688    1.1638 O   0  0  0  0  0  0  0  0  0  0  0  0
    9.9245   45.8517   -0.3702 O   0  0  0  0  0  0  0  0  0  0  0  0
   14.8807   41.2838    8.0842 N   0  0  0  0  0  0  0  0  0  0  0  0
   13.4682   43.3063    5.5226 N   0  0  0  0  0  0  0  0  0  0  0  0
   11.0256   45.8188    2.0373 N   0  0  0  0  0  0  0  0  0  0  0  0
   15.9036   42.0949    7.8670 N   0  0  0  0  0  0  0  0  0  0  0  0
    9.6391   46.1975    1.0651 S   0  0  0  0  0  0  0  0  0  0  0  0
  1  2  1  0
  2 14  1  0
  3 14  1  0
  3 18  1  0
  5 19  1  0
  5 13  1  0
  7  6  1  0
  7  8  1  0
  8  9  1  0
  9 20  1  0
 10 20  1  0
 10 11  1  0
 11  7  1  0
 18  4  1  0
 18 21  1  0
 19  6  1  0
 22 20  1  0
 22 12  1  0
  4  5  2  0
  6 15  2  0
 13 21  2  0
 22 16  2  0
 22 17  2  0
M  END
>  <rmsd>  (562) 
0.234631851

$$$$
MolPort-039-210-477 CSSS03437094304 PubChem-121017029
     RDKit          3D

 24 26  0  0  0  0  0  0  0  0999 V2000
   13.4966   45.7286    6.4117 O   0  0  0  0  0  0  0  0  0  0  0  0
   15.1115   45.0271    4.6975 O   0  0  0  0  0  0  0  0  0  0  0  0
   15.0064   38.7940   10.8990 O   0  0  0  0  0  0  0  0  0  0  0  0
   13.7101   44.8510    5.2109 S   0  0  0  0  0  0  0  0  0  0  0  0
   13.4391   43.1980    5.6491 N   0  0  0  0  0  0  0  0  0  0  0  0
   14.9698   41.0100    7.9906 N   0  0  0  0  0  0  0  0  0  0  0  0
   15.6907   42.0990    8.2096 N   0  0  0  0  0  0  0  0  0  0  0  0
   14.2125   42.5319    6.6471 C   0  0  0  0  0  0  0  0  0  0  0  0
   14.0432   41.2245    7.0402 C   0  0  0  0  0  0  0  0  0  0  0  0
   15.1502   39.7620    8.7147 C   0  0  0  0  0  0  0  0  0  0  0  0
   14.5471   39.8619   10.1069 C   0  0  1  0  0  0  0  0  0  0  0  0
   13.0099   39.8750   10.0278 C   0  0  0  0  0  0  0  0  0  0  0  0
   12.3813   38.9684   11.0892 C   0  0  0  0  0  0  0  0  0  0  0  0
   13.1258   39.0621   12.4235 C   0  0  0  0  0  0  0  0  0  0  0  0
   14.6493   39.1099   12.2230 C   0  0  0  0  0  0  0  0  0  0  0  0
   15.2480   43.0704    7.3875 C   0  0  0  0  0  0  0  0  0  0  0  0
   12.5713   45.3142    3.9657 C   0  0  0  0  0  0  0  0  0  0  0  0
   12.4881   44.6132    2.8403 C   0  0  0  0  0  0  0  0  0  0  0  0
   11.5520   44.9531    1.7603 C   0  0  0  0  0  0  0  0  0  0  0  0
   11.5334   44.1573    0.6096 C   0  0  0  0  0  0  0  0  0  0  0  0
   10.6550   44.4517   -0.4377 C   0  0  0  0  0  0  0  0  0  0  0  0
    9.7898   45.5451   -0.3386 C   0  0  0  0  0  0  0  0  0  0  0  0
    9.8025   46.3447    0.8078 C   0  0  0  0  0  0  0  0  0  0  0  0
   10.6806   46.0506    1.8550 C   0  0  0  0  0  0  0  0  0  0  0  0
  4  5  1  0
  4 17  1  0
  5  8  1  0
  6  7  1  0
  9  6  1  0
 10  6  1  0
 11 10  1  6
 11 12  1  0
 11  3  1  0
 12 13  1  0
 13 14  1  0
 14 15  1  0
 15  3  1  0
 16  8  1  0
 18 19  1  0
 20 21  2  0
 22 23  2  0
 24 19  2  0
  4  1  2  0
  4  2  2  0
  8  9  2  0
 16  7  2  0
 17 18  2  0
 19 20  1  0
 21 22  1  0
 23 24  1  0
M  END
>  <rmsd>  (563) 
0.234616458

$$$$
MolPort-001-580-100 CSSS00121683560 LN00925186 MCULE-2337673618 PubChem-2950106
     RDKit          3D

 27 29  0  0  0  0  0  0  0  0999 V2000
   13.4993   39.3243   11.3611 C   0  0  0  0  0  0  0  0  0  0  0  0
   14.3764   39.3124   10.1227 C   0  0  1  0  0  0  0  0  0  0  0  0
   14.3549   41.0413    8.3510 C   0  0  0  0  0  0  0  0  0  0  0  0
   15.6605   41.4608    8.6514 C   0  0  0  0  0  0  0  0  0  0  0  0
   16.2510   42.4960    7.9231 C   0  0  0  0  0  0  0  0  0  0  0  0
   15.5413   43.1165    6.8922 C   0  0  0  0  0  0  0  0  0  0  0  0
   14.2361   42.7063    6.5823 C   0  0  0  0  0  0  0  0  0  0  0  0
   13.8955   44.3893    4.6705 C   0  0  0  0  0  0  0  0  0  0  0  0
   12.9617   44.8947    3.6309 C   0  0  0  0  0  0  0  0  0  0  0  0
   13.2811   45.9471    2.7332 C   0  0  0  0  0  0  0  0  0  0  0  0
   14.5946   46.6538    2.7457 C   0  0  0  0  0  0  0  0  0  0  0  0
   12.3415   46.3617    1.7831 C   0  0  0  0  0  0  0  0  0  0  0  0
   11.0896   45.7507    1.7071 C   0  0  0  0  0  0  0  0  0  0  0  0
   10.7663   44.7166    2.5840 C   0  0  0  0  0  0  0  0  0  0  0  0
   11.6955   44.2943    3.5362 C   0  0  0  0  0  0  0  0  0  0  0  0
   13.6523   41.6686    7.3170 C   0  0  0  0  0  0  0  0  0  0  0  0
   14.7224   37.9133    9.7084 C   0  0  0  0  0  0  0  0  0  0  0  0
   13.7051   36.9516    9.2225 C   0  0  0  0  0  0  0  0  0  0  0  0
   14.0881   35.6511    8.8597 C   0  0  0  0  0  0  0  0  0  0  0  0
   13.1393   34.7345    8.3971 C   0  0  0  0  0  0  0  0  0  0  0  0
   11.7978   35.1102    8.2923 C   0  0  0  0  0  0  0  0  0  0  0  0
   11.4051   36.4023    8.6500 C   0  0  0  0  0  0  0  0  0  0  0  0
   12.3542   37.3182    9.1124 C   0  0  0  0  0  0  0  0  0  0  0  0
   13.7361   40.0077    9.0593 O   0  0  0  0  0  0  0  0  0  0  0  0
   15.0445   44.8906    4.8007 O   0  0  0  0  0  0  0  0  0  0  0  0
   15.9302   37.5599    9.7737 O   0  0  0  0  0  0  0  0  0  0  0  0
   13.4758   43.3183    5.5313 N   0  0  0  0  0  0  0  0  0  0  0  0
  2  1  1  1
  2 24  1  0
  2 17  1  0
  3 24  1  0
  4  5  2  0
  6  7  2  0
  7 27  1  0
  8  9  1  0
 10 12  2  0
 11 10  1  0
 13 14  2  0
 15  9  2  0
 16  3  2  0
 17 18  1  0
 19 20  2  0
 21 22  2  0
 23 18  2  0
 27  8  1  0
  3  4  1  0
  5  6  1  0
  7 16  1  0
  8 25  2  0
  9 10  1  0
 12 13  1  0
 14 15  1  0
 17 26  2  0
 18 19  1  0
 20 21  1  0
 22 23  1  0
M  END
>  <rmsd>  (564) 
0.234571263

$$$$
Molport-043-873-113 MCULE-7353733872 PubChem-123128074
     RDKit          3D

 19 19  0  0  0  0  0  0  0  0999 V2000
   13.5129   39.3330   11.3286 C   0  0  0  0  0  0  0  0  0  0  0  0
   14.3865   39.2715   10.0901 C   0  0  1  0  0  0  0  0  0  0  0  0
   14.6484   37.8546    9.7036 C   0  0  0  0  0  0  0  0  0  0  0  0
   14.3555   41.0216    8.3401 C   0  0  0  0  0  0  0  0  0  0  0  0
   15.6398   41.4764    8.6784 C   0  0  0  0  0  0  0  0  0  0  0  0
   16.2154   42.5402    7.9800 C   0  0  0  0  0  0  0  0  0  0  0  0
   15.5119   43.1544    6.9410 C   0  0  0  0  0  0  0  0  0  0  0  0
   14.2282   42.7085    6.5928 C   0  0  0  0  0  0  0  0  0  0  0  0
   13.6589   41.6430    7.2984 C   0  0  0  0  0  0  0  0  0  0  0  0
   13.8934   44.3989    4.6922 C   0  0  0  0  0  0  0  0  0  0  0  0
   12.9696   44.9033    3.6299 C   0  0  0  0  0  0  0  0  0  0  0  0
   13.7006   37.0986    9.3617 O   0  0  0  0  0  0  0  0  0  0  0  0
   15.9488   37.3693    9.7126 O   0  0  0  0  0  0  0  0  0  0  0  0
   13.7517   39.9594    9.0191 O   0  0  0  0  0  0  0  0  0  0  0  0
   15.0486   44.8921    4.7981 O   0  0  0  0  0  0  0  0  0  0  0  0
   13.4744   43.3153    5.5343 N   0  0  0  0  0  0  0  0  0  0  0  0
   13.2507   46.2269    3.3415 F   0  0  0  0  0  0  0  0  0  0  0  0
   11.6583   44.8070    4.0592 F   0  0  0  0  0  0  0  0  0  0  0  0
   13.1303   44.1446    2.4860 F   0  0  0  0  0  0  0  0  0  0  0  0
  2  1  1  1
  2  3  1  0
  2 14  1  0
  3 13  1  0
  4 14  1  0
  5  6  2  0
  7  8  2  0
  8 16  1  0
  9  4  2  0
 11 10  1  0
 11 17  1  0
 11 18  1  0
 11 19  1  0
 16 10  1  0
  3 12  2  0
  4  5  1  0
  6  7  1  0
  8  9  1  0
 10 15  2  0
M  END
>  <rmsd>  (565) 
0.234431088

$$$$
MolPort-005-289-767 49938002 CSSS00160680064 ChemDiv-8020-2583 LN00787752 MCULE-7315426399 PubChem-16644481 ZINC000049938002
     RDKit          3D

 21 22  0  0  0  0  0  0  0  0999 V2000
   16.4319   41.1248   12.0967 C   0  0  0  0  0  0  0  0  0  0  0  0
   15.0848   41.5705   11.5258 C   0  0  0  0  0  0  0  0  0  0  0  0
   14.2779   39.3292   11.2589 C   0  0  0  0  0  0  0  0  0  0  0  0
   12.8663   39.2728   11.8099 C   0  0  0  0  0  0  0  0  0  0  0  0
   15.4049   40.3751    9.4696 C   0  0  0  0  0  0  0  0  0  0  0  0
   15.1232   41.3443    8.3689 C   0  0  0  0  0  0  0  0  0  0  0  0
   15.9966   42.3116    7.8807 C   0  0  0  0  0  0  0  0  0  0  0  0
   17.3706   42.5250    8.4140 C   0  0  0  0  0  0  0  0  0  0  0  0
   14.2404   42.7007    6.5451 C   0  0  0  0  0  0  0  0  0  0  0  0
   13.9033   44.3978    4.6831 C   0  0  0  0  0  0  0  0  0  0  0  0
   13.0024   44.9447    3.6532 C   0  0  0  0  0  0  0  0  0  0  0  0
   11.7160   44.4125    3.4819 C   0  0  0  0  0  0  0  0  0  0  0  0
   10.8605   44.9307    2.5051 C   0  0  0  0  0  0  0  0  0  0  0  0
   11.2851   45.9851    1.6923 C   0  0  0  0  0  0  0  0  0  0  0  0
   12.5651   46.5216    1.8561 C   0  0  0  0  0  0  0  0  0  0  0  0
   13.4206   46.0035    2.8329 C   0  0  0  0  0  0  0  0  0  0  0  0
   14.4961   40.6041   10.5874 N   0  0  0  0  0  0  0  0  0  0  0  0
   15.5021   43.0673    6.8651 N   0  0  0  0  0  0  0  0  0  0  0  0
   13.4623   43.3159    5.5142 N   0  0  0  0  0  0  0  0  0  0  0  0
   15.0581   44.8842    4.8286 O   0  0  0  0  0  0  0  0  0  0  0  0
   13.6850   41.4325    7.4989 S   0  0  0  0  0  0  0  0  0  0  0  0
  1  2  1  0
  2 17  1  0
  3 17  1  0
  3  4  1  0
  5 17  1  0
  5  6  1  0
  6 21  1  0
  7 18  1  0
  8  7  1  0
  9 19  1  0
  9 21  1  0
 10 11  1  0
 12 13  2  0
 14 15  2  0
 16 11  2  0
 19 10  1  0
  6  7  2  0
  9 18  2  0
 10 20  2  0
 11 12  1  0
 13 14  1  0
 15 16  1  0
M  END
>  <rmsd>  (566) 
0.234346837

$$$$
MolPort-001-580-126 CSSS00121683590 LN01140996 MCULE-9787704706 PubChem-2950566
     RDKit          3D

 30 32  0  0  0  0  0  0  0  0999 V2000
   11.2091   32.9502    7.1944 C   0  0  0  0  0  0  0  0  0  0  0  0
   11.8491   35.1522    8.1216 C   0  0  0  0  0  0  0  0  0  0  0  0
   11.4518   36.4370    8.5027 C   0  0  0  0  0  0  0  0  0  0  0  0
   12.3844   37.3392    9.0214 C   0  0  0  0  0  0  0  0  0  0  0  0
   13.7304   36.9698    9.1669 C   0  0  0  0  0  0  0  0  0  0  0  0
   14.1257   35.6798    8.7839 C   0  0  0  0  0  0  0  0  0  0  0  0
   13.1939   34.7768    8.2653 C   0  0  0  0  0  0  0  0  0  0  0  0
   14.7296   37.9169    9.7148 C   0  0  0  0  0  0  0  0  0  0  0  0
   14.3738   39.3138   10.1286 C   0  0  2  0  0  0  0  0  0  0  0  0
   13.4955   39.3173   11.3658 C   0  0  0  0  0  0  0  0  0  0  0  0
   14.3529   41.0418    8.3558 C   0  0  0  0  0  0  0  0  0  0  0  0
   15.6589   41.4603    8.6552 C   0  0  0  0  0  0  0  0  0  0  0  0
   16.2502   42.4941    7.9254 C   0  0  0  0  0  0  0  0  0  0  0  0
   15.5408   43.1142    6.8941 C   0  0  0  0  0  0  0  0  0  0  0  0
   14.2349   42.7049    6.5854 C   0  0  0  0  0  0  0  0  0  0  0  0
   13.8983   44.3859    4.6741 C   0  0  0  0  0  0  0  0  0  0  0  0
   12.9821   44.8949    3.6384 C   0  0  0  0  0  0  0  0  0  0  0  0
   11.7033   44.3398    3.4897 C   0  0  0  0  0  0  0  0  0  0  0  0
   10.8243   44.8193    2.5049 C   0  0  0  0  0  0  0  0  0  0  0  0
    9.0480   43.2221    3.1457 C   0  0  0  0  0  0  0  0  0  0  0  0
   11.2348   45.8608    1.6672 C   0  0  0  0  0  0  0  0  0  0  0  0
   12.5075   46.4198    1.8083 C   0  0  0  0  0  0  0  0  0  0  0  0
   13.3778   45.9387    2.7899 C   0  0  0  0  0  0  0  0  0  0  0  0
   13.6505   41.6686    7.3216 C   0  0  0  0  0  0  0  0  0  0  0  0
   10.8928   34.2730    7.6061 O   0  0  0  0  0  0  0  0  0  0  0  0
   15.9270   37.5480    9.8495 O   0  0  0  0  0  0  0  0  0  0  0  0
   13.7334   40.0096    9.0655 O   0  0  0  0  0  0  0  0  0  0  0  0
   15.0463   44.8932    4.7976 O   0  0  0  0  0  0  0  0  0  0  0  0
    9.5454   44.2810    2.3391 O   0  0  0  0  0  0  0  0  0  0  0  0
   13.4753   43.3164    5.5340 N   0  0  0  0  0  0  0  0  0  0  0  0
  1 25  1  0
  2 25  1  0
  3  4  2  0
  5  6  2  0
  5  8  1  0
  7  2  2  0
  9  8  1  0
  9 10  1  1
  9 27  1  0
 11 27  1  0
 12 13  2  0
 14 15  2  0
 15 30  1  0
 16 17  1  0
 18 19  2  0
 19 29  1  0
 20 29  1  0
 21 22  2  0
 23 17  2  0
 24 11  2  0
 30 16  1  0
  2  3  1  0
  4  5  1  0
  6  7  1  0
  8 26  2  0
 11 12  1  0
 13 14  1  0
 15 24  1  0
 16 28  2  0
 17 18  1  0
 19 21  1  0
 22 23  1  0
M  END
>  <rmsd>  (567) 
0.234243602

$$$$
MolPort-035-706-987 CSSS03437789242 MCULE-7256095243 PubChem-91938312
     RDKit          3D

 30 32  0  0  0  0  0  0  0  0999 V2000
   13.3434   35.4789    7.9726 C   0  0  0  0  0  0  0  0  0  0  0  0
   14.6476   36.2275    7.7666 C   0  0  0  0  0  0  0  0  0  0  0  0
   14.5156   37.8256    9.6532 C   0  0  0  0  0  0  0  0  0  0  0  0
   14.3916   39.2511   10.1184 C   0  0  1  0  0  0  0  0  0  0  0  0
   13.5054   39.3191   11.3541 C   0  0  0  0  0  0  0  0  0  0  0  0
   14.3510   41.0521    8.3615 C   0  0  0  0  0  0  0  0  0  0  0  0
   13.6461   41.6725    7.3258 C   0  0  0  0  0  0  0  0  0  0  0  0
   14.2315   42.7085    6.5894 C   0  0  0  0  0  0  0  0  0  0  0  0
   13.8995   44.3848    4.6733 C   0  0  0  0  0  0  0  0  0  0  0  0
   12.9861   44.8914    3.6336 C   0  0  0  0  0  0  0  0  0  0  0  0
   11.7079   44.3366    3.4822 C   0  0  0  0  0  0  0  0  0  0  0  0
   10.8416   44.8164    2.4964 C   0  0  0  0  0  0  0  0  0  0  0  0
   11.2441   45.8589    1.6468 C   0  0  0  0  0  0  0  0  0  0  0  0
    9.1035   45.8379    0.3873 C   0  0  0  0  0  0  0  0  0  0  0  0
    9.2166   44.5601   -0.4228 C   0  0  0  0  0  0  0  0  0  0  0  0
    8.3022   46.8533   -0.3994 C   0  0  0  0  0  0  0  0  0  0  0  0
   12.5183   46.4139    1.7983 C   0  0  0  0  0  0  0  0  0  0  0  0
   13.3848   45.9339    2.7845 C   0  0  0  0  0  0  0  0  0  0  0  0
   15.5360   43.1215    6.9026 C   0  0  0  0  0  0  0  0  0  0  0  0
   16.2426   42.5055    7.9392 C   0  0  0  0  0  0  0  0  0  0  0  0
   15.6494   41.4714    8.6668 C   0  0  0  0  0  0  0  0  0  0  0  0
   15.7675   39.7788   10.4727 C   0  0  0  0  0  0  0  0  0  0  0  0
   14.5467   37.5496    8.2820 O   0  0  0  0  0  0  0  0  0  0  0  0
   14.6540   36.8924   10.4933 O   0  0  0  0  0  0  0  0  0  0  0  0
   13.7495   40.0181    9.0871 O   0  0  0  0  0  0  0  0  0  0  0  0
   15.0468   44.8930    4.7990 O   0  0  0  0  0  0  0  0  0  0  0  0
   10.3997   46.3638    0.6518 O   0  0  0  0  0  0  0  0  0  0  0  0
   16.4166   39.2620   11.4217 O   0  0  0  0  0  0  0  0  0  0  0  0
   13.4746   43.3168    5.5340 N   0  0  0  0  0  0  0  0  0  0  0  0
   16.3568   40.8465    9.7309 N   0  0  0  0  0  0  0  0  0  0  0  0
  1  2  1  0
  2 23  1  0
  3 23  1  0
  4  3  1  0
  4  5  1  1
  4 25  1  0
  4 22  1  0
  6 25  1  0
  7  8  2  0
  8 29  1  0
  9 10  1  0
 11 12  2  0
 13 27  1  0
 13 17  2  0
 14 27  1  0
 14 15  1  0
 14 16  1  0
 18 10  2  0
 19 20  2  0
 21 30  1  0
 21  6  2  0
 29  9  1  0
 30 22  1  0
  3 24  2  0
  6  7  1  0
  8 19  1  0
  9 26  2  0
 10 11  1  0
 12 13  1  0
 17 18  1  0
 20 21  1  0
 22 28  2  0
M  END
>  <rmsd>  (568) 
0.234230265

$$$$
MolPort-039-210-464 CSSS03436984975 MCULE-9477908329 PubChem-121017021
     RDKit          3D

 17 18  0  0  0  0  0  0  0  0999 V2000
   13.3799   45.9168    6.5643 C   0  0  0  0  0  0  0  0  0  0  0  0
   14.2127   42.5356    6.6241 C   0  0  0  0  0  0  0  0  0  0  0  0
   14.0410   41.2320    7.0287 C   0  0  0  0  0  0  0  0  0  0  0  0
   15.1637   39.7736    8.6965 C   0  0  0  0  0  0  0  0  0  0  0  0
   14.5840   39.8874   10.0976 C   0  0  1  0  0  0  0  0  0  0  0  0
   13.0460   39.9113   10.0433 C   0  0  0  0  0  0  0  0  0  0  0  0
   12.4282   39.0168   11.1211 C   0  0  0  0  0  0  0  0  0  0  0  0
   13.1950   39.1141   12.4423 C   0  0  0  0  0  0  0  0  0  0  0  0
   14.7154   39.1492   12.2169 C   0  0  0  0  0  0  0  0  0  0  0  0
   15.2627   43.0723    7.3455 C   0  0  0  0  0  0  0  0  0  0  0  0
   13.6986   44.8487    5.1795 S   0  0  0  0  0  0  0  0  0  0  0  0
   12.7660   45.2090    4.0583 O   0  0  0  0  0  0  0  0  0  0  0  0
   15.1170   45.0200    4.7139 O   0  0  0  0  0  0  0  0  0  0  0  0
   15.0484   38.8217   10.8894 O   0  0  0  0  0  0  0  0  0  0  0  0
   13.4280   43.2001    5.6334 N   0  0  0  0  0  0  0  0  0  0  0  0
   14.9804   41.0179    7.9666 N   0  0  0  0  0  0  0  0  0  0  0  0
   15.7114   42.1037    8.1674 N   0  0  0  0  0  0  0  0  0  0  0  0
  1 11  1  0
  3 16  1  0
  4 16  1  0
  5  4  1  6
  5  6  1  0
  5 14  1  0
  6  7  1  0
  7  8  1  0
  8  9  1  0
  9 14  1  0
 10  2  1  0
 11 15  1  0
 15  2  1  0
 16 17  1  0
  2  3  2  0
 10 17  2  0
 11 12  2  0
 11 13  2  0
M  END
>  <rmsd>  (569) 
0.234140739

$$$$
MolPort-021-777-938 47305697 CSC047387094 CSSS00047387094 MCULE-1790405355 PubChem-56920870 ZINC000047305697
     RDKit          3D

 25 27  0  0  0  0  0  0  0  0999 V2000
   13.3788   39.2445   11.2481 C   0  0  0  0  0  0  0  0  0  0  0  0
   13.8146   40.0270    9.2320 C   0  0  0  0  0  0  0  0  0  0  0  0
   14.4245   41.1299    8.4385 C   0  0  0  0  0  0  0  0  0  0  0  0
   15.7188   41.5772    8.7263 C   0  0  0  0  0  0  0  0  0  0  0  0
   16.2871   42.6058    7.9705 C   0  0  0  0  0  0  0  0  0  0  0  0
   15.5627   43.1859    6.9255 C   0  0  0  0  0  0  0  0  0  0  0  0
   14.2654   42.7410    6.6282 C   0  0  0  0  0  0  0  0  0  0  0  0
   13.8945   44.3655    4.6774 C   0  0  0  0  0  0  0  0  0  0  0  0
   12.9565   44.8473    3.6202 C   0  0  0  0  0  0  0  0  0  0  0  0
   11.6771   45.4067    4.2508 C   0  0  0  0  0  0  0  0  0  0  0  0
   10.4615   45.0821    3.3891 C   0  0  0  0  0  0  0  0  0  0  0  0
    9.3470   43.3968    2.1813 C   0  0  0  0  0  0  0  0  0  0  0  0
    7.9457   43.1362    2.6524 C   0  0  0  0  0  0  0  0  0  0  0  0
    7.6083   43.1132    4.0156 C   0  0  0  0  0  0  0  0  0  0  0  0
    6.2906   42.8665    4.4120 C   0  0  0  0  0  0  0  0  0  0  0  0
    5.3029   42.6408    3.4498 C   0  0  0  0  0  0  0  0  0  0  0  0
    5.6327   42.6617    2.0917 C   0  0  0  0  0  0  0  0  0  0  0  0
    6.9508   42.9082    1.6955 C   0  0  0  0  0  0  0  0  0  0  0  0
   11.4988   42.8764    2.9919 C   0  0  0  0  0  0  0  0  0  0  0  0
   12.6864   43.7556    2.5787 C   0  0  0  0  0  0  0  0  0  0  0  0
   13.7039   41.7105    7.3900 C   0  0  0  0  0  0  0  0  0  0  0  0
   13.6571   40.4246   10.5604 O   0  0  0  0  0  0  0  0  0  0  0  0
   15.0338   44.8941    4.7704 O   0  0  0  0  0  0  0  0  0  0  0  0
   13.4914   43.3117    5.5648 N   0  0  0  0  0  0  0  0  0  0  0  0
   10.2647   43.6295    3.2884 N   0  0  0  0  0  0  0  0  0  0  0  0
  1 22  1  0
  2 22  1  0
  2  3  1  0
  4  5  2  0
  6  7  2  0
  7 24  1  0
  9  8  1  0
  9 10  1  0
 10 11  1  0
 11 25  1  0
 12 25  1  0
 12 13  1  0
 14 15  2  0
 16 17  2  0
 18 13  2  0
 19 25  1  0
 19 20  1  0
 20  9  1  0
 21  3  2  0
 24  8  1  0
  3  4  1  0
  5  6  1  0
  7 21  1  0
  8 23  2  0
 13 14  1  0
 15 16  1  0
 17 18  1  0
M  END
>  <rmsd>  (570) 
0.234093592

$$$$
MolPort-008-272-732 35316707 MCULE-3221739527 PubChem-46951627 ZINC000035316707
     RDKit          3D

 28 31  0  0  0  0  0  0  0  0999 V2000
   14.7349   42.2398    2.1111 C   0  0  0  0  0  0  0  0  0  0  0  0
   15.4934   43.2444    0.4324 C   0  0  0  0  0  0  0  0  0  0  0  0
   14.3368   43.8671    0.8141 C   0  0  0  0  0  0  0  0  0  0  0  0
   13.8361   44.9810    0.1430 C   0  0  0  0  0  0  0  0  0  0  0  0
   14.5720   45.4481   -0.9621 C   0  0  0  0  0  0  0  0  0  0  0  0
   15.7664   44.8032   -1.3595 C   0  0  0  0  0  0  0  0  0  0  0  0
   16.2437   43.6812   -0.6552 C   0  0  0  0  0  0  0  0  0  0  0  0
   12.6506   43.5622    2.6644 C   0  0  0  0  0  0  0  0  0  0  0  0
   12.9328   44.7242    3.6088 C   0  0  0  0  0  0  0  0  0  0  0  0
   13.8914   44.3239    4.6782 C   0  0  0  0  0  0  0  0  0  0  0  0
   14.3732   42.7152    6.6047 C   0  0  0  0  0  0  0  0  0  0  0  0
   16.1479   41.9516    8.0829 C   0  0  0  0  0  0  0  0  0  0  0  0
   14.9089   41.3694    8.3076 C   0  0  0  0  0  0  0  0  0  0  0  0
   14.7459   40.4203    9.3216 C   0  0  0  0  0  0  0  0  0  0  0  0
   15.8715   40.0765   10.0997 C   0  0  0  0  0  0  0  0  0  0  0  0
   17.1221   40.6764    9.8592 C   0  0  0  0  0  0  0  0  0  0  0  0
   17.2704   41.6274    8.8388 C   0  0  0  0  0  0  0  0  0  0  0  0
   13.2358   38.9009   10.5778 C   0  0  0  0  0  0  0  0  0  0  0  0
   13.0812   39.6225   11.9034 C   0  0  0  0  0  0  0  0  0  0  0  0
   14.6350   41.4086    3.0522 O   0  0  0  0  0  0  0  0  0  0  0  0
   15.7312   42.2378    1.2412 O   0  0  0  0  0  0  0  0  0  0  0  0
   15.0069   44.9029    4.7505 O   0  0  0  0  0  0  0  0  0  0  0  0
   13.4912   39.8370    9.5367 O   0  0  0  0  0  0  0  0  0  0  0  0
   16.6602   45.4063   -2.7378 Cl  0  0  0  0  0  0  0  0  0  0  0  0
   13.8384   43.2304    1.8858 N   0  0  0  0  0  0  0  0  0  0  0  0
   13.5243   43.2991    5.6097 N   0  0  0  0  0  0  0  0  0  0  0  0
   13.9158   41.7907    7.4825 N   0  0  0  0  0  0  0  0  0  0  0  0
   16.0277   43.0375    6.8108 S   0  0  0  0  0  0  0  0  0  0  0  0
  1 21  1  0
  2 21  1  0
  3  4  2  0
  3 25  1  0
  5  6  2  0
  6 24  1  0
  7  2  2  0
  8 25  1  0
  8  9  1  0
  9 10  1  0
 10 26  1  0
 11 28  1  0
 12 28  1  0
 13 14  2  0
 13 27  1  0
 14 23  1  0
 15 16  2  0
 17 12  2  0
 18 23  1  0
 18 19  1  0
 25  1  1  0
 26 11  1  0
  1 20  2  0
  2  3  1  0
  4  5  1  0
  6  7  1  0
 10 22  2  0
 11 27  2  0
 12 13  1  0
 14 15  1  0
 16 17  1  0
M  END
>  <rmsd>  (571) 
0.234053537

$$$$
MolPort-046-675-095 MCULE-2555886565 PubChem-137943872
     RDKit          3D

 19 19  0  0  0  0  0  0  0  0999 V2000
   13.4471   39.4804   11.0997 C   0  0  0  0  0  0  0  0  0  0  0  0
   14.5461   40.1719    9.3171 C   0  0  0  0  0  0  0  0  0  0  0  0
   14.8009   41.2763    8.3462 C   0  0  0  0  0  0  0  0  0  0  0  0
   16.0007   41.9897    8.2629 C   0  0  0  0  0  0  0  0  0  0  0  0
   14.2808   42.7097    6.6016 C   0  0  0  0  0  0  0  0  0  0  0  0
   13.8883   44.3691    4.6975 C   0  0  0  0  0  0  0  0  0  0  0  0
   13.2455   45.8827    2.8047 C   0  0  0  0  0  0  0  0  0  0  0  0
   14.4182   45.5256    1.9078 C   0  0  0  0  0  0  0  0  0  0  0  0
   12.0217   46.0817    1.9358 C   0  0  0  0  0  0  0  0  0  0  0  0
   13.5330   47.1837    3.5342 C   0  0  0  0  0  0  0  0  0  0  0  0
   13.8342   41.6772    7.4119 C   0  0  0  0  0  0  0  0  0  0  0  0
   17.2048   41.8134    9.0926 C   0  0  0  0  0  0  0  0  0  0  0  0
   13.5147   40.5303   10.1853 O   0  0  0  0  0  0  0  0  0  0  0  0
   15.0347   44.8853    4.7954 O   0  0  0  0  0  0  0  0  0  0  0  0
   12.9801   44.8293    3.7343 O   0  0  0  0  0  0  0  0  0  0  0  0
   17.2421   40.8562   10.0988 O   0  0  0  0  0  0  0  0  0  0  0  0
   18.2164   42.5361    8.8937 O   0  0  0  0  0  0  0  0  0  0  0  0
   15.8563   43.1253    7.0281 S   0  0  0  0  0  0  0  0  0  0  0  0
   13.4885   43.3037    5.5663 N   0  0  0  0  0  0  0  0  0  0  0  0
  1 13  1  0
  2 13  1  0
  2  3  1  0
  4 18  1  0
  4 12  1  0
  5 18  1  0
  5 19  1  0
  6 15  1  0
  7 15  1  0
  7  8  1  0
  7  9  1  0
  7 10  1  0
 11  3  1  0
 12 16  1  0
 19  6  1  0
  3  4  2  0
  5 11  2  0
  6 14  2  0
 12 17  2  0
M  END
>  <rmsd>  (572) 
0.234009445

$$$$
MolPort-002-291-296 2877491 CSSS00160334066 MCULE-4069933843 PubChem-2229791 ZINC000002877491 ZINC02877491
     RDKit          3D

 21 22  0  0  0  0  0  0  0  0999 V2000
   12.9432   44.7646    3.6211 C   0  0  0  0  0  0  0  0  0  0  0  0
   13.8926   44.3344    4.6801 C   0  0  0  0  0  0  0  0  0  0  0  0
   14.3214   42.8015    6.6567 C   0  0  0  0  0  0  0  0  0  0  0  0
   16.1162   42.5963    7.9927 C   0  0  0  0  0  0  0  0  0  0  0  0
   15.2882   41.6316    8.5535 C   0  0  0  0  0  0  0  0  0  0  0  0
   15.6185   40.8088    9.7540 C   0  0  0  0  0  0  0  0  0  0  0  0
   15.0479   41.4168   10.9997 C   0  0  0  0  0  0  0  0  0  0  0  0
   14.0022   40.7920   11.7204 C   0  0  0  0  0  0  0  0  0  0  0  0
   13.5055   41.4169   12.8756 C   0  0  0  0  0  0  0  0  0  0  0  0
   14.0377   42.6292   13.3185 C   0  0  0  0  0  0  0  0  0  0  0  0
   15.0773   43.2332   12.6120 C   0  0  0  0  0  0  0  0  0  0  0  0
   15.5805   42.6290   11.4594 C   0  0  0  0  0  0  0  0  0  0  0  0
   13.4109   39.4744   11.2806 C   0  0  0  0  0  0  0  0  0  0  0  0
   15.0243   44.8815    4.7568 O   0  0  0  0  0  0  0  0  0  0  0  0
   13.5046   43.3053    5.5954 N   0  0  0  0  0  0  0  0  0  0  0  0
   15.5697   43.2435    6.9289 N   0  0  0  0  0  0  0  0  0  0  0  0
   15.7487   44.7504   13.1683 Cl  0  0  0  0  0  0  0  0  0  0  0  0
   12.4663   39.0240   12.1882 F   0  0  0  0  0  0  0  0  0  0  0  0
   14.4095   38.5223   11.1808 F   0  0  0  0  0  0  0  0  0  0  0  0
   12.7999   39.6244   10.0499 F   0  0  0  0  0  0  0  0  0  0  0  0
   13.8300   41.5940    7.7153 S   0  0  0  0  0  0  0  0  0  0  0  0
  1  2  1  0
  2 15  1  0
  3 21  1  0
  4 16  1  0
  5 21  1  0
  6  5  1  0
  6  7  1  0
  8  9  2  0
 10 11  2  0
 11 17  1  0
 12  7  2  0
 13  8  1  0
 13 18  1  0
 13 19  1  0
 13 20  1  0
 15  3  1  0
  2 14  2  0
  3 16  2  0
  4  5  2  0
  7  8  1  0
  9 10  1  0
 11 12  1  0
M  END
>  <rmsd>  (573) 
0.233869284

$$$$
MolPort-000-122-710 5059970 MCULE-4388863312 PubChem-6492870 ZINC000005059970 ZINC05059970
     RDKit          3D

 26 28  0  0  0  0  0  0  0  0999 V2000
   17.5227   41.9951    4.9469 C   0  0  0  0  0  0  0  0  0  0  0  0
   15.5707   42.3201    6.4382 C   0  0  0  0  0  0  0  0  0  0  0  0
   16.2554   41.7624    7.5294 C   0  0  0  0  0  0  0  0  0  0  0  0
   15.6151   41.5921    8.7567 C   0  0  0  0  0  0  0  0  0  0  0  0
   14.2747   41.9653    8.9153 C   0  0  0  0  0  0  0  0  0  0  0  0
   13.5945   42.5373    7.8331 C   0  0  0  0  0  0  0  0  0  0  0  0
   14.2346   42.7433    6.6063 C   0  0  0  0  0  0  0  0  0  0  0  0
   13.9662   44.2745    4.5903 C   0  0  0  0  0  0  0  0  0  0  0  0
   13.1588   44.5919    3.3841 C   0  0  0  0  0  0  0  0  0  0  0  0
   13.5745   41.7294   10.1936 C   0  0  0  0  0  0  0  0  0  0  0  0
   14.2133   40.9222   11.2798 C   0  0  0  0  0  0  0  0  0  0  0  0
   14.2600   38.7209    9.8162 C   0  0  0  0  0  0  0  0  0  0  0  0
   16.1456   37.9600    8.6226 C   0  0  0  0  0  0  0  0  0  0  0  0
   15.4106   38.0619    7.4280 C   0  0  0  0  0  0  0  0  0  0  0  0
   15.9918   37.6511    6.1051 C   0  0  0  0  0  0  0  0  0  0  0  0
   17.5183   37.6560    6.1253 C   0  0  0  0  0  0  0  0  0  0  0  0
   18.0170   36.8780    7.3357 C   0  0  0  0  0  0  0  0  0  0  0  0
   17.6041   37.5967    8.6184 C   0  0  0  0  0  0  0  0  0  0  0  0
   16.1900   42.4263    5.1875 O   0  0  0  0  0  0  0  0  0  0  0  0
   15.0478   44.8876    4.7920 O   0  0  0  0  0  0  0  0  0  0  0  0
   12.4106   42.1791   10.3714 O   0  0  0  0  0  0  0  0  0  0  0  0
   13.4751   43.3191    5.5354 N   0  0  0  0  0  0  0  0  0  0  0  0
   15.5529   38.3095    9.7922 N   0  0  0  0  0  0  0  0  0  0  0  0
   14.1141   38.4567    7.4947 N   0  0  0  0  0  0  0  0  0  0  0  0
   13.5521   38.7836    8.6587 N   0  0  0  0  0  0  0  0  0  0  0  0
   13.5078   39.2405   11.3546 S   0  0  0  0  0  0  0  0  0  0  0  0
  1 19  1  0
  2 19  1  0
  3  4  2  0
  5  6  2  0
  5 10  1  0
  7 22  1  0
  7  2  2  0
  9  8  1  0
 11 10  1  0
 11 26  1  0
 12 26  1  0
 12 25  2  0
 13 23  2  0
 14 24  2  0
 15 14  1  0
 15 16  1  0
 16 17  1  0
 17 18  1  0
 18 13  1  0
 22  8  1  0
  2  3  1  0
  4  5  1  0
  6  7  1  0
  8 20  2  0
 10 21  2  0
 12 23  1  0
 13 14  1  0
 24 25  1  0
M  END
>  <rmsd>  (574) 
0.233837798

$$$$
MolPort-035-706-973 CSSS03437789228 MCULE-3084670648 PubChem-91938298
     RDKit          3D

 28 30  0  0  0  0  0  0  0  0999 V2000
   13.4896   35.8994    6.9175 C   0  0  0  0  0  0  0  0  0  0  0  0
   14.6900   36.2434    7.7743 C   0  0  0  0  0  0  0  0  0  0  0  0
   14.5215   37.8333    9.6479 C   0  0  0  0  0  0  0  0  0  0  0  0
   14.3923   39.2564   10.1193 C   0  0  1  0  0  0  0  0  0  0  0  0
   13.5054   39.3164   11.3549 C   0  0  0  0  0  0  0  0  0  0  0  0
   14.3505   41.0584    8.3637 C   0  0  0  0  0  0  0  0  0  0  0  0
   13.6460   41.6777    7.3272 C   0  0  0  0  0  0  0  0  0  0  0  0
   14.2319   42.7122    6.5892 C   0  0  0  0  0  0  0  0  0  0  0  0
   13.8968   44.3852    4.6691 C   0  0  0  0  0  0  0  0  0  0  0  0
   12.9903   44.9043    3.6179 C   0  0  0  0  0  0  0  0  0  0  0  0
   13.4380   45.9484    2.7925 C   0  0  0  0  0  0  0  0  0  0  0  0
   12.6188   46.4694    1.7892 C   0  0  0  0  0  0  0  0  0  0  0  0
   11.3377   45.9522    1.5971 C   0  0  0  0  0  0  0  0  0  0  0  0
   10.8744   44.9141    2.4074 C   0  0  0  0  0  0  0  0  0  0  0  0
   11.6912   44.3865    3.4161 C   0  0  0  0  0  0  0  0  0  0  0  0
   15.5367   43.1248    6.9017 C   0  0  0  0  0  0  0  0  0  0  0  0
   16.2430   42.5102    7.9392 C   0  0  0  0  0  0  0  0  0  0  0  0
   15.6492   41.4776    8.6685 C   0  0  0  0  0  0  0  0  0  0  0  0
   15.7665   39.7867   10.4763 C   0  0  0  0  0  0  0  0  0  0  0  0
   14.5504   37.5633    8.2773 O   0  0  0  0  0  0  0  0  0  0  0  0
   14.6594   36.8961   10.4834 O   0  0  0  0  0  0  0  0  0  0  0  0
   13.7485   40.0259    9.0911 O   0  0  0  0  0  0  0  0  0  0  0  0
   15.0457   44.8898    4.7989 O   0  0  0  0  0  0  0  0  0  0  0  0
   16.4147   39.2717   11.4268 O   0  0  0  0  0  0  0  0  0  0  0  0
   13.4750   43.3188    5.5329 N   0  0  0  0  0  0  0  0  0  0  0  0
   16.3559   40.8543    9.7341 N   0  0  0  0  0  0  0  0  0  0  0  0
    9.6277   44.4190    2.2121 F   0  0  0  0  0  0  0  0  0  0  0  0
   11.2067   43.3779    4.1839 F   0  0  0  0  0  0  0  0  0  0  0  0
  1  2  1  0
  2 20  1  0
  3 20  1  0
  4  3  1  0
  4  5  1  1
  4 22  1  0
  4 19  1  0
  6 22  1  0
  7  8  2  0
  8 25  1  0
  9 10  1  0
 11 12  2  0
 13 14  2  0
 14 27  1  0
 15 28  1  0
 15 10  2  0
 16 17  2  0
 18 26  1  0
 18  6  2  0
 25  9  1  0
 26 19  1  0
  3 21  2  0
  6  7  1  0
  8 16  1  0
  9 23  2  0
 10 11  1  0
 12 13  1  0
 14 15  1  0
 17 18  1  0
 19 24  2  0
M  END
>  <rmsd>  (575) 
0.233836785

$$$$
MolPort-028-889-943 ChemDiv-V030-3041 MCULE-3455100685 PubChem-83287203 ZINC000096276482 ZINC96276482
     RDKit          3D

 31 34  0  0  0  0  0  0  0  0999 V2000
   22.8597   39.8150    8.6883 C   0  0  0  0  0  0  0  0  0  0  0  0
   22.0120   41.0667   10.2942 C   0  0  0  0  0  0  0  0  0  0  0  0
   21.3009   42.3583   10.6644 C   0  0  0  0  0  0  0  0  0  0  0  0
   18.9152   41.6190   10.2124 C   0  0  0  0  0  0  0  0  0  0  0  0
   17.6841   41.7693    9.4126 C   0  0  0  0  0  0  0  0  0  0  0  0
   17.5594   42.6718    8.3518 C   0  0  0  0  0  0  0  0  0  0  0  0
   16.2699   42.4747    7.9000 C   0  0  0  0  0  0  0  0  0  0  0  0
   15.5900   43.1043    6.8615 C   0  0  0  0  0  0  0  0  0  0  0  0
   14.2567   42.7167    6.6077 C   0  0  0  0  0  0  0  0  0  0  0  0
   13.9064   44.3531    4.6636 C   0  0  0  0  0  0  0  0  0  0  0  0
   12.9671   44.8433    3.6101 C   0  0  0  0  0  0  0  0  0  0  0  0
   12.5496   43.6924    2.7125 C   0  0  0  0  0  0  0  0  0  0  0  0
   13.5947   44.6759    2.2379 C   0  0  0  0  0  0  0  0  0  0  0  0
   13.6561   41.7144    7.4012 C   0  0  0  0  0  0  0  0  0  0  0  0
   14.3661   41.0951    8.4443 C   0  0  0  0  0  0  0  0  0  0  0  0
   15.6808   41.5050    8.6644 C   0  0  0  0  0  0  0  0  0  0  0  0
   16.2572   40.0667   10.6298 C   0  0  0  0  0  0  0  0  0  0  0  0
   15.5166   40.6914   11.7727 C   0  0  0  0  0  0  0  0  0  0  0  0
   14.1762   40.3567   12.0471 C   0  0  0  0  0  0  0  0  0  0  0  0
   13.4383   39.3532   11.2272 C   0  0  0  0  0  0  0  0  0  0  0  0
   13.5129   40.9667   13.1170 C   0  0  0  0  0  0  0  0  0  0  0  0
   14.1742   41.9041   13.9146 C   0  0  0  0  0  0  0  0  0  0  0  0
   15.5045   42.2345   13.6467 C   0  0  0  0  0  0  0  0  0  0  0  0
   16.2089   43.2304   14.4950 C   0  0  0  0  0  0  0  0  0  0  0  0
   16.1729   41.6294   12.5799 C   0  0  0  0  0  0  0  0  0  0  0  0
   22.3952   41.1023    8.9533 O   0  0  0  0  0  0  0  0  0  0  0  0
   18.9852   40.7473   11.1202 O   0  0  0  0  0  0  0  0  0  0  0  0
   15.0392   44.8928    4.7847 O   0  0  0  0  0  0  0  0  0  0  0  0
   20.0355   42.4701    9.9508 N   0  0  0  0  0  0  0  0  0  0  0  0
   13.4848   43.3110    5.5553 N   0  0  0  0  0  0  0  0  0  0  0  0
   16.5385   41.0602    9.5964 N   0  0  0  0  0  0  0  0  0  0  0  0
  1 26  1  0
  2 26  1  0
  2  3  1  0
  3 29  1  0
  4  5  1  0
  6  7  1  0
  8  9  2  0
  9 30  1  0
 11 10  1  0
 11 12  1  0
 12 13  1  0
 13 11  1  0
 14 15  2  0
 16 31  1  0
 16  7  2  0
 17 31  1  0
 17 18  1  0
 19 21  2  0
 20 19  1  0
 22 23  2  0
 24 23  1  0
 25 18  2  0
 29  4  1  0
 30 10  1  0
 31  5  1  0
  4 27  2  0
  5  6  2  0
  7  8  1  0
  9 14  1  0
 10 28  2  0
 15 16  1  0
 18 19  1  0
 21 22  1  0
 23 25  1  0
M  END
>  <rmsd>  (576) 
0.23382543

$$$$
MolPort-035-706-979 CSSS03437789234 MCULE-2375191643 PubChem-91938304
     RDKit          3D

 28 30  0  0  0  0  0  0  0  0999 V2000
   13.3374   35.4829    7.9698 C   0  0  0  0  0  0  0  0  0  0  0  0
   14.6422   36.2301    7.7631 C   0  0  0  0  0  0  0  0  0  0  0  0
   14.5134   37.8277    9.6504 C   0  0  0  0  0  0  0  0  0  0  0  0
   14.3909   39.2532   10.1161 C   0  0  1  0  0  0  0  0  0  0  0  0
   13.5056   39.3216   11.3524 C   0  0  0  0  0  0  0  0  0  0  0  0
   14.3514   41.0541    8.3591 C   0  0  0  0  0  0  0  0  0  0  0  0
   13.6469   41.6750    7.3236 C   0  0  0  0  0  0  0  0  0  0  0  0
   14.2331   42.7100    6.5866 C   0  0  0  0  0  0  0  0  0  0  0  0
   13.8961   44.3854    4.6682 C   0  0  0  0  0  0  0  0  0  0  0  0
   12.9911   44.9097    3.6143 C   0  0  0  0  0  0  0  0  0  0  0  0
   13.4554   45.9567    2.8006 C   0  0  0  0  0  0  0  0  0  0  0  0
   12.6549   46.4945    1.7921 C   0  0  0  0  0  0  0  0  0  0  0  0
   11.3727   45.9924    1.5801 C   0  0  0  0  0  0  0  0  0  0  0  0
   10.8924   44.9531    2.3767 C   0  0  0  0  0  0  0  0  0  0  0  0
   11.6867   44.4005    3.3967 C   0  0  0  0  0  0  0  0  0  0  0  0
    9.8903   42.8063    4.0158 C   0  0  0  0  0  0  0  0  0  0  0  0
   15.5382   43.1213    6.8989 C   0  0  0  0  0  0  0  0  0  0  0  0
   16.2448   42.5048    7.9352 C   0  0  0  0  0  0  0  0  0  0  0  0
   15.6506   41.4718    8.6636 C   0  0  0  0  0  0  0  0  0  0  0  0
   15.7677   39.7793   10.4698 C   0  0  0  0  0  0  0  0  0  0  0  0
   14.5431   37.5521    8.2791 O   0  0  0  0  0  0  0  0  0  0  0  0
   14.6515   36.8941   10.4900 O   0  0  0  0  0  0  0  0  0  0  0  0
   13.7490   40.0212    9.0854 O   0  0  0  0  0  0  0  0  0  0  0  0
   15.0453   44.8891    4.8001 O   0  0  0  0  0  0  0  0  0  0  0  0
   11.1893   43.3573    4.1874 O   0  0  0  0  0  0  0  0  0  0  0  0
   16.4166   39.2621   11.4187 O   0  0  0  0  0  0  0  0  0  0  0  0
   13.4759   43.3182    5.5315 N   0  0  0  0  0  0  0  0  0  0  0  0
   16.3578   40.8462    9.7275 N   0  0  0  0  0  0  0  0  0  0  0  0
  1  2  1  0
  2 21  1  0
  3 21  1  0
  4  3  1  0
  4  5  1  1
  4 23  1  0
  4 20  1  0
  6 23  1  0
  7  8  2  0
  8 27  1  0
  9 10  1  0
 11 12  2  0
 13 14  2  0
 15 25  1  0
 15 10  2  0
 16 25  1  0
 17 18  2  0
 19 28  1  0
 19  6  2  0
 27  9  1  0
 28 20  1  0
  3 22  2  0
  6  7  1  0
  8 17  1  0
  9 24  2  0
 10 11  1  0
 12 13  1  0
 14 15  1  0
 18 19  1  0
 20 26  2  0
M  END
>  <rmsd>  (577) 
0.233688965

$$$$
MolPort-008-317-398 36357030 CSSS00160790402 LN00864406 MCULE-2146435263 PubChem-45491985 ZINC000036357030
     RDKit          3D

 31 35  0  0  0  0  0  0  0  0999 V2000
   11.3723   40.2680    9.9506 C   0  0  0  0  0  0  0  0  0  0  0  0
   12.3319   39.6916    8.9635 C   0  0  0  0  0  0  0  0  0  0  0  0
   14.4054   39.5613   10.4283 C   0  0  0  0  0  0  0  0  0  0  0  0
   13.5186   38.6670   11.2913 C   0  0  0  0  0  0  0  0  0  0  0  0
   12.5318   39.4937   12.1115 C   0  0  0  0  0  0  0  0  0  0  0  0
   10.4473   40.8318   11.7816 C   0  0  0  0  0  0  0  0  0  0  0  0
    9.7194   41.3245   10.7375 C   0  0  0  0  0  0  0  0  0  0  0  0
    8.5642   42.0769   10.9339 C   0  0  0  0  0  0  0  0  0  0  0  0
    8.1644   42.3163   12.2620 C   0  0  0  0  0  0  0  0  0  0  0  0
    8.9182   41.8065   13.3428 C   0  0  0  0  0  0  0  0  0  0  0  0
   10.0817   41.0501   13.1100 C   0  0  0  0  0  0  0  0  0  0  0  0
   14.3141   41.1629    8.4868 C   0  0  0  0  0  0  0  0  0  0  0  0
   15.6154   41.6034    8.7799 C   0  0  0  0  0  0  0  0  0  0  0  0
   16.2165   42.6046    8.0138 C   0  0  0  0  0  0  0  0  0  0  0  0
   15.5230   43.1772    6.9460 C   0  0  0  0  0  0  0  0  0  0  0  0
   14.2233   42.7530    6.6366 C   0  0  0  0  0  0  0  0  0  0  0  0
   13.6296   41.7493    7.4083 C   0  0  0  0  0  0  0  0  0  0  0  0
   13.9151   44.3499    4.6556 C   0  0  0  0  0  0  0  0  0  0  0  0
   13.0154   44.7910    3.5526 C   0  0  0  0  0  0  0  0  0  0  0  0
   13.7914   43.3941    1.6488 C   0  0  0  0  0  0  0  0  0  0  0  0
   14.9875   44.1169    1.5058 C   0  0  0  0  0  0  0  0  0  0  0  0
   15.9224   43.7476    0.5344 C   0  0  0  0  0  0  0  0  0  0  0  0
   15.6681   42.6559   -0.3002 C   0  0  0  0  0  0  0  0  0  0  0  0
   14.4789   41.9342   -0.1637 C   0  0  0  0  0  0  0  0  0  0  0  0
   13.5438   42.3035    0.8080 C   0  0  0  0  0  0  0  0  0  0  0  0
   13.6913   40.1313    9.2784 N   0  0  0  0  0  0  0  0  0  0  0  0
   11.4989   40.1523   11.3029 N   0  0  0  0  0  0  0  0  0  0  0  0
   10.2830   40.9826    9.5652 N   0  0  0  0  0  0  0  0  0  0  0  0
   13.4796   43.3153    5.5472 N   0  0  0  0  0  0  0  0  0  0  0  0
   12.8345   43.7386    2.6100 O   0  0  0  0  0  0  0  0  0  0  0  0
   15.0462   44.8888    4.7815 O   0  0  0  0  0  0  0  0  0  0  0  0
  2  1  1  0
  2 26  1  0
  3 26  1  0
  3  4  1  0
  4  5  1  0
  5 27  1  0
  7  8  2  0
  7 28  1  0
  9 10  2  0
 11  6  2  0
 13 14  2  0
 15 16  2  0
 16 29  1  0
 17 12  2  0
 19 18  1  0
 19 30  1  0
 20 30  1  0
 21 22  2  0
 23 24  2  0
 25 20  2  0
 26 12  1  0
 27  6  1  0
 27  1  1  0
 29 18  1  0
  1 28  2  0
  6  7  1  0
  8  9  1  0
 10 11  1  0
 12 13  1  0
 14 15  1  0
 16 17  1  0
 18 31  2  0
 20 21  1  0
 22 23  1  0
 24 25  1  0
M  END
>  <rmsd>  (578) 
0.23363927

$$$$
MolPort-035-706-962 CSSS03437789216 MCULE-3816685128 PubChem-91938287
     RDKit          3D

 27 29  0  0  0  0  0  0  0  0999 V2000
   13.4915   35.8934    6.9189 C   0  0  0  0  0  0  0  0  0  0  0  0
   14.6902   36.2385    7.7773 C   0  0  0  0  0  0  0  0  0  0  0  0
   14.5185   37.8287    9.6504 C   0  0  0  0  0  0  0  0  0  0  0  0
   14.3885   39.2518   10.1215 C   0  0  1  0  0  0  0  0  0  0  0  0
   13.5005   39.3119   11.3563 C   0  0  0  0  0  0  0  0  0  0  0  0
   14.3477   41.0539    8.3661 C   0  0  0  0  0  0  0  0  0  0  0  0
   13.6439   41.6732    7.3289 C   0  0  0  0  0  0  0  0  0  0  0  0
   14.2301   42.7082    6.5917 C   0  0  0  0  0  0  0  0  0  0  0  0
   13.9018   44.3811    4.6749 C   0  0  0  0  0  0  0  0  0  0  0  0
   12.9895   44.8806    3.6401 C   0  0  0  0  0  0  0  0  0  0  0  0
    9.8886   44.8418    1.9192 C   0  0  0  0  0  0  0  0  0  0  0  0
   12.1116   45.9831    2.0010 C   0  0  0  0  0  0  0  0  0  0  0  0
   11.8726   46.9352    0.8801 C   0  0  0  0  0  0  0  0  0  0  0  0
   13.2747   45.9040    2.7433 C   0  0  0  0  0  0  0  0  0  0  0  0
   15.5344   43.1214    6.9056 C   0  0  0  0  0  0  0  0  0  0  0  0
   16.2400   42.5067    7.9437 C   0  0  0  0  0  0  0  0  0  0  0  0
   15.6459   41.4735    8.6721 C   0  0  0  0  0  0  0  0  0  0  0  0
   15.7624   39.7825   10.4798 C   0  0  0  0  0  0  0  0  0  0  0  0
   14.5487   37.5585    8.2800 O   0  0  0  0  0  0  0  0  0  0  0  0
   14.6560   36.8917   10.4863 O   0  0  0  0  0  0  0  0  0  0  0  0
   13.7455   40.0211    9.0925 O   0  0  0  0  0  0  0  0  0  0  0  0
   15.0476   44.8923    4.7966 O   0  0  0  0  0  0  0  0  0  0  0  0
   16.4100   39.2675   11.4307 O   0  0  0  0  0  0  0  0  0  0  0  0
   13.4745   43.3153    5.5349 N   0  0  0  0  0  0  0  0  0  0  0  0
   11.7489   44.3918    3.4412 N   0  0  0  0  0  0  0  0  0  0  0  0
   11.2254   45.0724    2.4397 N   0  0  0  0  0  0  0  0  0  0  0  0
   16.3519   40.8503    9.7381 N   0  0  0  0  0  0  0  0  0  0  0  0
  1  2  1  0
  2 19  1  0
  3 19  1  0
  4  3  1  0
  4  5  1  1
  4 21  1  0
  4 18  1  0
  6 21  1  0
  7  8  2  0
  8 24  1  0
  9 10  1  0
 11 26  1  0
 13 12  1  0
 14 10  1  0
 15 16  2  0
 17 27  1  0
 17  6  2  0
 24  9  1  0
 26 25  1  0
 26 12  1  0
 27 18  1  0
  3 20  2  0
  6  7  1  0
  8 15  1  0
  9 22  2  0
 10 25  2  0
 12 14  2  0
 16 17  1  0
 18 23  2  0
M  END
>  <rmsd>  (579) 
0.233435139

$$$$
MolPort-035-706-986 CSSS03437789241 PubChem-102551604
     RDKit          3D

 28 30  0  0  0  0  0  0  0  0999 V2000
   13.0868   35.3495    8.4107 C   0  0  0  0  0  0  0  0  0  0  0  0
   14.2609   36.1377    7.8557 C   0  0  0  0  0  0  0  0  0  0  0  0
   14.5042   37.8111    9.6657 C   0  0  0  0  0  0  0  0  0  0  0  0
   14.3901   39.2427   10.1161 C   0  0  1  0  0  0  0  0  0  0  0  0
   13.5032   39.3127   11.3505 C   0  0  0  0  0  0  0  0  0  0  0  0
   14.3488   41.0480    8.3616 C   0  0  0  0  0  0  0  0  0  0  0  0
   13.6432   41.6705    7.3265 C   0  0  0  0  0  0  0  0  0  0  0  0
   14.2269   42.7118    6.5956 C   0  0  0  0  0  0  0  0  0  0  0  0
   13.9074   44.3685    4.6648 C   0  0  0  0  0  0  0  0  0  0  0  0
   13.0022   44.8268    3.6062 C   0  0  0  0  0  0  0  0  0  0  0  0
   13.3460   45.7977    2.7625 C   0  0  0  0  0  0  0  0  0  0  0  0
   12.4617   46.2695    1.6879 C   0  0  0  0  0  0  0  0  0  0  0  0
   11.1819   45.7252    1.4883 C   0  0  0  0  0  0  0  0  0  0  0  0
   10.3720   46.1935    0.4486 C   0  0  0  0  0  0  0  0  0  0  0  0
   10.8354   47.2063   -0.3962 C   0  0  0  0  0  0  0  0  0  0  0  0
   12.1074   47.7534   -0.1992 C   0  0  0  0  0  0  0  0  0  0  0  0
   12.9172   47.2858    0.8410 C   0  0  0  0  0  0  0  0  0  0  0  0
   15.5285   43.1293    6.9148 C   0  0  0  0  0  0  0  0  0  0  0  0
   16.2344   42.5128    7.9516 C   0  0  0  0  0  0  0  0  0  0  0  0
   15.6442   41.4725    8.6726 C   0  0  0  0  0  0  0  0  0  0  0  0
   15.7650   39.7749   10.4737 C   0  0  0  0  0  0  0  0  0  0  0  0
   14.2292   37.4776    8.3340 O   0  0  0  0  0  0  0  0  0  0  0  0
   14.8701   36.9192   10.4825 O   0  0  0  0  0  0  0  0  0  0  0  0
   13.7501   40.0080    9.0815 O   0  0  0  0  0  0  0  0  0  0  0  0
   15.0472   44.8930    4.7978 O   0  0  0  0  0  0  0  0  0  0  0  0
   16.4071   39.2722   11.4345 O   0  0  0  0  0  0  0  0  0  0  0  0
   13.4737   43.3157    5.5347 N   0  0  0  0  0  0  0  0  0  0  0  0
   16.3525   40.8451    9.7350 N   0  0  0  0  0  0  0  0  0  0  0  0
  1  2  1  0
  2 22  1  0
  3 22  1  0
  4  3  1  0
  4  5  1  1
  4 24  1  0
  4 21  1  0
  6 24  1  0
  7  8  2  0
  8 27  1  0
  9 10  1  0
 11 12  1  0
 13 14  2  0
 15 16  2  0
 17 12  2  0
 18 19  2  0
 20 28  1  0
 20  6  2  0
 27  9  1  0
 28 21  1  0
  3 23  2  0
  6  7  1  0
  8 18  1  0
  9 25  2  0
 10 11  2  0
 12 13  1  0
 14 15  1  0
 16 17  1  0
 19 20  1  0
 21 26  2  0
M  END
>  <rmsd>  (580) 
0.233428597

$$$$
MolPort-000-013-326 6157221 CSSS03436552883 MCULE-8216926894 ZINC000006157221 ZINC06157221
     RDKit          3D

 29 32  0  0  0  0  0  0  0  0999 V2000
    9.7662   39.5527   12.3192 C   0  0  0  0  0  0  0  0  0  0  0  0
   12.0860   38.9600   11.6979 C   0  0  0  0  0  0  0  0  0  0  0  0
   12.4754   40.3057   11.6009 C   0  0  0  0  0  0  0  0  0  0  0  0
   13.7877   40.6361   11.2541 C   0  0  0  0  0  0  0  0  0  0  0  0
   14.7245   39.6264   10.9954 C   0  0  0  0  0  0  0  0  0  0  0  0
   14.3377   38.2841   11.1013 C   0  0  0  0  0  0  0  0  0  0  0  0
   13.0246   37.9541   11.4478 C   0  0  0  0  0  0  0  0  0  0  0  0
   17.1968   39.6004   11.3085 C   0  0  0  0  0  0  0  0  0  0  0  0
   16.5378   40.8122    9.7020 C   0  0  0  0  0  0  0  0  0  0  0  0
   15.7352   41.4669    8.6457 C   0  0  0  0  0  0  0  0  0  0  0  0
   14.4830   40.9668    8.2634 C   0  0  0  0  0  0  0  0  0  0  0  0
   13.7534   41.5829    7.2430 C   0  0  0  0  0  0  0  0  0  0  0  0
   14.2692   42.7006    6.5807 C   0  0  0  0  0  0  0  0  0  0  0  0
   13.8719   44.4176    4.7156 C   0  0  0  0  0  0  0  0  0  0  0  0
   12.9033   44.9878    3.7624 C   0  0  0  0  0  0  0  0  0  0  0  0
   11.6028   44.4691    3.6781 C   0  0  0  0  0  0  0  0  0  0  0  0
   10.6812   45.0138    2.7790 C   0  0  0  0  0  0  0  0  0  0  0  0
   11.0535   46.0812    1.9574 C   0  0  0  0  0  0  0  0  0  0  0  0
   12.3471   46.6039    2.0341 C   0  0  0  0  0  0  0  0  0  0  0  0
   13.2690   46.0588    2.9326 C   0  0  0  0  0  0  0  0  0  0  0  0
   15.5277   43.1959    6.9514 C   0  0  0  0  0  0  0  0  0  0  0  0
   16.2564   42.5801    7.9725 C   0  0  0  0  0  0  0  0  0  0  0  0
   10.7805   38.5971   12.0400 O   0  0  0  0  0  0  0  0  0  0  0  0
   15.0361   44.8971    4.7860 O   0  0  0  0  0  0  0  0  0  0  0  0
   16.0767   39.9633   10.6515 N   0  0  0  0  0  0  0  0  0  0  0  0
   18.2880   40.1979   10.7980 N   0  0  0  0  0  0  0  0  0  0  0  0
   17.8767   40.9530    9.7900 N   0  0  0  0  0  0  0  0  0  0  0  0
   13.4847   43.3145    5.5492 N   0  0  0  0  0  0  0  0  0  0  0  0
   17.2461   38.5395   12.7513 S   0  0  0  0  0  0  0  0  0  0  0  0
  1 23  1  0
  2 23  1  0
  3  4  2  0
  5  6  2  0
  5 25  1  0
  7  2  2  0
  8 29  1  0
  9 10  1  0
  9 25  1  0
 11 12  2  0
 13 28  1  0
 13 21  2  0
 14 15  1  0
 16 17  2  0
 18 19  2  0
 20 15  2  0
 22 10  2  0
 25  8  1  0
 26 27  1  0
 28 14  1  0
  2  3  1  0
  4  5  1  0
  6  7  1  0
  8 26  2  0
  9 27  2  0
 10 11  1  0
 12 13  1  0
 14 24  2  0
 15 16  1  0
 17 18  1  0
 19 20  1  0
 21 22  1  0
M  END
>  <rmsd>  (581) 
0.233320028

$$$$
MolPort-001-806-690 CSSS00104793305 MCULE-2498389420 PubChem-2810090 ZINC000000119557 ZINC00119557
     RDKit          3D

 22 24  0  0  0  0  0  0  0  0999 V2000
   17.7256   41.3006   10.0879 C   0  0  0  0  0  0  0  0  0  0  0  0
   15.6726   41.5240    8.7157 C   0  0  0  0  0  0  0  0  0  0  0  0
   16.2464   42.5589    7.9590 C   0  0  0  0  0  0  0  0  0  0  0  0
   15.5381   43.1578    6.9175 C   0  0  0  0  0  0  0  0  0  0  0  0
   14.2417   42.7316    6.6092 C   0  0  0  0  0  0  0  0  0  0  0  0
   13.9012   44.3739    4.6678 C   0  0  0  0  0  0  0  0  0  0  0  0
   12.9870   44.8545    3.6254 C   0  0  0  0  0  0  0  0  0  0  0  0
   13.2572   45.8631    2.7131 C   0  0  0  0  0  0  0  0  0  0  0  0
   12.1889   46.1026    1.8365 C   0  0  0  0  0  0  0  0  0  0  0  0
   11.0761   45.2914    2.0482 C   0  0  0  0  0  0  0  0  0  0  0  0
   13.6644   41.7056    7.3604 C   0  0  0  0  0  0  0  0  0  0  0  0
   14.3552   41.0985    8.4153 C   0  0  0  0  0  0  0  0  0  0  0  0
   14.1265   39.5129   10.3439 C   0  0  0  0  0  0  0  0  0  0  0  0
   13.3948   38.2059   10.5940 C   0  0  0  0  0  0  0  0  0  0  0  0
   12.6428   38.3645   11.9005 C   0  0  0  0  0  0  0  0  0  0  0  0
   13.2831   39.5375   12.6044 C   0  0  0  0  0  0  0  0  0  0  0  0
   13.7758   40.4367   11.4962 C   0  0  0  0  0  0  0  0  0  0  0  0
   16.4017   40.9144    9.7433 O   0  0  0  0  0  0  0  0  0  0  0  0
   15.0435   44.8942    4.7819 O   0  0  0  0  0  0  0  0  0  0  0  0
   13.6894   40.0795    9.1145 O   0  0  0  0  0  0  0  0  0  0  0  0
   13.4819   43.3177    5.5436 N   0  0  0  0  0  0  0  0  0  0  0  0
   11.4398   44.2749    3.3383 S   0  0  0  0  0  0  0  0  0  0  0  0
  1 18  1  0
  2 18  1  0
  3  4  2  0
  5 21  1  0
  5 11  2  0
  6  7  1  0
  7 22  1  0
  8  9  1  0
 10 22  1  0
 12 20  1  0
 12  2  2  0
 13 20  1  0
 13 14  1  0
 14 15  1  0
 15 16  1  0
 16 17  1  0
 17 13  1  0
 21  6  1  0
  2  3  1  0
  4  5  1  0
  6 19  2  0
  7  8  2  0
  9 10  2  0
 11 12  1  0
M  END
>  <rmsd>  (582) 
0.233208597

$$$$
MolPort-035-706-963 CSSS03437789217 MCULE-9970766562 PubChem-91938288
     RDKit          3D

 29 31  0  0  0  0  0  0  0  0999 V2000
   15.9253   36.1927    6.8916 C   0  0  0  0  0  0  0  0  0  0  0  0
   14.6923   36.2478    7.7691 C   0  0  0  0  0  0  0  0  0  0  0  0
   14.5198   37.8312    9.6479 C   0  0  0  0  0  0  0  0  0  0  0  0
   14.3863   39.2522   10.1239 C   0  0  1  0  0  0  0  0  0  0  0  0
   13.4974   39.3049   11.3584 C   0  0  0  0  0  0  0  0  0  0  0  0
   14.3454   41.0556    8.3700 C   0  0  0  0  0  0  0  0  0  0  0  0
   13.6418   41.6749    7.3326 C   0  0  0  0  0  0  0  0  0  0  0  0
   14.2291   42.7085    6.5944 C   0  0  0  0  0  0  0  0  0  0  0  0
   13.9044   44.3788    4.6772 C   0  0  0  0  0  0  0  0  0  0  0  0
   12.9922   44.8626    3.6026 C   0  0  0  0  0  0  0  0  0  0  0  0
   13.1220   44.0108    2.3858 C   0  0  0  0  0  0  0  0  0  0  0  0
   12.3093   42.8828    2.2308 C   0  0  0  0  0  0  0  0  0  0  0  0
   12.4440   42.0722    1.0997 C   0  0  0  0  0  0  0  0  0  0  0  0
   13.3927   42.3801    0.1185 C   0  0  0  0  0  0  0  0  0  0  0  0
   14.4366   41.7886   -2.0444 C   0  0  0  0  0  0  0  0  0  0  0  0
   14.2107   43.5107    0.2807 C   0  0  0  0  0  0  0  0  0  0  0  0
   14.0763   44.3213    1.4114 C   0  0  0  0  0  0  0  0  0  0  0  0
   15.5339   43.1206    6.9074 C   0  0  0  0  0  0  0  0  0  0  0  0
   16.2392   42.5059    7.9458 C   0  0  0  0  0  0  0  0  0  0  0  0
   15.6441   41.4740    8.6752 C   0  0  0  0  0  0  0  0  0  0  0  0
   15.7589   39.7848   10.4845 C   0  0  0  0  0  0  0  0  0  0  0  0
   14.5308   37.5636    8.2767 O   0  0  0  0  0  0  0  0  0  0  0  0
   14.6783   36.8940   10.4799 O   0  0  0  0  0  0  0  0  0  0  0  0
   13.7420   40.0243    9.0978 O   0  0  0  0  0  0  0  0  0  0  0  0
   15.0479   44.8938    4.7951 O   0  0  0  0  0  0  0  0  0  0  0  0
   13.5021   41.5503   -1.0007 O   0  0  0  0  0  0  0  0  0  0  0  0
   16.4050   39.2714   11.4373 O   0  0  0  0  0  0  0  0  0  0  0  0
   13.4748   43.3145    5.5362 N   0  0  0  0  0  0  0  0  0  0  0  0
   16.3495   40.8513    9.7420 N   0  0  0  0  0  0  0  0  0  0  0  0
  1  2  1  0
  2 22  1  0
  3 22  1  0
  4  3  1  0
  4  5  1  1
  4 24  1  0
  4 21  1  0
  6 24  1  0
  7  8  2  0
  8 28  1  0
 10  9  1  0
 10 11  1  0
 12 13  2  0
 14 26  1  0
 14 16  2  0
 15 26  1  0
 17 11  2  0
 18 19  2  0
 20 29  1  0
 20  6  2  0
 28  9  1  0
 29 21  1  0
  3 23  2  0
  6  7  1  0
  8 18  1  0
  9 25  2  0
 11 12  1  0
 13 14  1  0
 16 17  1  0
 19 20  1  0
 21 27  2  0
M  END
>  <rmsd>  (583) 
0.233184576

$$$$
MolPort-005-162-056 15076094 CSSS00159571217 MCULE-1023825194 PubChem-26408870 ZINC000015076094
     RDKit          3D

 27 29  0  0  0  0  0  0  0  0999 V2000
   12.4383   46.2819    1.7462 C   0  0  0  0  0  0  0  0  0  0  0  0
   13.5631   45.6745    2.5572 C   0  0  0  0  0  0  0  0  0  0  0  0
   14.5515   45.0131    1.6155 C   0  0  0  0  0  0  0  0  0  0  0  0
   12.9878   44.6448    3.5214 C   0  0  0  0  0  0  0  0  0  0  0  0
   13.9171   44.2971    4.6462 C   0  0  0  0  0  0  0  0  0  0  0  0
   14.2679   42.8576    6.7192 C   0  0  0  0  0  0  0  0  0  0  0  0
   15.5252   43.2967    7.0901 C   0  0  0  0  0  0  0  0  0  0  0  0
   15.8024   42.5525    8.2322 C   0  0  0  0  0  0  0  0  0  0  0  0
   12.5657   41.2211    7.5267 C   0  0  0  0  0  0  0  0  0  0  0  0
   12.8056   39.7255    7.3844 C   0  0  0  0  0  0  0  0  0  0  0  0
   11.4790   38.9678    7.3747 C   0  0  0  0  0  0  0  0  0  0  0  0
   10.9294   38.5083    9.7388 C   0  0  0  0  0  0  0  0  0  0  0  0
   12.2229   38.8662   10.4085 C   0  0  0  0  0  0  0  0  0  0  0  0
   12.2321   39.7878   11.4615 C   0  0  0  0  0  0  0  0  0  0  0  0
   13.4308   40.1036   12.1068 C   0  0  0  0  0  0  0  0  0  0  0  0
   14.6231   39.4894   11.7124 C   0  0  0  0  0  0  0  0  0  0  0  0
   14.6124   38.5439   10.6763 C   0  0  0  0  0  0  0  0  0  0  0  0
   13.4110   38.2279   10.0355 C   0  0  0  0  0  0  0  0  0  0  0  0
   10.4451   40.7318    8.7661 C   0  0  0  0  0  0  0  0  0  0  0  0
   11.7667   41.4986    8.7913 C   0  0  0  0  0  0  0  0  0  0  0  0
   15.0353   44.8700    4.7620 O   0  0  0  0  0  0  0  0  0  0  0  0
   15.8092   39.8191   12.3565 O   0  0  0  0  0  0  0  0  0  0  0  0
   13.5036   43.3049    5.5915 N   0  0  0  0  0  0  0  0  0  0  0  0
   14.7658   41.7315    8.5044 N   0  0  0  0  0  0  0  0  0  0  0  0
   13.8409   41.9249    7.5809 N   0  0  0  0  0  0  0  0  0  0  0  0
   10.6273   39.2912    8.5293 N   0  0  0  0  0  0  0  0  0  0  0  0
   16.0897   37.7483   10.1660 Cl  0  0  0  0  0  0  0  0  0  0  0  0
  1  2  1  0
  2  3  1  0
  2  4  1  0
  4  5  1  0
  5 23  1  0
  7  8  1  0
  9 25  1  0
  9 10  1  0
 10 11  1  0
 11 26  1  0
 12 26  1  0
 12 13  1  0
 14 15  2  0
 16 22  1  0
 16 17  2  0
 17 27  1  0
 18 13  2  0
 19 26  1  0
 19 20  1  0
 20  9  1  0
 23  6  1  0
 25 24  1  0
 25  6  1  0
  5 21  2  0
  6  7  2  0
  8 24  2  0
 13 14  1  0
 15 16  1  0
 17 18  1  0
M  END
>  <rmsd>  (584) 
0.233180851

$$$$
MolPort-001-809-197 CSSS00106531930 MCULE-2952134515 PubChem-2823008 ZINC000001040089 ZINC01040089
     RDKit          3D

 28 30  0  0  0  0  0  0  0  0999 V2000
   12.9780   49.3164   -1.1177 C   0  0  0  0  0  0  0  0  0  0  0  0
   13.6691   47.9000    0.7887 C   0  0  0  0  0  0  0  0  0  0  0  0
   12.4484   47.2119    0.8082 C   0  0  0  0  0  0  0  0  0  0  0  0
   12.1995   46.1976    1.7402 C   0  0  0  0  0  0  0  0  0  0  0  0
   10.4968   44.5284    2.5220 C   0  0  0  0  0  0  0  0  0  0  0  0
   13.2076   45.8623    2.6832 C   0  0  0  0  0  0  0  0  0  0  0  0
   13.8993   44.3741    4.6662 C   0  0  0  0  0  0  0  0  0  0  0  0
   14.2429   42.7332    6.6078 C   0  0  0  0  0  0  0  0  0  0  0  0
   15.5392   43.1598    6.9161 C   0  0  0  0  0  0  0  0  0  0  0  0
   16.2479   42.5612    7.9575 C   0  0  0  0  0  0  0  0  0  0  0  0
   15.6744   41.5262    8.7144 C   0  0  0  0  0  0  0  0  0  0  0  0
   17.7277   41.3037   10.0865 C   0  0  0  0  0  0  0  0  0  0  0  0
   14.3573   41.1002    8.4141 C   0  0  0  0  0  0  0  0  0  0  0  0
   14.1294   39.5144   10.3427 C   0  0  0  0  0  0  0  0  0  0  0  0
   13.7788   40.4380   11.4952 C   0  0  0  0  0  0  0  0  0  0  0  0
   13.2842   39.5389   12.6027 C   0  0  0  0  0  0  0  0  0  0  0  0
   12.6442   38.3664   11.8979 C   0  0  0  0  0  0  0  0  0  0  0  0
   13.3982   38.2070   10.5927 C   0  0  0  0  0  0  0  0  0  0  0  0
   13.6660   41.7070    7.3592 C   0  0  0  0  0  0  0  0  0  0  0  0
   14.4255   46.5594    2.6524 C   0  0  0  0  0  0  0  0  0  0  0  0
   14.6548   47.5671    1.7162 C   0  0  0  0  0  0  0  0  0  0  0  0
   13.9257   48.9138   -0.1383 O   0  0  0  0  0  0  0  0  0  0  0  0
   10.9432   45.5739    1.6707 O   0  0  0  0  0  0  0  0  0  0  0  0
   15.0421   44.8927    4.7834 O   0  0  0  0  0  0  0  0  0  0  0  0
   16.4039   40.9169    9.7418 O   0  0  0  0  0  0  0  0  0  0  0  0
   13.6918   40.0809    9.1134 O   0  0  0  0  0  0  0  0  0  0  0  0
   12.9894   44.8268    3.6551 N   0  0  0  0  0  0  0  0  0  0  0  0
   13.4825   43.3189    5.5420 N   0  0  0  0  0  0  0  0  0  0  0  0
  1 22  1  0
  2 22  1  0
  3  4  2  0
  4 23  1  0
  5 23  1  0
  6 27  1  0
  6 20  2  0
  7 28  1  0
  9 10  2  0
 11 25  1  0
 11 13  2  0
 12 25  1  0
 13 26  1  0
 14 26  1  0
 14 15  1  0
 15 16  1  0
 16 17  1  0
 17 18  1  0
 18 14  1  0
 19  8  2  0
 21  2  2  0
 27  7  1  0
 28  8  1  0
  2  3  1  0
  4  6  1  0
  7 24  2  0
  8  9  1  0
 10 11  1  0
 13 19  1  0
 20 21  1  0
M  END
>  <rmsd>  (585) 
0.233173847

$$$$
MolPort-021-753-313 72410854 CSSS00159812936 MCULE-3609066862 PubChem-70723644 ZINC000072410854
     RDKit          3D

 27 29  0  0  0  0  0  0  0  0999 V2000
   11.5721   43.6887    1.9736 C   0  0  0  0  0  0  0  0  0  0  0  0
   10.8217   44.7862    3.8832 C   0  0  0  0  0  0  0  0  0  0  0  0
   13.1101   44.6768    3.4201 C   0  0  0  0  0  0  0  0  0  0  0  0
   13.9414   44.2997    4.6069 C   0  0  0  0  0  0  0  0  0  0  0  0
   14.2753   42.7315    6.5811 C   0  0  0  0  0  0  0  0  0  0  0  0
   15.5635   42.2037    6.3421 C   0  0  0  0  0  0  0  0  0  0  0  0
   16.1652   42.1668    4.9788 C   0  0  0  0  0  0  0  0  0  0  0  0
   16.2829   41.6282    7.3937 C   0  0  0  0  0  0  0  0  0  0  0  0
   15.7346   41.5480    8.6809 C   0  0  0  0  0  0  0  0  0  0  0  0
   14.4507   42.0615    8.9069 C   0  0  0  0  0  0  0  0  0  0  0  0
   13.7247   42.6367    7.8626 C   0  0  0  0  0  0  0  0  0  0  0  0
   17.8354   41.1501    9.9079 C   0  0  0  0  0  0  0  0  0  0  0  0
   18.2013   40.5723   11.1087 C   0  0  0  0  0  0  0  0  0  0  0  0
   16.0908   40.3228   10.8597 C   0  0  0  0  0  0  0  0  0  0  0  0
   14.7207   39.8195   11.0964 C   0  0  0  0  0  0  0  0  0  0  0  0
   14.1652   39.8242   12.3899 C   0  0  0  0  0  0  0  0  0  0  0  0
   12.8817   39.3060   12.6040 C   0  0  0  0  0  0  0  0  0  0  0  0
   12.1552   38.7690   11.5385 C   0  0  0  0  0  0  0  0  0  0  0  0
   12.7079   38.7454   10.2568 C   0  0  0  0  0  0  0  0  0  0  0  0
   13.9866   39.2630   10.0389 C   0  0  0  0  0  0  0  0  0  0  0  0
   11.8693   43.9176    3.3755 N   0  0  0  0  0  0  0  0  0  0  0  0
   13.4790   43.3174    5.5433 N   0  0  0  0  0  0  0  0  0  0  0  0
   16.5072   40.9913    9.7588 N   0  0  0  0  0  0  0  0  0  0  0  0
   17.1067   40.0554   11.7028 N   0  0  0  0  0  0  0  0  0  0  0  0
   15.0394   44.8887    4.7914 O   0  0  0  0  0  0  0  0  0  0  0  0
   14.8544   40.3465   13.4364 F   0  0  0  0  0  0  0  0  0  0  0  0
   12.3385   39.3215   13.8456 F   0  0  0  0  0  0  0  0  0  0  0  0
  1 21  1  0
  2 21  1  0
  3 21  1  0
  3  4  1  0
  4 22  1  0
  6  8  2  0
  7  6  1  0
  9 10  2  0
  9 23  1  0
 11  5  2  0
 13 24  1  0
 14 15  1  0
 14 23  1  0
 16 26  1  0
 16 17  2  0
 17 27  1  0
 18 19  2  0
 20 15  2  0
 22  5  1  0
 23 12  1  0
  4 25  2  0
  5  6  1  0
  8  9  1  0
 10 11  1  0
 12 13  2  0
 14 24  2  0
 15 16  1  0
 17 18  1  0
 19 20  1  0
M  END
>  <rmsd>  (586) 
0.233127519

$$$$
MolPort-008-381-923 55412984 CSSS00159806312 MCULE-6001361176 PubChem-46999781 ZINC000055412984 ZINC55412984
     RDKit          3D

 24 25  0  0  0  0  0  0  0  0999 V2000
   11.5893   46.4348    5.1062 C   0  0  0  0  0  0  0  0  0  0  0  0
   12.5600   46.3467    3.9433 C   0  0  0  0  0  0  0  0  0  0  0  0
   12.9343   44.8981    3.6710 C   0  0  0  0  0  0  0  0  0  0  0  0
   13.8894   44.3862    4.6966 C   0  0  0  0  0  0  0  0  0  0  0  0
   14.2578   42.7048    6.5957 C   0  0  0  0  0  0  0  0  0  0  0  0
   13.6957   41.6529    7.3271 C   0  0  0  0  0  0  0  0  0  0  0  0
   14.4192   41.0385    8.3532 C   0  0  0  0  0  0  0  0  0  0  0  0
   15.7145   41.4713    8.6546 C   0  0  0  0  0  0  0  0  0  0  0  0
   16.4823   40.8298    9.7618 C   0  0  0  0  0  0  0  0  0  0  0  0
   16.1880   41.4919   11.0736 C   0  0  0  0  0  0  0  0  0  0  0  0
   15.2142   39.3533   12.0028 C   0  0  0  0  0  0  0  0  0  0  0  0
   14.0409   39.1503   11.0959 C   0  0  0  0  0  0  0  0  0  0  0  0
   12.8178   39.5244   11.4614 C   0  0  0  0  0  0  0  0  0  0  0  0
   15.4055   41.4248   13.4464 C   0  0  0  0  0  0  0  0  0  0  0  0
   16.3126   40.7763   14.4813 C   0  0  0  0  0  0  0  0  0  0  0  0
   15.4193   40.3430   15.6276 C   0  0  0  0  0  0  0  0  0  0  0  0
   14.1237   41.1050   15.4595 C   0  0  0  0  0  0  0  0  0  0  0  0
   13.9853   41.3315   13.9724 C   0  0  0  0  0  0  0  0  0  0  0  0
   16.2808   42.5256    7.9310 C   0  0  0  0  0  0  0  0  0  0  0  0
   15.5561   43.1389    6.9052 C   0  0  0  0  0  0  0  0  0  0  0  0
   15.0389   44.8949    4.7868 O   0  0  0  0  0  0  0  0  0  0  0  0
   16.5347   42.6933   11.2396 O   0  0  0  0  0  0  0  0  0  0  0  0
   13.4830   43.3106    5.5521 N   0  0  0  0  0  0  0  0  0  0  0  0
   15.5402   40.7755   12.1410 N   0  0  0  0  0  0  0  0  0  0  0  0
  1  2  1  0
  2  3  1  0
  3  4  1  0
  4 23  1  0
  6  7  2  0
  8 19  2  0
  9  8  1  0
  9 10  1  0
 10 24  1  0
 11 24  1  0
 11 12  1  0
 14 24  1  0
 14 15  1  0
 15 16  1  0
 16 17  1  0
 17 18  1  0
 18 14  1  0
 20  5  2  0
 23  5  1  0
  4 21  2  0
  5  6  1  0
  7  8  1  0
 10 22  2  0
 12 13  2  0
 19 20  1  0
M  END
>  <rmsd>  (587) 
0.233127415

$$$$
MolPort-035-706-965 CSSS03437789219 MCULE-5786311522 PubChem-91938290
     RDKit          3D

 28 30  0  0  0  0  0  0  0  0999 V2000
   13.6620   34.6258   10.8962 C   0  0  0  0  0  0  0  0  0  0  0  0
   14.8044   35.4258   10.3061 C   0  0  0  0  0  0  0  0  0  0  0  0
   14.5322   37.7947    9.6867 C   0  0  0  0  0  0  0  0  0  0  0  0
   14.4020   39.2331   10.1080 C   0  0  1  0  0  0  0  0  0  0  0  0
   13.5027   39.3245   11.3311 C   0  0  0  0  0  0  0  0  0  0  0  0
   14.3594   41.0328    8.3488 C   0  0  0  0  0  0  0  0  0  0  0  0
   13.6568   41.6491    7.3090 C   0  0  0  0  0  0  0  0  0  0  0  0
   14.2293   42.7071    6.5942 C   0  0  0  0  0  0  0  0  0  0  0  0
   13.8968   44.3905    4.6901 C   0  0  0  0  0  0  0  0  0  0  0  0
   12.9573   44.9310    3.6664 C   0  0  0  0  0  0  0  0  0  0  0  0
   11.7949   45.6710    4.3181 C   0  0  0  0  0  0  0  0  0  0  0  0
   12.1729   47.0616    4.7129 C   0  0  0  0  0  0  0  0  0  0  0  0
   13.0306   47.2909    5.7969 C   0  0  0  0  0  0  0  0  0  0  0  0
   13.3570   48.5984    6.1693 C   0  0  0  0  0  0  0  0  0  0  0  0
   12.8212   49.6800    5.4640 C   0  0  0  0  0  0  0  0  0  0  0  0
   11.9569   49.4543    4.3884 C   0  0  0  0  0  0  0  0  0  0  0  0
   11.6305   48.1466    4.0158 C   0  0  0  0  0  0  0  0  0  0  0  0
   15.5181   43.1473    6.9337 C   0  0  0  0  0  0  0  0  0  0  0  0
   16.2230   42.5349    7.9736 C   0  0  0  0  0  0  0  0  0  0  0  0
   15.6429   41.4783    8.6794 C   0  0  0  0  0  0  0  0  0  0  0  0
   15.7726   39.7691   10.4694 C   0  0  0  0  0  0  0  0  0  0  0  0
   14.6550   36.7937   10.6549 O   0  0  0  0  0  0  0  0  0  0  0  0
   14.5873   37.5018    8.4601 O   0  0  0  0  0  0  0  0  0  0  0  0
   13.7710   39.9760    9.0517 O   0  0  0  0  0  0  0  0  0  0  0  0
   15.0471   44.8922    4.7960 O   0  0  0  0  0  0  0  0  0  0  0  0
   16.4239   39.2504   11.4158 O   0  0  0  0  0  0  0  0  0  0  0  0
   13.4737   43.3137    5.5372 N   0  0  0  0  0  0  0  0  0  0  0  0
   16.3505   40.8542    9.7439 N   0  0  0  0  0  0  0  0  0  0  0  0
  1  2  1  0
  2 22  1  0
  3 22  1  0
  4  3  1  0
  4  5  1  1
  4 24  1  0
  4 21  1  0
  6 24  1  0
  7  8  2  0
  8 27  1  0
 10  9  1  0
 10 11  1  0
 11 12  1  0
 13 14  2  0
 15 16  2  0
 17 12  2  0
 18 19  2  0
 20 28  1  0
 20  6  2  0
 27  9  1  0
 28 21  1  0
  3 23  2  0
  6  7  1  0
  8 18  1  0
  9 25  2  0
 12 13  1  0
 14 15  1  0
 16 17  1  0
 19 20  1  0
 21 26  2  0
M  END
>  <rmsd>  (588) 
0.233119413

$$$$
MolPort-028-889-922 ChemDiv-V030-3017 MCULE-1497383710 PubChem-83281344 ZINC000096275279
     RDKit          3D

 30 32  0  0  0  0  0  0  0  0999 V2000
   12.6946   43.7190    2.6182 C   0  0  0  0  0  0  0  0  0  0  0  0
   12.9743   44.8326    3.6086 C   0  0  0  0  0  0  0  0  0  0  0  0
   13.9035   44.3561    4.6699 C   0  0  0  0  0  0  0  0  0  0  0  0
   14.2531   42.7332    6.6247 C   0  0  0  0  0  0  0  0  0  0  0  0
   13.6643   41.7123    7.4031 C   0  0  0  0  0  0  0  0  0  0  0  0
   14.3694   41.1096    8.4590 C   0  0  0  0  0  0  0  0  0  0  0  0
   15.6675   41.5551    8.7079 C   0  0  0  0  0  0  0  0  0  0  0  0
   16.2373   40.1261   10.6793 C   0  0  0  0  0  0  0  0  0  0  0  0
   15.4487   40.7240   11.8043 C   0  0  0  0  0  0  0  0  0  0  0  0
   14.1146   40.3427   12.0468 C   0  0  0  0  0  0  0  0  0  0  0  0
   13.4313   39.3158   11.2087 C   0  0  0  0  0  0  0  0  0  0  0  0
   13.4058   40.9275   13.1014 C   0  0  0  0  0  0  0  0  0  0  0  0
   14.0155   41.8856   13.9155 C   0  0  0  0  0  0  0  0  0  0  0  0
   15.3395   42.2620   13.6792 C   0  0  0  0  0  0  0  0  0  0  0  0
   15.9892   43.2797   14.5452 C   0  0  0  0  0  0  0  0  0  0  0  0
   16.0531   41.6824   12.6278 C   0  0  0  0  0  0  0  0  0  0  0  0
   17.6469   41.8728    9.4994 C   0  0  0  0  0  0  0  0  0  0  0  0
   17.5180   42.7752    8.4384 C   0  0  0  0  0  0  0  0  0  0  0  0
   16.2447   42.5436    7.9590 C   0  0  0  0  0  0  0  0  0  0  0  0
   15.5693   43.1576    6.9081 C   0  0  0  0  0  0  0  0  0  0  0  0
   18.8690   41.7579   10.3213 C   0  0  0  0  0  0  0  0  0  0  0  0
   20.1744   40.5691   12.1398 C   0  0  0  0  0  0  0  0  0  0  0  0
   21.1180   39.6091   11.4342 C   0  0  0  0  0  0  0  0  0  0  0  0
   22.3280   39.1867    9.6391 C   0  0  0  0  0  0  0  0  0  0  0  0
   15.0377   44.8924    4.7789 O   0  0  0  0  0  0  0  0  0  0  0  0
   19.8326   42.5442   10.1119 O   0  0  0  0  0  0  0  0  0  0  0  0
   21.6770   40.2196   10.3115 O   0  0  0  0  0  0  0  0  0  0  0  0
   13.4864   43.3107    5.5593 N   0  0  0  0  0  0  0  0  0  0  0  0
   16.5174   41.1311    9.6570 N   0  0  0  0  0  0  0  0  0  0  0  0
   18.9687   40.7683   11.3487 N   0  0  0  0  0  0  0  0  0  0  0  0
  1  2  1  0
  2  3  1  0
  3 28  1  0
  5  6  2  0
  7 29  1  0
  8 29  1  0
  8  9  1  0
 10 12  2  0
 11 10  1  0
 13 14  2  0
 15 14  1  0
 16  9  2  0
 17 21  1  0
 18 19  1  0
 19  7  2  0
 20  4  2  0
 21 30  1  0
 22 30  1  0
 22 23  1  0
 23 27  1  0
 24 27  1  0
 28  4  1  0
 29 17  1  0
  3 25  2  0
  4  5  1  0
  6  7  1  0
  9 10  1  0
 12 13  1  0
 14 16  1  0
 17 18  2  0
 19 20  1  0
 21 26  2  0
M  END
>  <rmsd>  (589) 
0.232913122

$$$$
MolPort-045-964-638 CSSS00160228555 MCULE-5567901419 PubChem-131945763
     RDKit          3D

 26 27  0  0  0  0  0  0  0  0999 V2000
   13.5440   42.2481   14.3428 C   0  0  0  0  0  0  0  0  0  0  0  0
   14.5049   41.0280   12.7760 C   0  0  0  0  0  0  0  0  0  0  0  0
   14.4392   40.4942   11.3526 C   0  0  2  0  0  0  0  0  0  0  0  0
   13.4844   39.3143   11.2609 C   0  0  0  0  0  0  0  0  0  0  0  0
   16.5371   39.1044   11.5905 C   0  0  0  0  0  0  0  0  0  0  0  0
   16.7705   37.9127   10.7227 C   0  0  0  0  0  0  0  0  0  0  0  0
   17.9576   37.8018    9.9901 C   0  0  0  0  0  0  0  0  0  0  0  0
   18.1680   36.6964    9.1601 C   0  0  0  0  0  0  0  0  0  0  0  0
   17.1903   35.7018    9.0587 C   0  0  0  0  0  0  0  0  0  0  0  0
   16.0021   35.8126    9.7876 C   0  0  0  0  0  0  0  0  0  0  0  0
   15.7918   36.9179   10.6178 C   0  0  0  0  0  0  0  0  0  0  0  0
   16.4115   40.8996    9.8392 C   0  0  0  0  0  0  0  0  0  0  0  0
   15.6453   41.5351    8.7422 C   0  0  0  0  0  0  0  0  0  0  0  0
   16.2438   42.5342    7.9614 C   0  0  0  0  0  0  0  0  0  0  0  0
   15.5417   43.1280    6.9090 C   0  0  0  0  0  0  0  0  0  0  0  0
   14.2305   42.7268    6.6158 C   0  0  0  0  0  0  0  0  0  0  0  0
   13.9075   44.3642    4.6702 C   0  0  0  0  0  0  0  0  0  0  0  0
   12.9894   44.8446    3.6052 C   0  0  0  0  0  0  0  0  0  0  0  0
   13.6370   41.7210    7.3839 C   0  0  0  0  0  0  0  0  0  0  0  0
   14.3392   41.1273    8.4363 C   0  0  0  0  0  0  0  0  0  0  0  0
   13.2997   41.6474   13.1081 O   0  0  0  0  0  0  0  0  0  0  0  0
   17.6658   41.0365    9.8627 O   0  0  0  0  0  0  0  0  0  0  0  0
   15.0455   44.8906    4.7880 O   0  0  0  0  0  0  0  0  0  0  0  0
   15.7715   40.1246   10.8720 N   0  0  0  0  0  0  0  0  0  0  0  0
   13.4774   43.3139    5.5456 N   0  0  0  0  0  0  0  0  0  0  0  0
   19.3180   36.5905    8.4523 F   0  0  0  0  0  0  0  0  0  0  0  0
  1 21  1  0
  2 21  1  0
  2  3  1  0
  3  4  1  1
  3 24  1  0
  5 24  1  0
  5  6  1  0
  7  8  2  0
  8 26  1  0
  9 10  2  0
 11  6  2  0
 12 13  1  0
 14 15  2  0
 16 25  1  0
 16 19  2  0
 18 17  1  0
 20 13  2  0
 24 12  1  0
 25 17  1  0
  6  7  1  0
  8  9  1  0
 10 11  1  0
 12 22  2  0
 13 14  1  0
 15 16  1  0
 17 23  2  0
 19 20  1  0
M  END
>  <rmsd>  (590) 
0.232854813

$$$$
MolPort-023-291-689 CSSS03437789222 MCULE-8771813306 PubChem-75538534
     RDKit          3D

 25 27  0  0  0  0  0  0  0  0999 V2000
   14.7179   36.3141    6.2438 C   0  0  0  0  0  0  0  0  0  0  0  0
   14.7243   36.2674    7.7569 C   0  0  0  0  0  0  0  0  0  0  0  0
   14.5329   37.8393    9.6427 C   0  0  0  0  0  0  0  0  0  0  0  0
   14.3900   39.2572   10.1255 C   0  0  1  0  0  0  0  0  0  0  0  0
   13.4983   39.2996   11.3583 C   0  0  0  0  0  0  0  0  0  0  0  0
   14.3458   41.0619    8.3733 C   0  0  0  0  0  0  0  0  0  0  0  0
   13.6429   41.6783    7.3339 C   0  0  0  0  0  0  0  0  0  0  0  0
   14.2293   42.7122    6.5951 C   0  0  0  0  0  0  0  0  0  0  0  0
   13.9028   44.3804    4.6738 C   0  0  0  0  0  0  0  0  0  0  0  0
   12.9978   44.8819    3.6346 C   0  0  0  0  0  0  0  0  0  0  0  0
   11.7232   44.4163    3.3894 C   0  0  0  0  0  0  0  0  0  0  0  0
   11.2648   45.1816    2.3313 C   0  0  0  0  0  0  0  0  0  0  0  0
   12.2861   46.0577    2.0047 C   0  0  0  0  0  0  0  0  0  0  0  0
   15.5326   43.1273    6.9101 C   0  0  0  0  0  0  0  0  0  0  0  0
   16.2372   42.5158    7.9508 C   0  0  0  0  0  0  0  0  0  0  0  0
   15.6431   41.4836    8.6806 C   0  0  0  0  0  0  0  0  0  0  0  0
   15.7586   39.7959   10.4912 C   0  0  0  0  0  0  0  0  0  0  0  0
   14.5627   37.5807    8.2703 O   0  0  0  0  0  0  0  0  0  0  0  0
   14.6821   36.8971   10.4707 O   0  0  0  0  0  0  0  0  0  0  0  0
   13.7436   40.0303    9.1015 O   0  0  0  0  0  0  0  0  0  0  0  0
   15.0474   44.8930    4.7955 O   0  0  0  0  0  0  0  0  0  0  0  0
   13.3029   45.8472    2.8053 O   0  0  0  0  0  0  0  0  0  0  0  0
   16.4038   39.2853   11.4461 O   0  0  0  0  0  0  0  0  0  0  0  0
   13.4748   43.3161    5.5357 N   0  0  0  0  0  0  0  0  0  0  0  0
   16.3474   40.8645    9.7501 N   0  0  0  0  0  0  0  0  0  0  0  0
  1  2  1  0
  2 18  1  0
  3 18  1  0
  4  3  1  0
  4  5  1  1
  4 20  1  0
  4 17  1  0
  6 20  1  0
  7  8  2  0
  8 24  1  0
  9 10  1  0
 10 22  1  0
 11 12  1  0
 13 22  1  0
 14 15  2  0
 16 25  1  0
 16  6  2  0
 24  9  1  0
 25 17  1  0
  3 19  2  0
  6  7  1  0
  8 14  1  0
  9 21  2  0
 10 11  2  0
 12 13  2  0
 15 16  1  0
 17 23  2  0
M  END
>  <rmsd>  (591) 
0.232795238

$$$$
MolPort-027-837-239 91301373 LN01360265 MCULE-5625054034 PubChem-66832013 ZINC000091301373 ZINC91301373
     RDKit          3D

 18 18  0  0  0  0  0  0  0  0999 V2000
   13.5971   39.6424   12.0658 C   0  0  0  0  0  0  0  0  0  0  0  0
   13.7822   38.9049   10.7522 C   0  0  0  0  0  0  0  0  0  0  0  0
   14.8800   40.6798    9.4210 C   0  0  0  0  0  0  0  0  0  0  0  0
   14.8138   41.6300    8.3066 C   0  0  0  0  0  0  0  0  0  0  0  0
   14.1948   42.7747    6.6089 C   0  0  0  0  0  0  0  0  0  0  0  0
   13.9296   44.3562    4.6533 C   0  0  0  0  0  0  0  0  0  0  0  0
   13.4566   45.8303    2.6813 C   0  0  0  0  0  0  0  0  0  0  0  0
   13.6959   47.1455    3.4025 C   0  0  0  0  0  0  0  0  0  0  0  0
   14.6950   45.4440    1.8910 C   0  0  0  0  0  0  0  0  0  0  0  0
   12.3094   46.0184    1.7113 C   0  0  0  0  0  0  0  0  0  0  0  0
   13.7419   41.7707    7.4399 C   0  0  0  0  0  0  0  0  0  0  0  0
   13.8016   39.8237    9.6660 O   0  0  0  0  0  0  0  0  0  0  0  0
   15.9109   40.6373   10.1466 O   0  0  0  0  0  0  0  0  0  0  0  0
   15.3948   43.1635    6.9645 O   0  0  0  0  0  0  0  0  0  0  0  0
   15.0700   44.8647    4.8346 O   0  0  0  0  0  0  0  0  0  0  0  0
   13.1068   44.8005    3.6093 O   0  0  0  0  0  0  0  0  0  0  0  0
   15.8046   42.4889    7.9948 N   0  0  0  0  0  0  0  0  0  0  0  0
   13.4548   43.3152    5.5114 N   0  0  0  0  0  0  0  0  0  0  0  0
  1  2  1  0
  2 12  1  0
  3 12  1  0
  3  4  1  0
  5 14  1  0
  5 18  1  0
  6 16  1  0
  7 16  1  0
  7  8  1  0
  7  9  1  0
  7 10  1  0
 11  4  1  0
 17 14  1  0
 18  6  1  0
  3 13  2  0
  4 17  2  0
  5 11  2  0
  6 15  2  0
M  END
>  <rmsd>  (592) 
0.232781097

$$$$
MolPort-035-371-715 CSC046631183 CSSS00046631183 MCULE-4973238890 PubChem-77082363
     RDKit          3D

 23 25  0  0  0  0  0  0  0  0999 V2000
   12.9394   44.8799    3.6649 C   0  0  0  0  0  0  0  0  0  0  0  0
   13.8908   44.3783    4.6900 C   0  0  0  0  0  0  0  0  0  0  0  0
   14.2716   42.7083    6.5967 C   0  0  0  0  0  0  0  0  0  0  0  0
   13.7083   41.6715    7.3489 C   0  0  0  0  0  0  0  0  0  0  0  0
   14.4413   41.0587    8.3691 C   0  0  0  0  0  0  0  0  0  0  0  0
   15.7474   41.4767    8.6418 C   0  0  0  0  0  0  0  0  0  0  0  0
   16.5192   40.8410    9.7460 C   0  0  0  0  0  0  0  0  0  0  0  0
   17.7039   41.8919   11.4610 C   0  0  0  0  0  0  0  0  0  0  0  0
   18.0607   40.8803   12.5447 C   0  0  0  0  0  0  0  0  0  0  0  0
   16.8306   40.0302   12.7445 C   0  0  0  0  0  0  0  0  0  0  0  0
   15.7455   40.8153   12.0480 C   0  0  2  0  0  0  0  0  0  0  0  0
   14.5312   40.0137   11.6603 C   0  0  0  0  0  0  0  0  0  0  0  0
   13.2622   40.5207   11.9606 C   0  0  0  0  0  0  0  0  0  0  0  0
   12.1155   39.7999   11.6137 C   0  0  0  0  0  0  0  0  0  0  0  0
   12.2337   38.5659   10.9681 C   0  0  0  0  0  0  0  0  0  0  0  0
   13.4984   38.0492   10.6733 C   0  0  0  0  0  0  0  0  0  0  0  0
   14.6451   38.7694   11.0197 C   0  0  0  0  0  0  0  0  0  0  0  0
   16.3147   42.5169    7.8997 C   0  0  0  0  0  0  0  0  0  0  0  0
   15.5806   43.1286    6.8797 C   0  0  0  0  0  0  0  0  0  0  0  0
   15.0341   44.8986    4.7780 O   0  0  0  0  0  0  0  0  0  0  0  0
   13.4879   43.3116    5.5582 N   0  0  0  0  0  0  0  0  0  0  0  0
   16.3551   41.6136   10.9772 N   0  0  0  0  0  0  0  0  0  0  0  0
   11.1223   37.8686   10.6316 F   0  0  0  0  0  0  0  0  0  0  0  0
  1  2  1  0
  2 21  1  0
  4  5  2  0
  6 18  2  0
  7  6  1  0
  7 22  1  0
  8 22  1  0
  8  9  1  0
  9 10  1  0
 10 11  1  0
 11 12  1  6
 11 22  1  0
 13 14  2  0
 15 23  1  0
 15 16  2  0
 17 12  2  0
 19  3  2  0
 21  3  1  0
  2 20  2  0
  3  4  1  0
  5  6  1  0
 12 13  1  0
 14 15  1  0
 16 17  1  0
 18 19  1  0
M  END
>  <rmsd>  (593) 
0.232722327

$$$$
Molport-052-004-877
     RDKit          3D

 25 27  0  0  0  0  0  0  0  0999 V2000
   13.4348   39.5407   11.2124 C   0  0  0  0  0  0  0  0  0  0  0  0
   14.8412   40.7013    9.4644 C   0  0  0  0  0  0  0  0  0  0  0  0
   14.9289   41.5294    8.2408 C   0  0  0  0  0  0  0  0  0  0  0  0
   14.3253   42.6789    6.5530 C   0  0  0  0  0  0  0  0  0  0  0  0
   13.9358   44.2965    4.6316 C   0  0  0  0  0  0  0  0  0  0  0  0
   13.0939   44.6632    3.4718 C   0  0  0  0  0  0  0  0  0  0  0  0
   13.4882   45.6704    2.5777 C   0  0  0  0  0  0  0  0  0  0  0  0
   12.6727   45.9779    1.4888 C   0  0  0  0  0  0  0  0  0  0  0  0
   11.4741   45.2902    1.2968 C   0  0  0  0  0  0  0  0  0  0  0  0
   11.0943   44.2919    2.2107 C   0  0  0  0  0  0  0  0  0  0  0  0
    9.8320   43.5240    2.0534 C   0  0  0  0  0  0  0  0  0  0  0  0
    8.7044   44.0831    1.4186 C   0  0  0  0  0  0  0  0  0  0  0  0
    7.5242   43.3441    1.2902 C   0  0  0  0  0  0  0  0  0  0  0  0
    7.4509   42.0451    1.7966 C   0  0  0  0  0  0  0  0  0  0  0  0
    8.5564   41.4833    2.4380 C   0  0  0  0  0  0  0  0  0  0  0  0
    9.7390   42.2174    2.5704 C   0  0  0  0  0  0  0  0  0  0  0  0
   15.7043   42.6332    6.5616 C   0  0  0  0  0  0  0  0  0  0  0  0
   17.4563   41.6040    8.0108 C   0  0  0  0  0  0  0  0  0  0  0  0
   13.5602   40.3545   10.0096 N   0  0  0  0  0  0  0  0  0  0  0  0
   13.8312   41.9804    7.5940 N   0  0  0  0  0  0  0  0  0  0  0  0
   13.4891   43.2963    5.5635 N   0  0  0  0  0  0  0  0  0  0  0  0
   11.9188   44.0091    3.2587 N   0  0  0  0  0  0  0  0  0  0  0  0
   16.0793   41.9129    7.6329 N   0  0  0  0  0  0  0  0  0  0  0  0
   15.8907   40.2971   10.0335 O   0  0  0  0  0  0  0  0  0  0  0  0
   15.0345   44.8874    4.8156 O   0  0  0  0  0  0  0  0  0  0  0  0
  1 19  1  0
  2  3  1  0
  4 20  1  0
  4 21  1  0
  5  6  1  0
  6 22  2  0
  7  8  2  0
  9 10  2  0
 10 11  1  0
 12 13  2  0
 14 15  2  0
 16 11  2  0
 17 23  1  0
 18 23  1  0
 19  2  1  0
 21  5  1  0
 23  3  1  0
  2 24  2  0
  3 20  2  0
  4 17  2  0
  5 25  2  0
  6  7  1  0
  8  9  1  0
 10 22  1  0
 11 12  1  0
 13 14  1  0
 15 16  1  0
M  END
>  <rmsd>  (594) 
0.232686684

$$$$
MolPort-006-503-558 MCULE-7225537310 PubChem-8081718 ZINC000006776333 ZINC06776333
     RDKit          3D

 30 33  0  0  0  0  0  0  0  0999 V2000
   19.8835   39.2502   12.3160 C   0  0  0  0  0  0  0  0  0  0  0  0
   18.1893   40.2156   10.8238 C   0  0  0  0  0  0  0  0  0  0  0  0
   16.1063   40.0129   10.6810 C   0  0  0  0  0  0  0  0  0  0  0  0
   15.7237   41.5047    8.6760 C   0  0  0  0  0  0  0  0  0  0  0  0
   16.2253   42.6394    8.0229 C   0  0  0  0  0  0  0  0  0  0  0  0
   15.5011   43.2421    6.9916 C   0  0  0  0  0  0  0  0  0  0  0  0
   14.2655   42.7139    6.5898 C   0  0  0  0  0  0  0  0  0  0  0  0
   13.7703   41.5732    7.2279 C   0  0  0  0  0  0  0  0  0  0  0  0
   14.4966   40.9679    8.2568 C   0  0  0  0  0  0  0  0  0  0  0  0
   13.8742   44.4138    4.7107 C   0  0  0  0  0  0  0  0  0  0  0  0
   12.9098   44.9770    3.7499 C   0  0  0  0  0  0  0  0  0  0  0  0
   11.5865   44.5111    3.7152 C   0  0  0  0  0  0  0  0  0  0  0  0
   10.6710   45.0482    2.8053 C   0  0  0  0  0  0  0  0  0  0  0  0
   11.0722   46.0550    1.9230 C   0  0  0  0  0  0  0  0  0  0  0  0
   12.3892   46.5240    1.9493 C   0  0  0  0  0  0  0  0  0  0  0  0
   13.3051   45.9860    2.8581 C   0  0  0  0  0  0  0  0  0  0  0  0
   14.7172   39.6420   11.0060 C   0  0  0  0  0  0  0  0  0  0  0  0
   14.3935   38.2862   11.1540 C   0  0  0  0  0  0  0  0  0  0  0  0
   13.0931   37.9034   11.4928 C   0  0  0  0  0  0  0  0  0  0  0  0
   12.1099   38.8755   11.7001 C   0  0  0  0  0  0  0  0  0  0  0  0
   12.4295   40.2303   11.5787 C   0  0  0  0  0  0  0  0  0  0  0  0
   13.7297   40.6180   11.2414 C   0  0  0  0  0  0  0  0  0  0  0  0
   19.5159   40.0899   11.2334 O   0  0  0  0  0  0  0  0  0  0  0  0
   15.0382   44.8947    4.7839 O   0  0  0  0  0  0  0  0  0  0  0  0
   17.1559   39.5654   11.4005 N   0  0  0  0  0  0  0  0  0  0  0  0
   16.4994   40.8787    9.7147 N   0  0  0  0  0  0  0  0  0  0  0  0
   17.8118   41.0115    9.8082 N   0  0  0  0  0  0  0  0  0  0  0  0
   13.4846   43.3152    5.5481 N   0  0  0  0  0  0  0  0  0  0  0  0
   12.7824   47.4897    1.0839 F   0  0  0  0  0  0  0  0  0  0  0  0
   14.0260   41.9405   11.1718 F   0  0  0  0  0  0  0  0  0  0  0  0
  1 23  1  0
  2 23  1  0
  2 25  1  0
  3 26  1  0
  3 17  1  0
  5  6  2  0
  7  8  2  0
  7 28  1  0
  9  4  2  0
 10 11  1  0
 12 13  2  0
 14 15  2  0
 15 29  1  0
 16 11  2  0
 18 19  2  0
 20 21  2  0
 22 30  1  0
 22 17  2  0
 26 27  1  0
 26  4  1  0
 28 10  1  0
  2 27  2  0
  3 25  2  0
  4  5  1  0
  6  7  1  0
  8  9  1  0
 10 24  2  0
 11 12  1  0
 13 14  1  0
 15 16  1  0
 17 18  1  0
 19 20  1  0
 21 22  1  0
M  END
>  <rmsd>  (595) 
0.232636556

$$$$
MolPort-035-706-982 CSSS03437789237 MCULE-1941433661 PubChem-91938307
     RDKit          3D

 28 30  0  0  0  0  0  0  0  0999 V2000
   14.7207   36.3205    6.2403 C   0  0  0  0  0  0  0  0  0  0  0  0
   14.7285   36.2731    7.7534 C   0  0  0  0  0  0  0  0  0  0  0  0
   14.5375   37.8441    9.6401 C   0  0  0  0  0  0  0  0  0  0  0  0
   14.3938   39.2616   10.1234 C   0  0  1  0  0  0  0  0  0  0  0  0
   13.5025   39.3030   11.3567 C   0  0  0  0  0  0  0  0  0  0  0  0
   14.3483   41.0664    8.3712 C   0  0  0  0  0  0  0  0  0  0  0  0
   13.6449   41.6822    7.3319 C   0  0  0  0  0  0  0  0  0  0  0  0
   14.2308   42.7158    6.5926 C   0  0  0  0  0  0  0  0  0  0  0  0
   13.8974   44.3833    4.6675 C   0  0  0  0  0  0  0  0  0  0  0  0
   12.9923   44.8979    3.6133 C   0  0  0  0  0  0  0  0  0  0  0  0
   13.4387   45.9406    2.7852 C   0  0  0  0  0  0  0  0  0  0  0  0
   12.6192   46.4565    1.7788 C   0  0  0  0  0  0  0  0  0  0  0  0
   11.3394   45.9354    1.5865 C   0  0  0  0  0  0  0  0  0  0  0  0
   10.8797   44.8990    2.4005 C   0  0  0  0  0  0  0  0  0  0  0  0
   11.6948   44.3773    3.4104 C   0  0  0  0  0  0  0  0  0  0  0  0
   15.5341   43.1313    6.9070 C   0  0  0  0  0  0  0  0  0  0  0  0
   16.2393   42.5203    7.9475 C   0  0  0  0  0  0  0  0  0  0  0  0
   15.6457   41.4884    8.6778 C   0  0  0  0  0  0  0  0  0  0  0  0
   15.7622   39.8012   10.4889 C   0  0  0  0  0  0  0  0  0  0  0  0
   14.5664   37.5860    8.2676 O   0  0  0  0  0  0  0  0  0  0  0  0
   14.6882   36.9017   10.4675 O   0  0  0  0  0  0  0  0  0  0  0  0
   13.7466   40.0349    9.1001 O   0  0  0  0  0  0  0  0  0  0  0  0
   15.0452   44.8900    4.7983 O   0  0  0  0  0  0  0  0  0  0  0  0
   16.4079   39.2910   11.4439 O   0  0  0  0  0  0  0  0  0  0  0  0
   13.4752   43.3186    5.5332 N   0  0  0  0  0  0  0  0  0  0  0  0
   16.3506   40.8698    9.7474 N   0  0  0  0  0  0  0  0  0  0  0  0
   13.0670   47.4623    0.9898 F   0  0  0  0  0  0  0  0  0  0  0  0
   11.2060   43.3709    4.1765 F   0  0  0  0  0  0  0  0  0  0  0  0
  1  2  1  0
  2 20  1  0
  3 20  1  0
  4  3  1  0
  4  5  1  1
  4 22  1  0
  4 19  1  0
  6 22  1  0
  7  8  2  0
  8 25  1  0
  9 10  1  0
 11 12  2  0
 12 27  1  0
 13 14  2  0
 15 28  1  0
 15 10  2  0
 16 17  2  0
 18 26  1  0
 18  6  2  0
 25  9  1  0
 26 19  1  0
  3 21  2  0
  6  7  1  0
  8 16  1  0
  9 23  2  0
 10 11  1  0
 12 13  1  0
 14 15  1  0
 17 18  1  0
 19 24  2  0
M  END
>  <rmsd>  (596) 
0.232627973

$$$$
MolPort-035-706-981 CSSS03437789236 MCULE-4701646082 PubChem-91938306
     RDKit          3D

 23 24  0  0  0  0  0  0  0  0999 V2000
   14.7152   36.3133    6.2438 C   0  0  0  0  0  0  0  0  0  0  0  0
   14.7220   36.2665    7.7569 C   0  0  0  0  0  0  0  0  0  0  0  0
   14.5314   37.8382    9.6429 C   0  0  0  0  0  0  0  0  0  0  0  0
   14.3891   39.2560   10.1259 C   0  0  1  0  0  0  0  0  0  0  0  0
   13.4976   39.2987   11.3589 C   0  0  0  0  0  0  0  0  0  0  0  0
   14.3452   41.0609    8.3738 C   0  0  0  0  0  0  0  0  0  0  0  0
   13.6423   41.6776    7.3345 C   0  0  0  0  0  0  0  0  0  0  0  0
   14.2290   42.7112    6.5958 C   0  0  0  0  0  0  0  0  0  0  0  0
   13.9042   44.3804    4.6743 C   0  0  0  0  0  0  0  0  0  0  0  0
   12.9890   44.8967    3.6143 C   0  0  0  0  0  0  0  0  0  0  0  0
   11.7239   45.4590    4.2328 C   0  0  0  0  0  0  0  0  0  0  0  0
   12.6380   43.7952    2.6330 C   0  0  0  0  0  0  0  0  0  0  0  0
   15.5325   43.1258    6.9104 C   0  0  0  0  0  0  0  0  0  0  0  0
   16.2371   42.5140    7.9508 C   0  0  0  0  0  0  0  0  0  0  0  0
   15.6427   41.4821    8.6807 C   0  0  0  0  0  0  0  0  0  0  0  0
   15.7579   39.7944   10.4914 C   0  0  0  0  0  0  0  0  0  0  0  0
   14.5609   37.5797    8.2706 O   0  0  0  0  0  0  0  0  0  0  0  0
   14.6806   36.8958   10.4708 O   0  0  0  0  0  0  0  0  0  0  0  0
   13.7427   40.0295    9.1021 O   0  0  0  0  0  0  0  0  0  0  0  0
   15.0483   44.8930    4.7947 O   0  0  0  0  0  0  0  0  0  0  0  0
   16.4032   39.2834   11.4462 O   0  0  0  0  0  0  0  0  0  0  0  0
   13.4747   43.3155    5.5364 N   0  0  0  0  0  0  0  0  0  0  0  0
   16.3471   40.8627    9.7502 N   0  0  0  0  0  0  0  0  0  0  0  0
  1  2  1  0
  2 17  1  0
  3 17  1  0
  4  3  1  0
  4  5  1  1
  4 19  1  0
  4 16  1  0
  6 19  1  0
  7  8  2  0
  8 22  1  0
 10  9  1  0
 10 11  1  0
 10 12  1  0
 13 14  2  0
 15 23  1  0
 15  6  2  0
 22  9  1  0
 23 16  1  0
  3 18  2  0
  6  7  1  0
  8 13  1  0
  9 20  2  0
 14 15  1  0
 16 21  2  0
M  END
>  <rmsd>  (597) 
0.23260738

$$$$
MolPort-020-286-832 MCULE-8425089913 PubChem-110260869
     RDKit          3D

 33 36  0  0  0  0  0  0  0  0999 V2000
   11.3836   37.8609    9.7897 C   0  0  0  0  0  0  0  0  0  0  0  0
   12.4306   38.6023   10.5495 C   0  0  0  0  0  0  0  0  0  0  0  0
   12.0902   39.5681   11.5072 C   0  0  0  0  0  0  0  0  0  0  0  0
   10.6560   39.8494   11.8736 C   0  0  0  0  0  0  0  0  0  0  0  0
   10.4638   41.3134   12.2614 C   0  0  0  0  0  0  0  0  0  0  0  0
   11.4715   41.7010   13.2970 C   0  0  0  0  0  0  0  0  0  0  0  0
   13.1293   40.2187   12.1958 C   0  0  0  0  0  0  0  0  0  0  0  0
   14.7310   38.9716   10.9735 C   0  0  0  0  0  0  0  0  0  0  0  0
   16.1633   38.6832   10.6222 C   0  0  2  0  0  0  0  0  0  0  0  0
   17.1018   38.6475   11.8042 C   0  0  0  0  0  0  0  0  0  0  0  0
   18.4547   38.8939   11.1834 C   0  0  0  0  0  0  0  0  0  0  0  0
   18.1819   39.4161    9.7769 C   0  0  0  0  0  0  0  0  0  0  0  0
   16.4461   40.9731    9.8740 C   0  0  0  0  0  0  0  0  0  0  0  0
   15.6838   41.5739    8.7418 C   0  0  0  0  0  0  0  0  0  0  0  0
   16.2603   42.5989    7.9870 C   0  0  0  0  0  0  0  0  0  0  0  0
   15.5466   43.1791    6.9344 C   0  0  0  0  0  0  0  0  0  0  0  0
   14.2481   42.7414    6.6306 C   0  0  0  0  0  0  0  0  0  0  0  0
   13.6745   41.7191    7.3944 C   0  0  0  0  0  0  0  0  0  0  0  0
   14.3871   41.1381    8.4468 C   0  0  0  0  0  0  0  0  0  0  0  0
   13.9016   44.3600    4.6736 C   0  0  0  0  0  0  0  0  0  0  0  0
   12.9718   44.8284    3.6137 C   0  0  0  0  0  0  0  0  0  0  0  0
   13.8623   41.7509   14.0609 C   0  0  0  0  0  0  0  0  0  0  0  0
   14.3032   40.7113   15.0861 C   0  0  0  0  0  0  0  0  0  0  0  0
   13.2369   40.4847   16.1449 C   0  0  0  0  0  0  0  0  0  0  0  0
   13.9022   40.0758   17.4418 C   0  0  0  0  0  0  0  0  0  0  0  0
   12.2938   39.3811   15.7062 C   0  0  0  0  0  0  0  0  0  0  0  0
   11.1281   42.4423   14.2561 O   0  0  0  0  0  0  0  0  0  0  0  0
   15.0386   44.8913    4.7762 O   0  0  0  0  0  0  0  0  0  0  0  0
   12.8211   41.2204   13.1836 N   0  0  0  0  0  0  0  0  0  0  0  0
   14.4217   39.9089   11.9091 N   0  0  0  0  0  0  0  0  0  0  0  0
   13.7385   38.3349   10.2993 N   0  0  0  0  0  0  0  0  0  0  0  0
   16.7407   39.5649    9.6002 N   0  0  0  0  0  0  0  0  0  0  0  0
   13.4855   43.3122    5.5585 N   0  0  0  0  0  0  0  0  0  0  0  0
  1  2  1  0
  2 31  2  0
  4  3  1  0
  4  5  1  0
  5  6  1  0
  6 29  1  0
  7  3  2  0
  8 30  2  0
  9  8  1  1
  9 10  1  0
  9 32  1  0
 10 11  1  0
 11 12  1  0
 12 32  1  0
 13 32  1  0
 13 14  1  0
 15 16  2  0
 17 18  2  0
 17 33  1  0
 19 14  2  0
 21 20  1  0
 22 29  1  0
 22 23  1  0
 23 24  1  0
 24 25  1  0
 24 26  1  0
 29  7  1  0
 33 20  1  0
  2  3  1  0
  6 27  2  0
  7 30  1  0
  8 31  1  0
 14 15  1  0
 16 17  1  0
 18 19  1  0
 20 28  2  0
M  END
>  <rmsd>  (598) 
0.232597828

$$$$
MolPort-035-706-976 CSSS03437789231 MCULE-8811636795 PubChem-91938301
     RDKit          3D

 26 28  0  0  0  0  0  0  0  0999 V2000
   14.7213   36.3164    6.2423 C   0  0  0  0  0  0  0  0  0  0  0  0
   14.7278   36.2692    7.7554 C   0  0  0  0  0  0  0  0  0  0  0  0
   14.5352   37.8404    9.6417 C   0  0  0  0  0  0  0  0  0  0  0  0
   14.3913   39.2580   10.1249 C   0  0  1  0  0  0  0  0  0  0  0  0
   13.4994   39.2996   11.3576 C   0  0  0  0  0  0  0  0  0  0  0  0
   14.3464   41.0630    8.3728 C   0  0  0  0  0  0  0  0  0  0  0  0
   13.6433   41.6790    7.3333 C   0  0  0  0  0  0  0  0  0  0  0  0
   14.2293   42.7130    6.5946 C   0  0  0  0  0  0  0  0  0  0  0  0
   13.9018   44.3808    4.6728 C   0  0  0  0  0  0  0  0  0  0  0  0
   12.9934   44.8793    3.6339 C   0  0  0  0  0  0  0  0  0  0  0  0
   11.7086   44.4031    3.3932 C   0  0  0  0  0  0  0  0  0  0  0  0
   11.0684   45.0662    2.3368 C   0  0  0  0  0  0  0  0  0  0  0  0
   11.8601   46.0517    1.7653 C   0  0  0  0  0  0  0  0  0  0  0  0
   11.4569   46.9214    0.6299 C   0  0  0  0  0  0  0  0  0  0  0  0
   15.5324   43.1287    6.9097 C   0  0  0  0  0  0  0  0  0  0  0  0
   16.2372   42.5177    7.9504 C   0  0  0  0  0  0  0  0  0  0  0  0
   15.6435   41.4853    8.6801 C   0  0  0  0  0  0  0  0  0  0  0  0
   15.7596   39.7977   10.4909 C   0  0  0  0  0  0  0  0  0  0  0  0
   14.5653   37.5822    8.2693 O   0  0  0  0  0  0  0  0  0  0  0  0
   14.6851   36.8981   10.4694 O   0  0  0  0  0  0  0  0  0  0  0  0
   13.7446   40.0311    9.1010 O   0  0  0  0  0  0  0  0  0  0  0  0
   15.0466   44.8932    4.7957 O   0  0  0  0  0  0  0  0  0  0  0  0
   16.4049   39.2874   11.4460 O   0  0  0  0  0  0  0  0  0  0  0  0
   13.4746   43.3165    5.5351 N   0  0  0  0  0  0  0  0  0  0  0  0
   16.3479   40.8665    9.7498 N   0  0  0  0  0  0  0  0  0  0  0  0
   13.3432   46.1163    2.5480 S   0  0  0  0  0  0  0  0  0  0  0  0
  1  2  1  0
  2 19  1  0
  3 19  1  0
  4  3  1  0
  4  5  1  1
  4 21  1  0
  4 18  1  0
  6 21  1  0
  7  8  2  0
  8 24  1  0
  9 10  1  0
 10 26  1  0
 11 12  1  0
 13 26  1  0
 14 13  1  0
 15 16  2  0
 17 25  1  0
 17  6  2  0
 24  9  1  0
 25 18  1  0
  3 20  2  0
  6  7  1  0
  8 15  1  0
  9 22  2  0
 10 11  2  0
 12 13  2  0
 16 17  1  0
 18 23  2  0
M  END
>  <rmsd>  (599) 
0.232415751

$$$$
MolPort-007-596-206 ChemDiv-C200-2110 MCULE-7309398312 PubChem-6621343 ZINC000004878216
     RDKit          3D

 30 33  0  0  0  0  0  0  0  0999 V2000
   14.2619   42.7725    6.5764 N   0  0  0  0  0  0  0  0  0  0  0  0
   13.4715   43.3138    5.5425 N   0  0  0  0  0  0  0  0  0  0  0  0
   14.4445   42.1443    8.8780 N   0  0  0  0  0  0  0  0  0  0  0  0
   13.9449   44.2896    4.6048 C   0  0  0  0  0  0  0  0  0  0  0  0
   13.1275   44.6383    3.4300 C   0  0  0  0  0  0  0  0  0  0  0  0
   13.5731   45.6050    2.5161 C   0  0  0  0  0  0  0  0  0  0  0  0
   12.7972   45.9341    1.4007 C   0  0  0  0  0  0  0  0  0  0  0  0
   11.5704   45.2988    1.1909 C   0  0  0  0  0  0  0  0  0  0  0  0
   11.1193   44.3344    2.0960 C   0  0  0  0  0  0  0  0  0  0  0  0
   11.8953   44.0053    3.2113 C   0  0  0  0  0  0  0  0  0  0  0  0
   15.5152   42.2767    6.3219 C   0  0  0  0  0  0  0  0  0  0  0  0
   16.2487   41.7593    7.3760 C   0  0  0  0  0  0  0  0  0  0  0  0
   17.8247   40.7820    9.0502 C   0  0  0  0  0  0  0  0  0  0  0  0
   16.5943   41.1628    9.5928 C   0  0  0  0  0  0  0  0  0  0  0  0
   15.7171   41.7057    8.6413 C   0  0  0  0  0  0  0  0  0  0  0  0
   13.8515   42.0935   10.2209 C   0  0  0  0  0  0  0  0  0  0  0  0
   13.6623   40.6781   10.7125 C   0  0  0  0  0  0  0  0  0  0  0  0
   14.3530   40.2451   11.8653 C   0  0  0  0  0  0  0  0  0  0  0  0
   15.2564   41.1571   12.6260 C   0  0  0  0  0  0  0  0  0  0  0  0
   14.1934   38.9369   12.3291 C   0  0  0  0  0  0  0  0  0  0  0  0
   13.3436   38.0523   11.6663 C   0  0  0  0  0  0  0  0  0  0  0  0
   12.6360   38.4768   10.5423 C   0  0  0  0  0  0  0  0  0  0  0  0
   12.7831   39.7814   10.0632 C   0  0  0  0  0  0  0  0  0  0  0  0
   11.9761   40.1819    8.8763 C   0  0  0  0  0  0  0  0  0  0  0  0
   13.1811   36.6624   12.1659 C   0  0  0  0  0  0  0  0  0  0  0  0
   13.7264   42.6937    7.8408 C   0  0  0  0  0  0  0  0  0  0  0  0
   15.0442   44.8753    4.8041 O   0  0  0  0  0  0  0  0  0  0  0  0
   15.9908   42.2675    5.1541 O   0  0  0  0  0  0  0  0  0  0  0  0
   12.5644   43.1429    8.0506 O   0  0  0  0  0  0  0  0  0  0  0  0
   17.7998   41.1296    7.3940 S   0  0  0  0  0  0  0  0  0  0  0  0
  1  2  1  0
  1 11  1  0
  2  4  1  0
  3 26  1  0
  4  5  1  0
  6  7  2  0
  8  9  2  0
 10  5  2  0
 11 12  1  0
 12 30  1  0
 13 30  1  0
 14 15  1  0
 15  3  1  0
 16  3  1  0
 16 17  1  0
 18 20  2  0
 19 18  1  0
 21 22  2  0
 23 17  2  0
 24 23  1  0
 25 21  1  0
 26  1  1  0
  4 27  2  0
  5  6  1  0
  7  8  1  0
  9 10  1  0
 11 28  2  0
 13 14  2  0
 15 12  2  0
 17 18  1  0
 20 21  1  0
 22 23  1  0
 26 29  2  0
M  END
>  <rmsd>  (600) 
0.232336268

$$$$
MolPort-001-571-316 CSSS00132419744 MCULE-7383928779 PubChem-4029104
     RDKit          3D

 27 29  0  0  0  0  0  0  0  0999 V2000
   13.4841   39.3053   11.3617 C   0  0  0  0  0  0  0  0  0  0  0  0
   14.3860   39.3306   10.1424 C   0  0  1  0  0  0  0  0  0  0  0  0
   14.3591   41.0496    8.3636 C   0  0  0  0  0  0  0  0  0  0  0  0
   15.6643   41.4723    8.6618 C   0  0  0  0  0  0  0  0  0  0  0  0
   16.2533   42.5054    7.9297 C   0  0  0  0  0  0  0  0  0  0  0  0
   15.5423   43.1214    6.8970 C   0  0  0  0  0  0  0  0  0  0  0  0
   14.2373   42.7085    6.5892 C   0  0  0  0  0  0  0  0  0  0  0  0
   13.8973   44.3842    4.6740 C   0  0  0  0  0  0  0  0  0  0  0  0
   12.9799   44.8904    3.6378 C   0  0  0  0  0  0  0  0  0  0  0  0
   11.7004   44.3345    3.4911 C   0  0  0  0  0  0  0  0  0  0  0  0
   10.8294   44.8139    2.5083 C   0  0  0  0  0  0  0  0  0  0  0  0
   11.2313   45.8529    1.6648 C   0  0  0  0  0  0  0  0  0  0  0  0
   12.5041   46.4127    1.8037 C   0  0  0  0  0  0  0  0  0  0  0  0
   13.3752   45.9334    2.7865 C   0  0  0  0  0  0  0  0  0  0  0  0
   13.6552   41.6725    7.3278 C   0  0  0  0  0  0  0  0  0  0  0  0
   14.7535   37.9427    9.7167 C   0  0  0  0  0  0  0  0  0  0  0  0
   16.1662   37.5179    9.6760 C   0  0  0  0  0  0  0  0  0  0  0  0
   16.5005   36.2172    9.2697 C   0  0  0  0  0  0  0  0  0  0  0  0
   17.8373   35.8107    9.2259 C   0  0  0  0  0  0  0  0  0  0  0  0
   18.8510   36.7018    9.5875 C   0  0  0  0  0  0  0  0  0  0  0  0
   20.2720   36.2698    9.5406 C   0  0  0  0  0  0  0  0  0  0  0  0
   18.5284   37.9994    9.9932 C   0  0  0  0  0  0  0  0  0  0  0  0
   17.1917   38.4057   10.0372 C   0  0  0  0  0  0  0  0  0  0  0  0
   13.7429   40.0165    9.0754 O   0  0  0  0  0  0  0  0  0  0  0  0
   15.0450   44.8928    4.7953 O   0  0  0  0  0  0  0  0  0  0  0  0
   13.8428   37.1390    9.3751 O   0  0  0  0  0  0  0  0  0  0  0  0
   13.4762   43.3162    5.5367 N   0  0  0  0  0  0  0  0  0  0  0  0
  2  1  1  1
  2 24  1  0
  2 16  1  0
  3 24  1  0
  4  5  2  0
  6  7  2  0
  7 27  1  0
  8  9  1  0
 10 11  2  0
 12 13  2  0
 14  9  2  0
 15  3  2  0
 16 17  1  0
 18 19  2  0
 20 22  2  0
 21 20  1  0
 23 17  2  0
 27  8  1  0
  3  4  1  0
  5  6  1  0
  7 15  1  0
  8 25  2  0
  9 10  1  0
 11 12  1  0
 13 14  1  0
 16 26  2  0
 17 18  1  0
 19 20  1  0
 22 23  1  0
M  END
>  <rmsd>  (601) 
0.232180491

$$$$
MolPort-019-739-926 CSSS00965960715 MCULE-3291118230 PubChem-56689610
     RDKit          3D

 24 26  0  0  0  0  0  0  0  0999 V2000
   17.7247   41.3090   10.0936 C   0  0  0  0  0  0  0  0  0  0  0  0
   15.6737   41.5270    8.7176 C   0  0  0  0  0  0  0  0  0  0  0  0
   16.2456   42.5645    7.9628 C   0  0  0  0  0  0  0  0  0  0  0  0
   15.5374   43.1620    6.9205 C   0  0  0  0  0  0  0  0  0  0  0  0
   14.2433   42.7315    6.6093 C   0  0  0  0  0  0  0  0  0  0  0  0
   13.8988   44.3774    4.6700 C   0  0  0  0  0  0  0  0  0  0  0  0
   12.9658   44.9119    3.6239 C   0  0  1  0  0  0  0  0  0  0  0  0
   12.0252   43.8618    3.0355 C   0  0  0  0  0  0  0  0  0  0  0  0
   10.8458   43.6130    3.9620 C   0  0  0  0  0  0  0  0  0  0  0  0
   10.1281   44.9319    4.2420 C   0  0  0  0  0  0  0  0  0  0  0  0
   11.3570   45.5158    6.2218 C   0  0  0  0  0  0  0  0  0  0  0  0
   12.2208   46.1813    4.0747 C   0  0  0  0  0  0  0  0  0  0  0  0
   13.6676   41.7033    7.3586 C   0  0  0  0  0  0  0  0  0  0  0  0
   14.3583   41.0975    8.4142 C   0  0  0  0  0  0  0  0  0  0  0  0
   14.1301   39.5111   10.3421 C   0  0  0  0  0  0  0  0  0  0  0  0
   13.4017   38.2017   10.5901 C   0  0  0  0  0  0  0  0  0  0  0  0
   12.6258   38.3673   11.8813 C   0  0  0  0  0  0  0  0  0  0  0  0
   13.2608   39.5373   12.5943 C   0  0  0  0  0  0  0  0  0  0  0  0
   13.7734   40.4345   11.4933 C   0  0  0  0  0  0  0  0  0  0  0  0
   16.4029   40.9190    9.7459 O   0  0  0  0  0  0  0  0  0  0  0  0
   15.0420   44.8943    4.7810 O   0  0  0  0  0  0  0  0  0  0  0  0
   13.6943   40.0761    9.1115 O   0  0  0  0  0  0  0  0  0  0  0  0
   13.4827   43.3174    5.5446 N   0  0  0  0  0  0  0  0  0  0  0  0
   11.0077   45.9268    4.8683 N   0  0  0  0  0  0  0  0  0  0  0  0
  1 20  1  0
  2 20  1  0
  3  4  2  0
  5 23  1  0
  5 13  2  0
  7  6  1  1
  7  8  1  0
  8  9  1  0
  9 10  1  0
 10 24  1  0
 11 24  1  0
 12 24  1  0
 12  7  1  0
 14 22  1  0
 14  2  2  0
 15 22  1  0
 15 16  1  0
 16 17  1  0
 17 18  1  0
 18 19  1  0
 19 15  1  0
 23  6  1  0
  2  3  1  0
  4  5  1  0
  6 21  2  0
 13 14  1  0
M  END
>  <rmsd>  (602) 
0.232122973

$$$$
MolPort-001-579-848 CHEMBL1565019 CSSS00121683242 LN00895763 MCULE-8804048403 PubChem-3158579
     RDKit          3D

 26 28  0  0  0  0  0  0  0  0999 V2000
   13.4880   39.3021   11.3565 C   0  0  0  0  0  0  0  0  0  0  0  0
   14.3875   39.3202   10.1351 C   0  0  1  0  0  0  0  0  0  0  0  0
   14.3573   41.0461    8.3631 C   0  0  0  0  0  0  0  0  0  0  0  0
   15.6567   41.4787    8.6722 C   0  0  0  0  0  0  0  0  0  0  0  0
   16.2424   42.5191    7.9477 C   0  0  0  0  0  0  0  0  0  0  0  0
   15.5339   43.1323    6.9116 C   0  0  0  0  0  0  0  0  0  0  0  0
   14.2347   42.7094    6.5930 C   0  0  0  0  0  0  0  0  0  0  0  0
   13.8996   44.3820    4.6776 C   0  0  0  0  0  0  0  0  0  0  0  0
   12.9811   44.8813    3.6491 C   0  0  0  0  0  0  0  0  0  0  0  0
   13.2522   45.8959    2.7551 C   0  0  0  0  0  0  0  0  0  0  0  0
   12.1025   46.0117    1.9932 C   0  0  0  0  0  0  0  0  0  0  0  0
   11.2132   45.0645    2.4718 C   0  0  0  0  0  0  0  0  0  0  0  0
   13.6557   41.6664    7.3243 C   0  0  0  0  0  0  0  0  0  0  0  0
   14.7473   37.9294    9.7127 C   0  0  0  0  0  0  0  0  0  0  0  0
   16.1581   37.4980    9.6690 C   0  0  0  0  0  0  0  0  0  0  0  0
   17.1886   38.3828   10.0228 C   0  0  0  0  0  0  0  0  0  0  0  0
   18.5235   37.9706    9.9753 C   0  0  0  0  0  0  0  0  0  0  0  0
   18.8389   36.6701    9.5737 C   0  0  0  0  0  0  0  0  0  0  0  0
   20.2579   36.2318    9.5228 C   0  0  0  0  0  0  0  0  0  0  0  0
   17.8201   35.7817    9.2194 C   0  0  0  0  0  0  0  0  0  0  0  0
   16.4852   36.1943    9.2665 C   0  0  0  0  0  0  0  0  0  0  0  0
   13.7448   40.0055    9.0674 O   0  0  0  0  0  0  0  0  0  0  0  0
   15.0460   44.8931    4.7941 O   0  0  0  0  0  0  0  0  0  0  0  0
   11.7749   44.4107    3.4597 O   0  0  0  0  0  0  0  0  0  0  0  0
   13.8320   37.1287    9.3766 O   0  0  0  0  0  0  0  0  0  0  0  0
   13.4763   43.3148    5.5371 N   0  0  0  0  0  0  0  0  0  0  0  0
  2  1  1  1
  2 22  1  0
  2 14  1  0
  3 22  1  0
  4  5  2  0
  6  7  2  0
  7 26  1  0
  8  9  1  0
  9 24  1  0
 10 11  1  0
 12 24  1  0
 13  3  2  0
 14 15  1  0
 16 17  2  0
 18 20  2  0
 19 18  1  0
 21 15  2  0
 26  8  1  0
  3  4  1  0
  5  6  1  0
  7 13  1  0
  8 23  2  0
  9 10  2  0
 11 12  2  0
 14 25  2  0
 15 16  1  0
 17 18  1  0
 20 21  1  0
M  END
>  <rmsd>  (603) 
0.232118502

$$$$
MolPort-046-180-079 1506401081 CSSS00159964284 MCULE-5925653636 PubChem-132409780 ZINC001506401081
     RDKit          3D

 25 26  0  0  0  0  0  0  0  0999 V2000
   14.0601   41.6040   12.3781 C   0  0  0  0  0  0  0  0  0  0  0  0
   13.7030   40.2829   11.7837 C   0  0  0  0  0  0  0  0  0  0  0  0
   12.4412   39.8595   11.4223 C   0  0  0  0  0  0  0  0  0  0  0  0
   12.6348   38.5838   10.9210 C   0  0  0  0  0  0  0  0  0  0  0  0
   16.0134   39.3304   11.7294 C   0  0  0  0  0  0  0  0  0  0  0  0
   11.5847   37.6757   10.3848 C   0  0  0  0  0  0  0  0  0  0  0  0
   11.1626   40.6342   11.5052 C   0  0  0  0  0  0  0  0  0  0  0  0
    9.6527   40.3228    9.5381 C   0  0  0  0  0  0  0  0  0  0  0  0
   11.3825   42.1484    9.5062 C   0  0  0  0  0  0  0  0  0  0  0  0
   11.1797   42.3907    8.0449 C   0  0  0  0  0  0  0  0  0  0  0  0
   13.6566   41.6970    7.3867 C   0  0  0  0  0  0  0  0  0  0  0  0
   14.3845   41.1097    8.4275 C   0  0  0  0  0  0  0  0  0  0  0  0
   15.6788   41.5453    8.7169 C   0  0  0  0  0  0  0  0  0  0  0  0
   16.2539   42.5690    7.9624 C   0  0  0  0  0  0  0  0  0  0  0  0
   15.5347   43.1542    6.9174 C   0  0  0  0  0  0  0  0  0  0  0  0
   14.2327   42.7242    6.6163 C   0  0  0  0  0  0  0  0  0  0  0  0
   13.9045   44.3686    4.6723 C   0  0  0  0  0  0  0  0  0  0  0  0
   12.9806   44.8528    3.6143 C   0  0  0  0  0  0  0  0  0  0  0  0
   13.9423   38.2610   10.9829 N   0  0  0  0  0  0  0  0  0  0  0  0
   14.5779   39.2971   11.5073 N   0  0  0  0  0  0  0  0  0  0  0  0
   10.7353   41.0550   10.1767 N   0  0  0  0  0  0  0  0  0  0  0  0
   13.4794   43.3146    5.5451 N   0  0  0  0  0  0  0  0  0  0  0  0
   12.1575   42.9111   10.1424 O   0  0  0  0  0  0  0  0  0  0  0  0
   15.0439   44.8930    4.7839 O   0  0  0  0  0  0  0  0  0  0  0  0
   11.9970   41.0985    7.0500 S   0  0  0  0  0  0  0  0  0  0  0  0
  1  2  1  0
  3  4  1  0
  5 20  1  0
  6  4  1  0
  7  3  1  0
  7 21  1  0
  8 21  1  0
 10  9  1  0
 10 25  1  0
 11 25  1  0
 12 13  2  0
 14 15  2  0
 16 22  1  0
 16 11  2  0
 18 17  1  0
 20 19  1  0
 20  2  1  0
 21  9  1  0
 22 17  1  0
  2  3  2  0
  4 19  2  0
  9 23  2  0
 11 12  1  0
 13 14  1  0
 15 16  1  0
 17 24  2  0
M  END
>  <rmsd>  (604) 
0.231939062

$$$$
MolPort-035-706-972 CSSS03437789227 MCULE-3011014739 PubChem-91938297
     RDKit          3D

 28 30  0  0  0  0  0  0  0  0999 V2000
   13.5517   35.8931    6.9028 C   0  0  0  0  0  0  0  0  0  0  0  0
   14.7408   36.2466    7.7713 C   0  0  0  0  0  0  0  0  0  0  0  0
   14.5403   37.8297    9.6476 C   0  0  0  0  0  0  0  0  0  0  0  0
   14.3936   39.2502   10.1216 C   0  0  1  0  0  0  0  0  0  0  0  0
   13.4965   39.2985   11.3504 C   0  0  0  0  0  0  0  0  0  0  0  0
   14.3485   41.0559    8.3699 C   0  0  0  0  0  0  0  0  0  0  0  0
   13.6464   41.6709    7.3291 C   0  0  0  0  0  0  0  0  0  0  0  0
   14.2286   42.7124    6.5979 C   0  0  0  0  0  0  0  0  0  0  0  0
   13.9027   44.3819    4.6805 C   0  0  0  0  0  0  0  0  0  0  0  0
   12.9884   44.8695    3.6147 C   0  0  0  0  0  0  0  0  0  0  0  0
   11.9497   44.7768    1.2262 C   0  0  0  0  0  0  0  0  0  0  0  0
   12.3113   45.8981    0.4718 C   0  0  0  0  0  0  0  0  0  0  0  0
   11.3363   46.6115   -0.2323 C   0  0  0  0  0  0  0  0  0  0  0  0
    9.9999   46.2024   -0.1846 C   0  0  0  0  0  0  0  0  0  0  0  0
    9.6383   45.0795    0.5662 C   0  0  0  0  0  0  0  0  0  0  0  0
   10.6130   44.3659    1.2704 C   0  0  0  0  0  0  0  0  0  0  0  0
   15.5269   43.1366    6.9216 C   0  0  0  0  0  0  0  0  0  0  0  0
   16.2306   42.5263    7.9634 C   0  0  0  0  0  0  0  0  0  0  0  0
   15.6408   41.4864    8.6857 C   0  0  0  0  0  0  0  0  0  0  0  0
   15.7599   39.7929   10.4908 C   0  0  0  0  0  0  0  0  0  0  0  0
   14.5833   37.5638    8.2767 O   0  0  0  0  0  0  0  0  0  0  0  0
   14.6803   36.8917   10.4817 O   0  0  0  0  0  0  0  0  0  0  0  0
   13.7506   40.0164    9.0903 O   0  0  0  0  0  0  0  0  0  0  0  0
   15.0479   44.8935    4.7937 O   0  0  0  0  0  0  0  0  0  0  0  0
   16.4054   39.2817   11.4453 O   0  0  0  0  0  0  0  0  0  0  0  0
   13.4752   43.3148    5.5369 N   0  0  0  0  0  0  0  0  0  0  0  0
   16.3450   40.8675    9.7556 N   0  0  0  0  0  0  0  0  0  0  0  0
   13.1969   43.8596    2.1191 S   0  0  0  0  0  0  0  0  0  0  0  0
  1  2  1  0
  2 21  1  0
  3 21  1  0
  4  3  1  0
  4  5  1  1
  4 23  1  0
  4 20  1  0
  6 23  1  0
  7  8  2  0
  8 26  1  0
 10  9  1  0
 10 28  1  0
 11 28  1  0
 12 13  2  0
 14 15  2  0
 16 11  2  0
 17 18  2  0
 19 27  1  0
 19  6  2  0
 26  9  1  0
 27 20  1  0
  3 22  2  0
  6  7  1  0
  8 17  1  0
  9 24  2  0
 11 12  1  0
 13 14  1  0
 15 16  1  0
 18 19  1  0
 20 25  2  0
M  END
>  <rmsd>  (605) 
0.231915981

$$$$
MolPort-035-706-975 CSSS03437789230 MCULE-7007076804 PubChem-91938300
     RDKit          3D

 26 28  0  0  0  0  0  0  0  0999 V2000
   16.1128   36.4054    6.8092 C   0  0  0  0  0  0  0  0  0  0  0  0
   14.8952   36.3533    7.7080 C   0  0  0  0  0  0  0  0  0  0  0  0
   14.6420   37.8786    9.6254 C   0  0  0  0  0  0  0  0  0  0  0  0
   14.4178   39.2753   10.1372 C   0  0  1  0  0  0  0  0  0  0  0  0
   13.4934   39.2415   11.3458 C   0  0  0  0  0  0  0  0  0  0  0  0
   14.3487   41.0926    8.4001 C   0  0  0  0  0  0  0  0  0  0  0  0
   13.6517   41.6868    7.3438 C   0  0  0  0  0  0  0  0  0  0  0  0
   14.2244   42.7364    6.6167 C   0  0  0  0  0  0  0  0  0  0  0  0
   13.9038   44.3745    4.6697 C   0  0  0  0  0  0  0  0  0  0  0  0
   12.9933   44.8551    3.6254 C   0  0  0  0  0  0  0  0  0  0  0  0
   13.2743   45.8544    2.7108 C   0  0  0  0  0  0  0  0  0  0  0  0
   12.1349   45.9667    1.9302 C   0  0  0  0  0  0  0  0  0  0  0  0
   11.2542   45.0288    2.4322 C   0  0  0  0  0  0  0  0  0  0  0  0
   15.5066   43.1915    6.9619 C   0  0  0  0  0  0  0  0  0  0  0  0
   16.2043   42.6031    8.0204 C   0  0  0  0  0  0  0  0  0  0  0  0
   15.6248   41.5539    8.7373 C   0  0  0  0  0  0  0  0  0  0  0  0
   15.7487   39.8709   10.5516 C   0  0  0  0  0  0  0  0  0  0  0  0
   14.6499   37.6427    8.2483 O   0  0  0  0  0  0  0  0  0  0  0  0
   14.8735   36.9357   10.4333 O   0  0  0  0  0  0  0  0  0  0  0  0
   13.7613   40.0440    9.1163 O   0  0  0  0  0  0  0  0  0  0  0  0
   15.0476   44.8907    4.7883 O   0  0  0  0  0  0  0  0  0  0  0  0
   11.7872   44.3825    3.4373 O   0  0  0  0  0  0  0  0  0  0  0  0
   16.3806   39.3878   11.5294 O   0  0  0  0  0  0  0  0  0  0  0  0
   13.4769   43.3172    5.5394 N   0  0  0  0  0  0  0  0  0  0  0  0
   16.3203   40.9598    9.8268 N   0  0  0  0  0  0  0  0  0  0  0  0
    9.4989   44.7039    1.7653 Br  0  0  0  0  0  0  0  0  0  0  0  0
  1  2  1  0
  2 18  1  0
  3 18  1  0
  4  3  1  0
  4  5  1  1
  4 20  1  0
  4 17  1  0
  6 20  1  0
  7  8  2  0
  8 24  1  0
  9 10  1  0
 10 22  1  0
 11 12  1  0
 13 26  1  0
 13 22  1  0
 14 15  2  0
 16 25  1  0
 16  6  2  0
 24  9  1  0
 25 17  1  0
  3 19  2  0
  6  7  1  0
  8 14  1  0
  9 21  2  0
 10 11  2  0
 12 13  2  0
 15 16  1  0
 17 23  2  0
M  END
>  <rmsd>  (606) 
0.231850743

$$$$
MolPort-006-464-456 ChemDiv-V027-9265 MCULE-3401747041 PubChem-24717982 ZINC000035806637 ZINC35806637
     RDKit          3D

 32 36  0  0  0  0  0  0  0  0999 V2000
   20.5790   40.5433   10.4706 C   0  0  0  0  0  0  0  0  0  0  0  0
   18.1844   40.0863   10.7430 C   0  0  0  0  0  0  0  0  0  0  0  0
   16.0936   39.9646   10.6656 C   0  0  0  0  0  0  0  0  0  0  0  0
   14.7092   39.6058   11.0046 C   0  0  0  0  0  0  0  0  0  0  0  0
   13.7569   40.6098   11.2888 C   0  0  0  0  0  0  0  0  0  0  0  0
   12.4744   40.2010   11.6416 C   0  0  0  0  0  0  0  0  0  0  0  0
   12.1338   38.8890   11.7241 C   0  0  0  0  0  0  0  0  0  0  0  0
   10.2797   40.1059   12.2412 C   0  0  0  0  0  0  0  0  0  0  0  0
   13.0431   37.8697   11.4684 C   0  0  0  0  0  0  0  0  0  0  0  0
   14.3508   38.2422   11.1114 C   0  0  0  0  0  0  0  0  0  0  0  0
   15.7025   41.5007    8.6912 C   0  0  0  0  0  0  0  0  0  0  0  0
   14.4079   41.0679    8.3689 C   0  0  0  0  0  0  0  0  0  0  0  0
   13.6891   41.6766    7.3383 C   0  0  0  0  0  0  0  0  0  0  0  0
   14.2573   42.7192    6.5990 C   0  0  0  0  0  0  0  0  0  0  0  0
   13.8913   44.3813    4.6751 C   0  0  0  0  0  0  0  0  0  0  0  0
   12.9547   44.8821    3.6536 C   0  0  0  0  0  0  0  0  0  0  0  0
   11.6885   44.2964    3.5086 C   0  0  0  0  0  0  0  0  0  0  0  0
   10.7915   44.7756    2.5521 C   0  0  0  0  0  0  0  0  0  0  0  0
   11.1551   45.8433    1.7295 C   0  0  0  0  0  0  0  0  0  0  0  0
   10.1988   46.3556    0.7162 C   0  0  0  0  0  0  0  0  0  0  0  0
   12.4151   46.4321    1.8644 C   0  0  0  0  0  0  0  0  0  0  0  0
   13.3127   45.9525    2.8220 C   0  0  0  0  0  0  0  0  0  0  0  0
   15.5570   43.1462    6.9036 C   0  0  0  0  0  0  0  0  0  0  0  0
   16.2740   42.5387    7.9379 C   0  0  0  0  0  0  0  0  0  0  0  0
   19.5099   39.8740   11.1162 O   0  0  0  0  0  0  0  0  0  0  0  0
   10.8060   38.7812   12.0812 O   0  0  0  0  0  0  0  0  0  0  0  0
   11.3772   40.9811   11.9474 O   0  0  0  0  0  0  0  0  0  0  0  0
   15.0384   44.8964    4.7809 O   0  0  0  0  0  0  0  0  0  0  0  0
   17.8023   40.9242    9.7616 N   0  0  0  0  0  0  0  0  0  0  0  0
   16.4832   40.8434    9.7098 N   0  0  0  0  0  0  0  0  0  0  0  0
   17.1497   39.4609   11.3363 N   0  0  0  0  0  0  0  0  0  0  0  0
   13.4859   43.3162    5.5483 N   0  0  0  0  0  0  0  0  0  0  0  0
  1 25  1  0
  2 25  1  0
  2 31  1  0
  3  4  1  0
  5  6  2  0
  6 27  1  0
  7 26  1  0
  7  9  2  0
  8 26  1  0
  8 27  1  0
 10  4  2  0
 12 13  2  0
 14 32  1  0
 14 23  2  0
 15 16  1  0
 17 18  2  0
 19 21  2  0
 20 19  1  0
 22 16  2  0
 24 11  2  0
 30 29  1  0
 30  3  1  0
 30 11  1  0
 32 15  1  0
  2 29  2  0
  3 31  2  0
  4  5  1  0
  6  7  1  0
  9 10  1  0
 11 12  1  0
 13 14  1  0
 15 28  2  0
 16 17  1  0
 18 19  1  0
 21 22  1  0
 23 24  1  0
M  END
>  <rmsd>  (607) 
0.231805936

$$$$
MolPort-001-807-984 CSSS03437709741 MCULE-8779169149 PubChem-2812781 ZINC000001033253 ZINC01033253
     RDKit          3D

 28 31  0  0  0  0  0  0  0  0999 V2000
   17.7434   41.3020   10.0748 C   0  0  0  0  0  0  0  0  0  0  0  0
   15.6856   41.5252    8.7097 C   0  0  0  0  0  0  0  0  0  0  0  0
   16.2566   42.5604    7.9510 C   0  0  0  0  0  0  0  0  0  0  0  0
   15.5446   43.1591    6.9121 C   0  0  0  0  0  0  0  0  0  0  0  0
   14.2473   42.7325    6.6078 C   0  0  0  0  0  0  0  0  0  0  0  0
   13.8977   44.3739    4.6679 C   0  0  0  0  0  0  0  0  0  0  0  0
   13.2157   45.8630    2.6938 C   0  0  0  0  0  0  0  0  0  0  0  0
   12.1980   46.1693    1.7811 C   0  0  0  0  0  0  0  0  0  0  0  0
   12.3770   47.1772    0.8277 C   0  0  0  0  0  0  0  0  0  0  0  0
   13.5803   47.8843    0.7843 C   0  0  0  0  0  0  0  0  0  0  0  0
   14.8698   49.8208   -0.0092 C   0  0  0  0  0  0  0  0  0  0  0  0
   16.1233   49.0729    0.4510 C   0  0  0  0  0  0  0  0  0  0  0  0
   14.6139   47.5665    1.6754 C   0  0  0  0  0  0  0  0  0  0  0  0
   14.4286   46.5683    2.6347 C   0  0  0  0  0  0  0  0  0  0  0  0
   13.6728   41.7063    7.3611 C   0  0  0  0  0  0  0  0  0  0  0  0
   14.3674   41.0993    8.4136 C   0  0  0  0  0  0  0  0  0  0  0  0
   14.1446   39.5153   10.3441 C   0  0  0  0  0  0  0  0  0  0  0  0
   13.7997   40.4423   11.5007 C   0  0  0  0  0  0  0  0  0  0  0  0
   12.8210   39.6952   12.3826 C   0  0  0  0  0  0  0  0  0  0  0  0
   13.0083   38.2347   12.0493 C   0  0  0  0  0  0  0  0  0  0  0  0
   13.4092   38.2132   10.5928 C   0  0  0  0  0  0  0  0  0  0  0  0
   16.4185   40.9157    9.7346 O   0  0  0  0  0  0  0  0  0  0  0  0
   15.0407   44.8929    4.7818 O   0  0  0  0  0  0  0  0  0  0  0  0
   13.7733   48.9133   -0.1415 O   0  0  0  0  0  0  0  0  0  0  0  0
   15.8248   48.2589    1.5877 O   0  0  0  0  0  0  0  0  0  0  0  0
   13.7044   40.0801    9.1151 O   0  0  0  0  0  0  0  0  0  0  0  0
   13.4835   43.3184    5.5445 N   0  0  0  0  0  0  0  0  0  0  0  0
   12.9860   44.8276    3.6595 N   0  0  0  0  0  0  0  0  0  0  0  0
  1 22  1  0
  2 22  1  0
  3  4  2  0
  5 27  1  0
  5 15  2  0
  6 28  1  0
  8  9  2  0
 10 24  1  0
 11 24  1  0
 11 12  1  0
 12 25  1  0
 13 25  1  0
 13 10  2  0
 14  7  2  0
 16 26  1  0
 16  2  2  0
 17 26  1  0
 17 18  1  0
 18 19  1  0
 19 20  1  0
 20 21  1  0
 21 17  1  0
 27  6  1  0
 28  7  1  0
  2  3  1  0
  4  5  1  0
  6 23  2  0
  7  8  1  0
  9 10  1  0
 13 14  1  0
 15 16  1  0
M  END
>  <rmsd>  (608) 
0.231733128

$$$$
MolPort-005-073-513 CSSS00159770980 MCULE-7872540700 PubChem-45207133
     RDKit          3D

 28 30  0  0  0  0  0  0  0  0999 V2000
   11.6177   43.8427    1.7124 C   0  0  0  0  0  0  0  0  0  0  0  0
   12.8806   43.6167    2.5132 C   0  0  0  0  0  0  0  0  0  0  0  0
   14.0664   43.5619    1.5706 C   0  0  0  0  0  0  0  0  0  0  0  0
   13.0582   44.7510    3.5069 C   0  0  0  0  0  0  0  0  0  0  0  0
   13.9357   44.3288    4.6346 C   0  0  0  0  0  0  0  0  0  0  0  0
   14.2437   42.7641    6.6216 C   0  0  0  0  0  0  0  0  0  0  0  0
   15.5596   43.0509    6.9327 C   0  0  0  0  0  0  0  0  0  0  0  0
   15.8088   42.2501    8.0418 C   0  0  0  0  0  0  0  0  0  0  0  0
   12.3975   41.3250    7.4885 C   0  0  0  0  0  0  0  0  0  0  0  0
   12.3883   39.7927    7.4602 C   0  0  0  0  0  0  0  0  0  0  0  0
   12.7234   39.2186    8.8349 C   0  0  0  0  0  0  0  0  0  0  0  0
   11.9828   41.1811    9.9678 C   0  0  0  0  0  0  0  0  0  0  0  0
   11.5893   41.8768    8.6660 C   0  0  0  0  0  0  0  0  0  0  0  0
   12.0301   39.1342   11.1636 C   0  0  2  0  0  0  0  0  0  0  0  0
   13.5014   39.0682   11.5837 C   0  0  0  0  0  0  0  0  0  0  0  0
   11.2791   37.8114   11.3549 C   0  0  0  0  0  0  0  0  0  0  0  0
   11.7096   36.7247   10.4203 C   0  0  0  0  0  0  0  0  0  0  0  0
   10.8332   36.2879    9.4202 C   0  0  0  0  0  0  0  0  0  0  0  0
   11.2160   35.2610    8.5517 C   0  0  0  0  0  0  0  0  0  0  0  0
   12.4727   34.6638    8.6851 C   0  0  0  0  0  0  0  0  0  0  0  0
   13.3451   35.0892    9.6903 C   0  0  0  0  0  0  0  0  0  0  0  0
   12.9622   36.1154   10.5598 C   0  0  0  0  0  0  0  0  0  0  0  0
   15.0525   44.8884    4.7911 O   0  0  0  0  0  0  0  0  0  0  0  0
   13.4825   43.3147    5.5394 N   0  0  0  0  0  0  0  0  0  0  0  0
   14.7013   41.5425    8.3514 N   0  0  0  0  0  0  0  0  0  0  0  0
   13.7585   41.8585    7.4823 N   0  0  0  0  0  0  0  0  0  0  0  0
   11.7884   39.7363    9.8429 N   0  0  0  0  0  0  0  0  0  0  0  0
   12.8480   33.6760    7.8386 F   0  0  0  0  0  0  0  0  0  0  0  0
  1  2  1  0
  2  3  1  0
  2  4  1  0
  4  5  1  0
  5 24  1  0
  7  8  1  0
  9 26  1  0
  9 10  1  0
 10 11  1  0
 11 27  1  0
 12 27  1  0
 12 13  1  0
 13  9  1  0
 14 27  1  0
 14 15  1  6
 14 16  1  0
 16 17  1  0
 18 19  2  0
 20 28  1  0
 20 21  2  0
 22 17  2  0
 24  6  1  0
 26 25  1  0
 26  6  1  0
  5 23  2  0
  6  7  2  0
  8 25  2  0
 17 18  1  0
 19 20  1  0
 21 22  1  0
M  END
>  <rmsd>  (609) 
0.231724158

$$$$
MolPort-008-321-378 36354451 CSSS00160725062 LN00875969 MCULE-2342485604 PubChem-45491543 ZINC000036354451 ZINC36354451
     RDKit          3D

 33 37  0  0  0  0  0  0  0  0999 V2000
    8.2919   46.4740    6.1951 C   0  0  0  0  0  0  0  0  0  0  0  0
    9.5252   46.1836    4.0679 C   0  0  0  0  0  0  0  0  0  0  0  0
   10.7056   45.7869    3.4189 C   0  0  0  0  0  0  0  0  0  0  0  0
   12.9876   44.8426    3.6023 C   0  0  0  0  0  0  0  0  0  0  0  0
   13.9049   44.3672    4.6718 C   0  0  0  0  0  0  0  0  0  0  0  0
   14.2264   42.7462    6.6317 C   0  0  0  0  0  0  0  0  0  0  0  0
   15.5288   43.1651    6.9372 C   0  0  0  0  0  0  0  0  0  0  0  0
   16.2228   42.5897    8.0035 C   0  0  0  0  0  0  0  0  0  0  0  0
   15.6191   41.5920    8.7721 C   0  0  0  0  0  0  0  0  0  0  0  0
   14.3153   41.1569    8.4827 C   0  0  0  0  0  0  0  0  0  0  0  0
   13.6304   41.7457    7.4059 C   0  0  0  0  0  0  0  0  0  0  0  0
   14.3979   39.5702   10.4359 C   0  0  0  0  0  0  0  0  0  0  0  0
   13.5118   38.6716   11.2945 C   0  0  0  0  0  0  0  0  0  0  0  0
   12.5228   39.4949   12.1144 C   0  0  0  0  0  0  0  0  0  0  0  0
   11.3697   40.2758    9.9527 C   0  0  0  0  0  0  0  0  0  0  0  0
   12.3273   39.6958    8.9650 C   0  0  0  0  0  0  0  0  0  0  0  0
    9.7258   41.3474   10.7387 C   0  0  0  0  0  0  0  0  0  0  0  0
    8.5800   42.1144   10.9346 C   0  0  0  0  0  0  0  0  0  0  0  0
    8.1845   42.3615   12.2629 C   0  0  0  0  0  0  0  0  0  0  0  0
    8.9338   41.8461   13.3441 C   0  0  0  0  0  0  0  0  0  0  0  0
   10.0884   41.0758   13.1114 C   0  0  0  0  0  0  0  0  0  0  0  0
   10.4496   40.8499   11.7831 C   0  0  0  0  0  0  0  0  0  0  0  0
   10.7911   45.8742    2.0193 C   0  0  0  0  0  0  0  0  0  0  0  0
    9.7111   46.3497    1.2729 C   0  0  0  0  0  0  0  0  0  0  0  0
    8.5372   46.7424    1.9176 C   0  0  0  0  0  0  0  0  0  0  0  0
    8.4436   46.6600    3.3087 C   0  0  0  0  0  0  0  0  0  0  0  0
    9.4483   46.0928    5.4620 O   0  0  0  0  0  0  0  0  0  0  0  0
   11.7743   45.3043    4.1819 O   0  0  0  0  0  0  0  0  0  0  0  0
   15.0448   44.8894    4.7817 O   0  0  0  0  0  0  0  0  0  0  0  0
   13.4795   43.3152    5.5480 N   0  0  0  0  0  0  0  0  0  0  0  0
   13.6889   40.1305    9.2782 N   0  0  0  0  0  0  0  0  0  0  0  0
   11.4951   40.1601   11.3050 N   0  0  0  0  0  0  0  0  0  0  0  0
   10.2869   40.9999    9.5667 N   0  0  0  0  0  0  0  0  0  0  0  0
  1 27  1  0
  2 27  1  0
  3 28  1  0
  3 23  2  0
  4 28  1  0
  4  5  1  0
  5 30  1  0
  7  8  2  0
  9 10  2  0
 10 31  1  0
 11  6  2  0
 12 31  1  0
 12 13  1  0
 13 14  1  0
 14 32  1  0
 16 15  1  0
 16 31  1  0
 17 33  1  0
 18 19  2  0
 20 21  2  0
 22 17  2  0
 22 32  1  0
 24 25  2  0
 26  2  2  0
 30  6  1  0
 32 15  1  0
  2  3  1  0
  5 29  2  0
  6  7  1  0
  8  9  1  0
 10 11  1  0
 15 33  2  0
 17 18  1  0
 19 20  1  0
 21 22  1  0
 23 24  1  0
 25 26  1  0
M  END
>  <rmsd>  (610) 
0.231702745

$$$$
MolPort-046-157-968 1061704 CSSS00132863731 ZINC000001061704
     RDKit          3D

 26 29  0  0  0  0  0  0  0  0999 V2000
   15.0376   44.8960    4.7807 O   0  0  0  0  0  0  0  0  0  0  0  0
   13.8840   44.3935    4.6948 C   0  0  0  0  0  0  0  0  0  0  0  0
   14.2619   42.7173    6.5991 C   0  0  0  0  0  0  0  0  0  0  0  0
   13.7359   41.6186    7.2851 C   0  0  0  0  0  0  0  0  0  0  0  0
   14.4623   41.0144    8.3147 C   0  0  0  0  0  0  0  0  0  0  0  0
   15.7222   41.5067    8.6819 C   0  0  0  0  0  0  0  0  0  0  0  0
   16.5218   40.8684    9.7518 C   0  0  0  0  0  0  0  0  0  0  0  0
   17.1826   39.6744   11.3717 C   0  0  0  0  0  0  0  0  0  0  0  0
   14.7168   39.6330   11.0130 C   0  0  0  0  0  0  0  0  0  0  0  0
   13.7489   40.6097   11.2905 C   0  0  0  0  0  0  0  0  0  0  0  0
   12.4418   40.2334   11.6142 C   0  0  0  0  0  0  0  0  0  0  0  0
   12.0975   38.8794   11.6699 C   0  0  0  0  0  0  0  0  0  0  0  0
   13.0611   37.9013   11.4060 C   0  0  0  0  0  0  0  0  0  0  0  0
   14.3682   38.2766   11.0813 C   0  0  0  0  0  0  0  0  0  0  0  0
   16.2534   42.6003    7.9841 C   0  0  0  0  0  0  0  0  0  0  0  0
   15.5286   43.2037    6.9532 C   0  0  0  0  0  0  0  0  0  0  0  0
   12.9408   44.9120    3.6971 C   0  0  0  0  0  0  0  0  0  0  0  0
   13.1962   45.9332    2.7947 C   0  0  0  0  0  0  0  0  0  0  0  0
   12.0978   46.2133    1.9678 C   0  0  0  0  0  0  0  0  0  0  0  0
   10.9759   45.4224    2.2096 C   0  0  0  0  0  0  0  0  0  0  0  0
   13.4852   43.3133    5.5514 N   0  0  0  0  0  0  0  0  0  0  0  0
   17.8575   41.0335    9.8576 N   0  0  0  0  0  0  0  0  0  0  0  0
   18.2697   40.2890   10.8730 N   0  0  0  0  0  0  0  0  0  0  0  0
   16.0645   40.0154   10.6990 N   0  0  0  0  0  0  0  0  0  0  0  0
   17.2328   38.6094   12.8115 S   0  0  0  0  0  0  0  0  0  0  0  0
   11.3686   44.3737    3.4648 S   0  0  0  0  0  0  0  0  0  0  0  0
  2 21  1  0
  2 17  1  0
  4  5  2  0
  6  7  1  0
  6 15  2  0
  8 25  1  0
  8 24  1  0
 10 11  2  0
 12 13  2  0
 14  9  2  0
 16  3  2  0
 17 26  1  0
 18 19  1  0
 20 26  1  0
 21  3  1  0
 22 23  1  0
 24  9  1  0
 24  7  1  0
  2  1  2  0
  3  4  1  0
  5  6  1  0
  7 22  2  0
  8 23  2  0
  9 10  1  0
 11 12  1  0
 13 14  1  0
 15 16  1  0
 17 18  2  0
 19 20  2  0
M  END
>  <rmsd>  (611) 
0.231457666

$$$$
MolPort-010-852-387 ChemDiv-G952-3417 MCULE-2399946296 PubChem-53095823 ZINC000064980503
     RDKit          3D

 29 33  0  0  0  0  0  0  0  0999 V2000
   14.4801   41.5416    8.4357 N   0  0  0  0  0  0  0  0  0  0  0  0
   13.6263   41.8261    7.4663 N   0  0  0  0  0  0  0  0  0  0  0  0
   16.3721   41.8739    9.5199 N   0  0  0  0  0  0  0  0  0  0  0  0
   15.6661   40.9461   10.1796 N   0  0  0  0  0  0  0  0  0  0  0  0
   13.4713   43.3133    5.5372 N   0  0  0  0  0  0  0  0  0  0  0  0
   12.0461   45.7086    4.0361 N   0  0  0  0  0  0  0  0  0  0  0  0
   14.1691   42.7945    6.6753 C   0  0  0  0  0  0  0  0  0  0  0  0
   15.6046   42.2016    8.4670 C   0  0  0  0  0  0  0  0  0  0  0  0
   14.5009   40.7452    9.5039 C   0  0  0  0  0  0  0  0  0  0  0  0
   13.3893   39.8296    9.9187 C   0  0  0  0  0  0  0  0  0  0  0  0
   12.6702   40.3296   11.1762 C   0  0  0  0  0  0  0  0  0  0  0  0
   13.5060   40.0963   12.4346 C   0  0  0  0  0  0  0  0  0  0  0  0
   13.8614   38.6193   12.5641 C   0  0  0  0  0  0  0  0  0  0  0  0
   14.6642   38.1684   11.3484 C   0  0  0  0  0  0  0  0  0  0  0  0
   13.8535   38.3761   10.0691 C   0  0  0  0  0  0  0  0  0  0  0  0
   13.9373   44.3324    4.6454 C   0  0  0  0  0  0  0  0  0  0  0  0
   13.0564   44.7879    3.5332 C   0  0  0  0  0  0  0  0  0  0  0  0
   10.8229   45.3479    4.6806 C   0  0  0  0  0  0  0  0  0  0  0  0
   10.2658   46.5034    5.3734 C   0  0  0  0  0  0  0  0  0  0  0  0
   11.1355   47.5594    5.1922 C   0  0  0  0  0  0  0  0  0  0  0  0
   10.8913   48.8127    5.7504 C   0  0  0  0  0  0  0  0  0  0  0  0
    9.7176   48.9731    6.5085 C   0  0  0  0  0  0  0  0  0  0  0  0
    8.8285   47.8927    6.6946 C   0  0  0  0  0  0  0  0  0  0  0  0
    9.0995   46.6360    6.1244 C   0  0  0  0  0  0  0  0  0  0  0  0
   12.2490   47.0803    4.3818 C   0  0  0  0  0  0  0  0  0  0  0  0
   15.7335   43.3076    7.2167 S   0  0  0  0  0  0  0  0  0  0  0  0
   15.0634   44.8734    4.8008 O   0  0  0  0  0  0  0  0  0  0  0  0
   10.3272   44.1901    4.6655 O   0  0  0  0  0  0  0  0  0  0  0  0
   13.2613   47.7532    4.0513 O   0  0  0  0  0  0  0  0  0  0  0  0
  1  2  1  0
  3  4  1  0
  5 16  1  0
  6 18  1  0
  7 26  1  0
  7  5  1  0
  8 26  1  0
  8  1  1  0
  9  1  1  0
 10  9  1  0
 10 11  1  0
 11 12  1  0
 12 13  1  0
 13 14  1  0
 14 15  1  0
 15 10  1  0
 17 16  1  0
 17  6  1  0
 18 19  1  0
 20 21  2  0
 20 25  1  0
 22 23  2  0
 24 19  2  0
 25  6  1  0
  7  2  2  0
  8  3  2  0
  9  4  2  0
 16 27  2  0
 18 28  2  0
 19 20  1  0
 21 22  1  0
 23 24  1  0
 25 29  2  0
M  END
>  <rmsd>  (612) 
0.231393978

$$$$
MolPort-008-359-969 CSSS00159442944 MCULE-9166582463 PubChem-46982465
     RDKit          3D

 24 25  0  0  0  0  0  0  0  0999 V2000
   14.8431   40.1442   13.8430 C   0  0  0  0  0  0  0  0  0  0  0  0
   14.4847   41.1168   12.7298 C   0  0  0  0  0  0  0  0  0  0  0  0
   14.4449   40.4596   11.3481 C   0  0  2  0  0  0  0  0  0  0  0  0
   13.4766   39.2873   11.2761 C   0  0  0  0  0  0  0  0  0  0  0  0
   16.5407   39.0394   11.5085 C   0  0  0  0  0  0  0  0  0  0  0  0
   16.7555   37.8938   10.5762 C   0  0  0  0  0  0  0  0  0  0  0  0
   15.7615   36.9258   10.4125 C   0  0  0  0  0  0  0  0  0  0  0  0
   15.9744   35.8728    9.5202 C   0  0  0  0  0  0  0  0  0  0  0  0
   18.1162   36.7325    8.9608 C   0  0  0  0  0  0  0  0  0  0  0  0
   17.9412   37.8008    9.8433 C   0  0  0  0  0  0  0  0  0  0  0  0
   16.4133   40.9121    9.8457 C   0  0  0  0  0  0  0  0  0  0  0  0
   15.6464   41.5473    8.7498 C   0  0  0  0  0  0  0  0  0  0  0  0
   16.2337   42.5656    7.9853 C   0  0  0  0  0  0  0  0  0  0  0  0
   15.5313   43.1558    6.9312 C   0  0  0  0  0  0  0  0  0  0  0  0
   14.2314   42.7318    6.6202 C   0  0  0  0  0  0  0  0  0  0  0  0
   13.6486   41.7085    7.3735 C   0  0  0  0  0  0  0  0  0  0  0  0
   14.3511   41.1182    8.4275 C   0  0  0  0  0  0  0  0  0  0  0  0
   13.9059   44.3646    4.6715 C   0  0  0  0  0  0  0  0  0  0  0  0
   12.9861   44.8434    3.6074 C   0  0  0  0  0  0  0  0  0  0  0  0
   15.7777   40.1026   10.8535 N   0  0  0  0  0  0  0  0  0  0  0  0
   17.1378   35.7979    8.8187 N   0  0  0  0  0  0  0  0  0  0  0  0
   13.4786   43.3135    5.5470 N   0  0  0  0  0  0  0  0  0  0  0  0
   17.6639   41.0762    9.8886 O   0  0  0  0  0  0  0  0  0  0  0  0
   15.0443   44.8906    4.7859 O   0  0  0  0  0  0  0  0  0  0  0  0
  1  2  1  0
  3  2  1  0
  3  4  1  1
  3 20  1  0
  5 20  1  0
  5  6  1  0
  7  8  2  0
  9 21  2  0
 10  6  2  0
 11 12  1  0
 13 14  2  0
 15 16  2  0
 15 22  1  0
 17 12  2  0
 19 18  1  0
 20 11  1  0
 22 18  1  0
  6  7  1  0
  8 21  1  0
  9 10  1  0
 11 23  2  0
 12 13  1  0
 14 15  1  0
 16 17  1  0
 18 24  2  0
M  END
>  <rmsd>  (613) 
0.231393605

$$$$
MolPort-005-025-664 14883125 CSSS00160429083 PubChem-26279097 ZINC000014883125 ZINC14883125
     RDKit          3D

 35 38  0  0  0  0  0  0  0  0999 V2000
   14.9736   47.2325    9.1066 C   0  0  0  0  0  0  0  0  0  0  0  0
   14.4550   45.1467    7.9068 C   0  0  0  0  0  0  0  0  0  0  0  0
   14.7148   43.7102    7.7152 C   0  0  0  0  0  0  0  0  0  0  0  0
   14.2249   42.8748    6.6926 C   0  0  0  0  0  0  0  0  0  0  0  0
   13.9011   44.3645    4.6738 C   0  0  0  0  0  0  0  0  0  0  0  0
   13.0181   44.8437    3.6075 C   0  0  0  0  0  0  0  0  0  0  0  0
   11.7893   44.3589    3.4444 C   0  0  0  0  0  0  0  0  0  0  0  0
   10.8889   44.8192    2.3785 C   0  0  0  0  0  0  0  0  0  0  0  0
   11.2835   45.7925    1.4461 C   0  0  0  0  0  0  0  0  0  0  0  0
   10.4019   46.2038    0.4417 C   0  0  0  0  0  0  0  0  0  0  0  0
    9.1230   45.6459    0.3634 C   0  0  0  0  0  0  0  0  0  0  0  0
    8.7254   44.6773    1.2891 C   0  0  0  0  0  0  0  0  0  0  0  0
    9.6068   44.2657    2.2940 C   0  0  0  0  0  0  0  0  0  0  0  0
   14.5557   41.5305    6.8919 C   0  0  0  0  0  0  0  0  0  0  0  0
   14.2145   40.4495    6.0797 C   0  0  0  0  0  0  0  0  0  0  0  0
   14.6543   39.1706    6.4543 C   0  0  0  0  0  0  0  0  0  0  0  0
   15.4301   39.0087    7.6193 C   0  0  0  0  0  0  0  0  0  0  0  0
   15.8450   37.6437    8.0508 C   0  0  0  0  0  0  0  0  0  0  0  0
   14.9237   35.5859    8.6357 C   0  0  0  0  0  0  0  0  0  0  0  0
   15.0557   37.2762   10.2343 C   0  0  0  0  0  0  0  0  0  0  0  0
   14.1567   38.3437   10.7796 C   0  0  0  0  0  0  0  0  0  0  0  0
   13.1313   38.9915   10.1082 C   0  0  0  0  0  0  0  0  0  0  0  0
   12.6678   39.8613   11.0759 C   0  0  0  0  0  0  0  0  0  0  0  0
   11.5553   40.8298   10.8925 C   0  0  0  0  0  0  0  0  0  0  0  0
   15.3148   41.3191    8.0263 C   0  0  0  0  0  0  0  0  0  0  0  0
   15.1876   45.8505    8.8643 O   0  0  0  0  0  0  0  0  0  0  0  0
   13.5583   45.7294    7.2385 O   0  0  0  0  0  0  0  0  0  0  0  0
   15.0511   44.8665    4.7878 O   0  0  0  0  0  0  0  0  0  0  0  0
   14.2492   38.8061   12.0029 O   0  0  0  0  0  0  0  0  0  0  0  0
   13.4773   43.3146    5.5525 N   0  0  0  0  0  0  0  0  0  0  0  0
   14.7824   37.0175    8.8260 N   0  0  0  0  0  0  0  0  0  0  0  0
   13.3625   39.7295   12.2196 N   0  0  0  0  0  0  0  0  0  0  0  0
   15.7465   40.0880    8.3931 N   0  0  0  0  0  0  0  0  0  0  0  0
   10.7879   47.1420   -0.4555 F   0  0  0  0  0  0  0  0  0  0  0  0
   15.5786   42.7651    8.8297 S   0  0  0  0  0  0  0  0  0  0  0  0
  1 26  1  0
  2 26  1  0
  2  3  1  0
  3 35  1  0
  4 30  1  0
  4 14  1  0
  5  6  1  0
  7  8  1  0
  9 10  2  0
 10 34  1  0
 11 12  2  0
 13  8  2  0
 15 16  2  0
 17 33  2  0
 18 17  1  0
 18 31  1  0
 19 31  1  0
 20 31  1  0
 20 21  1  0
 21 29  1  0
 22 23  1  0
 24 23  1  0
 25 35  1  0
 25 14  2  0
 30  5  1  0
 32 29  1  0
  2 27  2  0
  3  4  2  0
  5 28  2  0
  6  7  2  0
  8  9  1  0
 10 11  1  0
 12 13  1  0
 14 15  1  0
 16 17  1  0
 21 22  2  0
 23 32  2  0
 25 33  1  0
M  END
>  <rmsd>  (614) 
0.23138696

$$$$
MolPort-003-112-240 8959267 CSSS03436958108 MCULE-7209072938 PubChem-40887163 VPMSTIFGMPMPIM-UHFFFAOYSA-N ZINC000008959267
     RDKit          3D

 25 27  0  0  0  0  0  0  0  0999 V2000
   16.3761   40.8986    9.8182 N   0  0  0  0  0  0  0  0  0  0  0  0
   13.4818   43.3145    5.5476 N   0  0  0  0  0  0  0  0  0  0  0  0
   16.1687   39.4778   10.1078 C   0  0  0  0  0  0  0  0  0  0  0  0
   15.3459   39.2671   11.3770 C   0  0  0  0  0  0  0  0  0  0  0  0
   13.8772   39.5875   11.1588 C   0  0  0  0  0  0  0  0  0  0  0  0
   13.1981   39.7588   12.5007 C   0  0  0  0  0  0  0  0  0  0  0  0
   13.2040   38.4595   10.4007 C   0  0  0  0  0  0  0  0  0  0  0  0
   15.7076   41.4991    8.6909 C   0  0  0  0  0  0  0  0  0  0  0  0
   14.3847   41.1216    8.4114 C   0  0  0  0  0  0  0  0  0  0  0  0
   13.6659   41.7191    7.3767 C   0  0  0  0  0  0  0  0  0  0  0  0
   14.2526   42.7144    6.5973 C   0  0  0  0  0  0  0  0  0  0  0  0
   15.5788   43.0844    6.8486 C   0  0  0  0  0  0  0  0  0  0  0  0
   16.3211   42.4825    7.8706 C   0  0  0  0  0  0  0  0  0  0  0  0
   18.6340   42.1980    8.7735 C   0  0  0  0  0  0  0  0  0  0  0  0
   18.4047   42.4046   10.2632 C   0  0  0  0  0  0  0  0  0  0  0  0
   18.2962   43.8893   10.5762 C   0  0  0  0  0  0  0  0  0  0  0  0
   19.6078   41.8460   10.9991 C   0  0  0  0  0  0  0  0  0  0  0  0
   17.1691   41.6851   10.7240 C   0  0  0  0  0  0  0  0  0  0  0  0
   13.9062   44.3597    4.6607 C   0  0  0  0  0  0  0  0  0  0  0  0
   12.9691   44.8565    3.6084 C   0  0  0  0  0  0  0  0  0  0  0  0
   13.5960   44.6894    2.2359 C   0  0  0  0  0  0  0  0  0  0  0  0
   12.5463   43.7097    2.7081 C   0  0  0  0  0  0  0  0  0  0  0  0
   17.6569   42.8793    7.9972 O   0  0  0  0  0  0  0  0  0  0  0  0
   16.8475   41.7361   11.9432 O   0  0  0  0  0  0  0  0  0  0  0  0
   15.0400   44.8964    4.7854 O   0  0  0  0  0  0  0  0  0  0  0  0
  1  8  1  0
  2 19  1  0
  3  1  1  0
  3  4  1  0
  4  5  1  0
  5  6  1  0
  5  7  1  0
  9 10  2  0
 11 12  2  0
 11  2  1  0
 13 23  1  0
 13  8  2  0
 14 23  1  0
 14 15  1  0
 15 16  1  0
 15 17  1  0
 15 18  1  0
 18  1  1  0
 20 19  1  0
 20 21  1  0
 21 22  1  0
 22 20  1  0
  8  9  1  0
 10 11  1  0
 12 13  1  0
 18 24  2  0
 19 25  2  0
M  END
>  <rmsd>  (615) 
0.231355131

$$$$
MolPort-035-706-970 CSSS03437789225 MCULE-7258694995 PubChem-91938295
     RDKit          3D

 27 29  0  0  0  0  0  0  0  0999 V2000
   16.0399   36.2542    6.8930 C   0  0  0  0  0  0  0  0  0  0  0  0
   14.7931   36.2781    7.7522 C   0  0  0  0  0  0  0  0  0  0  0  0
   14.5625   37.8420    9.6410 C   0  0  0  0  0  0  0  0  0  0  0  0
   14.3974   39.2565   10.1264 C   0  0  1  0  0  0  0  0  0  0  0  0
   13.4941   39.2839   11.3512 C   0  0  0  0  0  0  0  0  0  0  0  0
   14.3473   41.0649    8.3780 C   0  0  0  0  0  0  0  0  0  0  0  0
   13.6462   41.6754    7.3338 C   0  0  0  0  0  0  0  0  0  0  0  0
   14.2273   42.7172    6.6020 C   0  0  0  0  0  0  0  0  0  0  0  0
   13.9023   44.3809    4.6792 C   0  0  0  0  0  0  0  0  0  0  0  0
   12.9870   44.8686    3.6132 C   0  0  0  0  0  0  0  0  0  0  0  0
   13.1571   44.0237    2.3630 C   0  0  0  0  0  0  0  0  0  0  0  0
   12.2351   44.5168    1.2623 C   0  0  0  0  0  0  0  0  0  0  0  0
   12.7716   45.7883    0.6396 C   0  0  0  0  0  0  0  0  0  0  0  0
   12.3357   45.7307   -0.8045 C   0  0  0  0  0  0  0  0  0  0  0  0
   12.3145   44.2594   -1.1621 C   0  0  0  0  0  0  0  0  0  0  0  0
   12.1714   43.4957    0.1429 C   0  0  0  0  0  0  0  0  0  0  0  0
   15.5231   43.1466    6.9290 C   0  0  0  0  0  0  0  0  0  0  0  0
   16.2256   42.5409    7.9745 C   0  0  0  0  0  0  0  0  0  0  0  0
   15.6370   41.5007    8.6971 C   0  0  0  0  0  0  0  0  0  0  0  0
   15.7558   39.8114   10.5060 C   0  0  0  0  0  0  0  0  0  0  0  0
   14.5987   37.5862    8.2680 O   0  0  0  0  0  0  0  0  0  0  0  0
   14.7251   36.9009   10.4676 O   0  0  0  0  0  0  0  0  0  0  0  0
   13.7506   40.0249    9.0989 O   0  0  0  0  0  0  0  0  0  0  0  0
   15.0476   44.8928    4.7919 O   0  0  0  0  0  0  0  0  0  0  0  0
   16.3980   39.3071   11.4665 O   0  0  0  0  0  0  0  0  0  0  0  0
   13.4750   43.3153    5.5377 N   0  0  0  0  0  0  0  0  0  0  0  0
   16.3390   40.8878    9.7718 N   0  0  0  0  0  0  0  0  0  0  0  0
  1  2  1  0
  2 21  1  0
  3 21  1  0
  4  3  1  0
  4  5  1  1
  4 23  1  0
  4 20  1  0
  6 23  1  0
  7  8  2  0
  8 26  1  0
 10  9  1  0
 10 11  1  0
 11 12  1  0
 12 13  1  0
 13 14  1  0
 14 15  1  0
 15 16  1  0
 16 12  1  0
 17 18  2  0
 19 27  1  0
 19  6  2  0
 26  9  1  0
 27 20  1  0
  3 22  2  0
  6  7  1  0
  8 17  1  0
  9 24  2  0
 18 19  1  0
 20 25  2  0
M  END
>  <rmsd>  (616) 
0.231116623

$$$$
MolPort-021-778-309 72437814 CSC048524567 CSSS00048524567 MCULE-7639738129 PubChem-56921464 ZINC000072437814 ZINC72437814
     RDKit          3D

 24 26  0  0  0  0  0  0  0  0999 V2000
   13.4072   39.2559   11.2655 C   0  0  0  0  0  0  0  0  0  0  0  0
   13.7862   40.0435    9.2400 C   0  0  0  0  0  0  0  0  0  0  0  0
   14.4037   41.1392    8.4422 C   0  0  0  0  0  0  0  0  0  0  0  0
   15.7065   41.5682    8.7196 C   0  0  0  0  0  0  0  0  0  0  0  0
   16.2843   42.5854    7.9560 C   0  0  0  0  0  0  0  0  0  0  0  0
   15.5619   43.1713    6.9126 C   0  0  0  0  0  0  0  0  0  0  0  0
   14.2565   42.7439    6.6248 C   0  0  0  0  0  0  0  0  0  0  0  0
   13.8991   44.3590    4.6614 C   0  0  0  0  0  0  0  0  0  0  0  0
   12.9847   44.8107    3.5979 C   0  0  0  0  0  0  0  0  0  0  0  0
   11.7160   44.2322    3.4620 C   0  0  0  0  0  0  0  0  0  0  0  0
   10.8497   44.6570    2.4514 C   0  0  0  0  0  0  0  0  0  0  0  0
   11.2366   45.6668    1.5553 C   0  0  0  0  0  0  0  0  0  0  0  0
   12.5077   46.2463    1.6979 C   0  0  0  0  0  0  0  0  0  0  0  0
   13.3738   45.8219    2.7089 C   0  0  0  0  0  0  0  0  0  0  0  0
   10.7908   47.0712   -0.4924 C   0  0  0  0  0  0  0  0  0  0  0  0
    9.6002   47.9002   -0.9749 C   0  0  0  0  0  0  0  0  0  0  0  0
    8.0439   46.4466   -0.2482 C   0  0  0  0  0  0  0  0  0  0  0  0
    9.0509   45.4442    0.3154 C   0  0  0  0  0  0  0  0  0  0  0  0
   13.6854   41.7246    7.3947 C   0  0  0  0  0  0  0  0  0  0  0  0
   13.6447   40.4411   10.5702 O   0  0  0  0  0  0  0  0  0  0  0  0
   15.0368   44.8913    4.7755 O   0  0  0  0  0  0  0  0  0  0  0  0
    8.5683   47.0482   -1.4052 O   0  0  0  0  0  0  0  0  0  0  0  0
   13.4876   43.3152    5.5576 N   0  0  0  0  0  0  0  0  0  0  0  0
   10.3414   46.1085    0.5168 N   0  0  0  0  0  0  0  0  0  0  0  0
  1 20  1  0
  2 20  1  0
  2  3  1  0
  4  5  2  0
  6  7  2  0
  7 23  1  0
  8  9  1  0
 10 11  2  0
 12 13  2  0
 12 24  1  0
 14  9  2  0
 15 24  1  0
 15 16  1  0
 16 22  1  0
 17 22  1  0
 17 18  1  0
 18 24  1  0
 19  3  2  0
 23  8  1  0
  3  4  1  0
  5  6  1  0
  7 19  1  0
  8 21  2  0
  9 10  1  0
 11 12  1  0
 13 14  1  0
M  END
>  <rmsd>  (617) 
0.230972469

$$$$
MolPort-010-852-375 41108824 ChemDiv-G952-3382 MCULE-5744960344 PubChem-52103599 ZINC000041108824
     RDKit          3D

 25 28  0  0  0  0  0  0  0  0999 V2000
   14.5795   41.6552    8.5085 N   0  0  0  0  0  0  0  0  0  0  0  0
   13.6967   41.9083    7.5567 N   0  0  0  0  0  0  0  0  0  0  0  0
   16.5325   41.9696    9.4848 N   0  0  0  0  0  0  0  0  0  0  0  0
   15.8492   41.0620   10.1943 N   0  0  0  0  0  0  0  0  0  0  0  0
   13.4944   43.3121    5.5697 N   0  0  0  0  0  0  0  0  0  0  0  0
   14.2208   42.8400    6.7106 C   0  0  0  0  0  0  0  0  0  0  0  0
   15.7142   42.2971    8.4704 C   0  0  0  0  0  0  0  0  0  0  0  0
   14.6464   40.8728    9.5849 C   0  0  0  0  0  0  0  0  0  0  0  0
   13.5682   39.9519   10.0515 C   0  0  0  0  0  0  0  0  0  0  0  0
   13.0186   40.4258   11.4041 C   0  0  0  0  0  0  0  0  0  0  0  0
   12.3439   39.2785   12.1496 C   0  0  0  0  0  0  0  0  0  0  0  0
   13.3349   38.1467   12.4564 C   0  0  0  0  0  0  0  0  0  0  0  0
   14.4958   38.0558   11.4566 C   0  0  0  0  0  0  0  0  0  0  0  0
   14.0626   38.4960   10.0599 C   0  0  0  0  0  0  0  0  0  0  0  0
   13.9360   44.2988    4.6304 C   0  0  0  0  0  0  0  0  0  0  0  0
   13.0767   44.6285    3.4575 C   0  0  0  0  0  0  0  0  0  0  0  0
   13.1899   43.5551    2.3814 C   0  0  0  0  0  0  0  0  0  0  0  0
   14.5107   43.6093    1.6857 C   0  0  0  0  0  0  0  0  0  0  0  0
   14.8577   44.7170    0.9013 C   0  0  0  0  0  0  0  0  0  0  0  0
   16.0939   44.7536    0.2490 C   0  0  0  0  0  0  0  0  0  0  0  0
   16.9835   43.6823    0.3765 C   0  0  0  0  0  0  0  0  0  0  0  0
   16.6362   42.5735    1.1542 C   0  0  0  0  0  0  0  0  0  0  0  0
   15.4001   42.5363    1.8066 C   0  0  0  0  0  0  0  0  0  0  0  0
   15.8133   43.3464    7.1698 S   0  0  0  0  0  0  0  0  0  0  0  0
   15.0458   44.8784    4.7631 O   0  0  0  0  0  0  0  0  0  0  0  0
  1  2  1  0
  3  4  1  0
  5 15  1  0
  6 24  1  0
  6  5  1  0
  7 24  1  0
  7  1  1  0
  8  1  1  0
  9  8  1  0
  9 10  1  0
 10 11  1  0
 11 12  1  0
 12 13  1  0
 13 14  1  0
 14  9  1  0
 16 15  1  0
 16 17  1  0
 17 18  1  0
 19 20  2  0
 21 22  2  0
 23 18  2  0
  6  2  2  0
  7  3  2  0
  8  4  2  0
 15 25  2  0
 18 19  1  0
 20 21  1  0
 22 23  1  0
M  END
>  <rmsd>  (618) 
0.230953053

$$$$
MolPort-039-210-483 CSSS03436987857 MCULE-6303953660 PubChem-121017032
     RDKit          3D

 19 20  0  0  0  0  0  0  0  0999 V2000
   12.7500   44.4585    2.7132 C   0  0  0  0  0  0  0  0  0  0  0  0
   12.5532   45.3275    3.9391 C   0  0  0  0  0  0  0  0  0  0  0  0
   11.1323   45.1730    4.4429 C   0  0  0  0  0  0  0  0  0  0  0  0
   14.2144   42.5359    6.6483 C   0  0  0  0  0  0  0  0  0  0  0  0
   14.0488   41.2275    7.0396 C   0  0  0  0  0  0  0  0  0  0  0  0
   15.1560   39.7678    8.7164 C   0  0  0  0  0  0  0  0  0  0  0  0
   14.5481   39.8640   10.1068 C   0  0  1  0  0  0  0  0  0  0  0  0
   13.0111   39.8715   10.0228 C   0  0  0  0  0  0  0  0  0  0  0  0
   12.3826   38.9617   11.0813 C   0  0  0  0  0  0  0  0  0  0  0  0
   13.1223   39.0570   12.4180 C   0  0  0  0  0  0  0  0  0  0  0  0
   14.6465   39.1106   12.2225 C   0  0  0  0  0  0  0  0  0  0  0  0
   15.2453   43.0778    7.3925 C   0  0  0  0  0  0  0  0  0  0  0  0
   13.7069   44.8554    5.2132 S   0  0  0  0  0  0  0  0  0  0  0  0
   15.1088   45.0237    4.6982 O   0  0  0  0  0  0  0  0  0  0  0  0
   13.5023   45.7334    6.4157 O   0  0  0  0  0  0  0  0  0  0  0  0
   15.0089   38.7973   10.8993 O   0  0  0  0  0  0  0  0  0  0  0  0
   13.4413   43.2001    5.6487 N   0  0  0  0  0  0  0  0  0  0  0  0
   14.9732   41.0158    7.9927 N   0  0  0  0  0  0  0  0  0  0  0  0
   15.6891   42.1074    8.2152 N   0  0  0  0  0  0  0  0  0  0  0  0
  1  2  1  0
  2  3  1  0
  2 13  1  0
  5 18  1  0
  6 18  1  0
  7  6  1  6
  7  8  1  0
  7 16  1  0
  8  9  1  0
  9 10  1  0
 10 11  1  0
 11 16  1  0
 12  4  1  0
 13 17  1  0
 17  4  1  0
 18 19  1  0
  4  5  2  0
 12 19  2  0
 13 14  2  0
 13 15  2  0
M  END
>  <rmsd>  (619) 
0.230877295

$$$$
MolPort-006-495-211 ChemDiv-V014-3900F MCULE-7172726103 PubChem-8094207
     RDKit          3D

 23 24  0  0  0  0  0  0  0  0999 V2000
   14.2618   43.0841    1.8784 C   0  0  0  0  0  0  0  0  0  0  0  0
   12.9270   43.5628    2.4218 C   0  0  0  0  0  0  0  0  0  0  0  0
   12.1211   42.3974    2.9657 C   0  0  0  0  0  0  0  0  0  0  0  0
   13.0944   44.6803    3.4544 C   0  0  0  0  0  0  0  0  0  0  0  0
   13.9472   44.2975    4.6245 C   0  0  0  0  0  0  0  0  0  0  0  0
   14.1916   42.8184    6.6961 C   0  0  0  0  0  0  0  0  0  0  0  0
   15.6638   42.2132    8.4855 C   0  0  0  0  0  0  0  0  0  0  0  0
   17.7994   40.6827    8.7263 C   0  0  0  0  0  0  0  0  0  0  0  0
   17.0080   39.3813    8.7189 C   0  0  0  0  0  0  0  0  0  0  0  0
   17.1657   38.6185   10.0290 C   0  0  0  0  0  0  0  0  0  0  0  0
   15.0019   39.2184   11.1026 C   0  0  0  0  0  0  0  0  0  0  0  0
   14.3475   39.9375   12.1084 C   0  0  0  0  0  0  0  0  0  0  0  0
   12.9506   39.9624   12.1638 C   0  0  0  0  0  0  0  0  0  0  0  0
   12.2002   39.2653   11.2129 C   0  0  0  0  0  0  0  0  0  0  0  0
   12.8461   38.5413   10.2071 C   0  0  0  0  0  0  0  0  0  0  0  0
   14.2426   38.5163   10.1517 C   0  0  0  0  0  0  0  0  0  0  0  0
   15.0549   44.8732    4.7872 O   0  0  0  0  0  0  0  0  0  0  0  0
   16.4013   39.2212   11.0703 O   0  0  0  0  0  0  0  0  0  0  0  0
   13.4816   43.3111    5.5537 N   0  0  0  0  0  0  0  0  0  0  0  0
   13.6636   41.8977    7.5309 N   0  0  0  0  0  0  0  0  0  0  0  0
   14.4811   41.5629    8.5273 N   0  0  0  0  0  0  0  0  0  0  0  0
   16.9633   41.9837    9.6933 S   0  0  0  0  0  0  0  0  0  0  0  0
   15.7478   43.2673    7.1766 S   0  0  0  0  0  0  0  0  0  0  0  0
  1  2  1  0
  2  3  1  0
  2  4  1  0
  4  5  1  0
  5 19  1  0
  6 23  1  0
  7 22  1  0
  7 23  1  0
  8 22  1  0
  8  9  1  0
  9 10  1  0
 10 18  1  0
 11 18  1  0
 12 13  2  0
 14 15  2  0
 16 11  2  0
 19  6  1  0
 20 21  1  0
  5 17  2  0
  6 20  2  0
  7 21  2  0
 11 12  1  0
 13 14  1  0
 15 16  1  0
M  END
>  <rmsd>  (620) 
0.230861947

$$$$
MolPort-003-112-234 8959257 CSSS03437105859 MCULE-9045010206 PubChem-40887153 RCZVKESWLZZSND-UHFFFAOYSA-N ZINC000008959257 ZINC08959257
     RDKit          3D

 32 34  0  0  0  0  0  0  0  0999 V2000
    9.6398   44.2407    5.2598 C   0  0  0  0  0  0  0  0  0  0  0  0
   11.5644   44.8057    3.7999 C   0  0  0  0  0  0  0  0  0  0  0  0
   10.7069   45.2631    2.7874 C   0  0  0  0  0  0  0  0  0  0  0  0
   11.2176   45.7740    1.5981 C   0  0  0  0  0  0  0  0  0  0  0  0
   12.5943   45.8338    1.4045 C   0  0  0  0  0  0  0  0  0  0  0  0
   13.4789   45.3812    2.3954 C   0  0  0  0  0  0  0  0  0  0  0  0
   15.4430   45.9355    0.9851 C   0  0  0  0  0  0  0  0  0  0  0  0
   12.9670   44.8587    3.6086 C   0  0  0  0  0  0  0  0  0  0  0  0
   13.8925   44.3746    4.6661 C   0  0  0  0  0  0  0  0  0  0  0  0
   14.2492   42.7422    6.6167 C   0  0  0  0  0  0  0  0  0  0  0  0
   15.5486   43.1689    6.9143 C   0  0  0  0  0  0  0  0  0  0  0  0
   16.2831   42.5929    7.9565 C   0  0  0  0  0  0  0  0  0  0  0  0
   15.6870   41.5775    8.7498 C   0  0  0  0  0  0  0  0  0  0  0  0
   14.3918   41.1442    8.4255 C   0  0  0  0  0  0  0  0  0  0  0  0
   13.6816   41.7171    7.3711 C   0  0  0  0  0  0  0  0  0  0  0  0
   16.1955   39.5725   10.1748 C   0  0  0  0  0  0  0  0  0  0  0  0
   15.3401   39.3162   11.4136 C   0  0  0  0  0  0  0  0  0  0  0  0
   13.8662   39.5662   11.1449 C   0  0  0  0  0  0  0  0  0  0  0  0
   13.1329   39.6971   12.4625 C   0  0  0  0  0  0  0  0  0  0  0  0
   13.2755   38.4110   10.3592 C   0  0  0  0  0  0  0  0  0  0  0  0
   17.0588   41.8262   10.8325 C   0  0  0  0  0  0  0  0  0  0  0  0
   18.2812   42.5961   10.4221 C   0  0  0  0  0  0  0  0  0  0  0  0
   18.1042   44.0729   10.7400 C   0  0  0  0  0  0  0  0  0  0  0  0
   19.4765   42.0781   11.1994 C   0  0  0  0  0  0  0  0  0  0  0  0
   18.5763   42.4114    8.9407 C   0  0  0  0  0  0  0  0  0  0  0  0
   11.0356   44.3178    5.0020 O   0  0  0  0  0  0  0  0  0  0  0  0
   14.8626   45.4289    2.1797 O   0  0  0  0  0  0  0  0  0  0  0  0
   15.0379   44.8891    4.7803 O   0  0  0  0  0  0  0  0  0  0  0  0
   16.6818   41.8661   12.0361 O   0  0  0  0  0  0  0  0  0  0  0  0
   17.5969   43.0445    8.1264 O   0  0  0  0  0  0  0  0  0  0  0  0
   13.4848   43.3180    5.5489 N   0  0  0  0  0  0  0  0  0  0  0  0
   16.3432   41.0029    9.8967 N   0  0  0  0  0  0  0  0  0  0  0  0
  1 26  1  0
  2 26  1  0
  3  4  2  0
  5  6  2  0
  6 27  1  0
  7 27  1  0
  8  9  1  0
  8  2  2  0
  9 31  1  0
 11 12  2  0
 12 30  1  0
 13 14  2  0
 13 32  1  0
 15 10  2  0
 16 32  1  0
 16 17  1  0
 17 18  1  0
 18 19  1  0
 18 20  1  0
 22 21  1  0
 22 23  1  0
 22 24  1  0
 22 25  1  0
 25 30  1  0
 31 10  1  0
 32 21  1  0
  2  3  1  0
  4  5  1  0
  6  8  1  0
  9 28  2  0
 10 11  1  0
 12 13  1  0
 14 15  1  0
 21 29  2  0
M  END
>  <rmsd>  (621) 
0.230794013

$$$$
Molport-051-825-208 MCULE-6404919247 MCULE-9761543365
     RDKit          3D

 29 31  0  0  0  0  0  0  0  0999 V2000
   13.4151   39.3181   11.2954 C   0  0  0  0  0  0  0  0  0  0  0  0
   11.8053   40.4628   10.0637 C   0  0  0  0  0  0  0  0  0  0  0  0
   11.4016   41.9216    9.9692 C   0  0  0  0  0  0  0  0  0  0  0  0
   13.8497   39.8791    9.0781 C   0  0  0  0  0  0  0  0  0  0  0  0
   14.4488   41.0135    8.3189 C   0  0  0  0  0  0  0  0  0  0  0  0
   15.7229   41.4842    8.6508 C   0  0  0  0  0  0  0  0  0  0  0  0
   16.2724   42.5626    7.9530 C   0  0  0  0  0  0  0  0  0  0  0  0
   15.5463   43.1731    6.9264 C   0  0  0  0  0  0  0  0  0  0  0  0
   14.2652   42.7095    6.5904 C   0  0  0  0  0  0  0  0  0  0  0  0
   13.8772   44.4023    4.6990 C   0  0  0  0  0  0  0  0  0  0  0  0
   12.9264   44.9372    3.6883 C   0  0  0  0  0  0  0  0  0  0  0  0
   11.5328   44.9708    3.9185 C   0  0  0  0  0  0  0  0  0  0  0  0
   10.9159   44.5313    5.2040 C   0  0  0  0  0  0  0  0  0  0  0  0
   10.6846   45.4782    2.9378 C   0  0  0  0  0  0  0  0  0  0  0  0
   11.2276   45.9436    1.7432 C   0  0  0  0  0  0  0  0  0  0  0  0
   13.3944   45.4337    2.4500 C   0  0  0  0  0  0  0  0  0  0  0  0
   10.3231   46.4836    0.6875 C   0  0  2  0  0  0  0  0  0  0  0  0
   10.3899   45.6074   -0.5656 C   0  0  0  0  0  0  0  0  0  0  0  0
    9.6722   46.2738   -1.7397 C   0  0  0  0  0  0  0  0  0  0  0  0
   10.0337   47.7604   -1.8844 C   0  0  0  0  0  0  0  0  0  0  0  0
   10.6535   47.9576    0.3974 C   0  0  0  0  0  0  0  0  0  0  0  0
   13.7221   41.6302    7.2950 C   0  0  0  0  0  0  0  0  0  0  0  0
   13.2357   40.3639   10.3051 N   0  0  0  0  0  0  0  0  0  0  0  0
   13.4855   43.3150    5.5505 N   0  0  0  0  0  0  0  0  0  0  0  0
   11.1137   48.1506   -0.9778 N   0  0  0  0  0  0  0  0  0  0  0  0
   10.0312   42.0102    9.7307 O   0  0  0  0  0  0  0  0  0  0  0  0
   15.0358   44.8925    4.7866 O   0  0  0  0  0  0  0  0  0  0  0  0
   12.5418   45.9067    1.5458 O   0  0  0  0  0  0  0  0  0  0  0  0
   14.6240   45.4225    2.1750 O   0  0  0  0  0  0  0  0  0  0  0  0
  1 23  1  0
  2 23  1  0
  2  3  1  0
  3 26  1  0
  4 23  1  0
  4  5  1  0
  6  7  2  0
  8  9  2  0
  9 24  1  0
 10 11  1  0
 12 14  1  0
 13 12  1  0
 15 28  1  0
 16 28  1  0
 16 11  1  0
 17 15  1  1
 17 18  1  0
 18 19  1  0
 19 20  1  0
 20 25  1  0
 21 25  1  0
 21 17  1  0
 22  5  2  0
 24 10  1  0
  5  6  1  0
  7  8  1  0
  9 22  1  0
 10 27  2  0
 11 12  2  0
 14 15  2  0
 16 29  2  0
M  END
>  <rmsd>  (622) 
0.230769902

$$$$
MolPort-007-710-789 ChemDiv-D481-2657 MCULE-7503160676 PubChem-46269942 ZINC000033019581 ZINC33019581
     RDKit          3D

 32 35  0  0  0  0  0  0  0  0999 V2000
   17.1883   45.6979   12.6868 C   0  0  0  0  0  0  0  0  0  0  0  0
   16.7553   44.9686   13.9468 C   0  0  0  0  0  0  0  0  0  0  0  0
   17.9634   44.4460   14.7326 C   0  0  0  0  0  0  0  0  0  0  0  0
   18.6199   43.2549   14.0317 C   0  0  0  0  0  0  0  0  0  0  0  0
   16.4548   42.6779   12.9274 C   0  0  0  0  0  0  0  0  0  0  0  0
   15.7623   43.8462   13.6249 C   0  0  0  0  0  0  0  0  0  0  0  0
   17.7090   40.9179   14.2344 C   0  0  0  0  0  0  0  0  0  0  0  0
   16.6414   39.9075   13.9595 C   0  0  0  0  0  0  0  0  0  0  0  0
   17.1809   39.6966   11.3839 C   0  0  0  0  0  0  0  0  0  0  0  0
   16.5164   40.8938    9.7697 C   0  0  0  0  0  0  0  0  0  0  0  0
   14.7197   39.6221   11.0019 C   0  0  0  0  0  0  0  0  0  0  0  0
   13.7386   40.6009   11.2180 C   0  0  0  0  0  0  0  0  0  0  0  0
   12.4307   40.2284   11.5429 C   0  0  0  0  0  0  0  0  0  0  0  0
   12.0984   38.8760   11.6609 C   0  0  0  0  0  0  0  0  0  0  0  0
   13.0740   37.8957   11.4571 C   0  0  0  0  0  0  0  0  0  0  0  0
   14.3819   38.2676   11.1310 C   0  0  0  0  0  0  0  0  0  0  0  0
   15.7157   41.5271    8.6984 C   0  0  0  0  0  0  0  0  0  0  0  0
   16.1921   42.6895    8.0756 C   0  0  0  0  0  0  0  0  0  0  0  0
   15.4682   43.2855    7.0389 C   0  0  0  0  0  0  0  0  0  0  0  0
   14.2597   42.7214    6.6028 C   0  0  0  0  0  0  0  0  0  0  0  0
   13.8801   44.4065    4.7132 C   0  0  0  0  0  0  0  0  0  0  0  0
   12.9124   44.9537    3.7277 C   0  0  0  0  0  0  0  0  0  0  0  0
   13.7881   41.5557    7.2164 C   0  0  0  0  0  0  0  0  0  0  0  0
   14.5135   40.9581    8.2514 C   0  0  0  0  0  0  0  0  0  0  0  0
   17.6045   42.2541   13.7204 N   0  0  0  0  0  0  0  0  0  0  0  0
   18.2571   40.3568   10.9185 N   0  0  0  0  0  0  0  0  0  0  0  0
   17.8420   41.1037    9.9068 N   0  0  0  0  0  0  0  0  0  0  0  0
   16.0677   40.0047   10.6879 N   0  0  0  0  0  0  0  0  0  0  0  0
   13.4846   43.3137    5.5520 N   0  0  0  0  0  0  0  0  0  0  0  0
   18.7072   40.5822   14.9270 O   0  0  0  0  0  0  0  0  0  0  0  0
   15.0389   44.8956    4.7783 O   0  0  0  0  0  0  0  0  0  0  0  0
   17.2362   38.6181   12.8181 S   0  0  0  0  0  0  0  0  0  0  0  0
  1  2  1  0
  2  3  1  0
  3  4  1  0
  4 25  1  0
  5 25  1  0
  5  6  1  0
  6  2  1  0
  8  7  1  0
  8 32  1  0
  9 32  1  0
 10 28  1  0
 10 17  1  0
 12 13  2  0
 14 15  2  0
 16 11  2  0
 18 19  2  0
 20 29  1  0
 20 23  2  0
 22 21  1  0
 24 17  2  0
 25  7  1  0
 26 27  1  0
 28 11  1  0
 28  9  1  0
 29 21  1  0
  7 30  2  0
  9 26  2  0
 10 27  2  0
 11 12  1  0
 13 14  1  0
 15 16  1  0
 17 18  1  0
 19 20  1  0
 21 31  2  0
 23 24  1  0
M  END
>  <rmsd>  (623) 
0.23071529

$$$$
Molport-046-870-217 MCULE-6959025151 PubChem-165781869
     RDKit          3D

 21 21  0  0  0  0  0  0  0  0999 V2000
   13.4223   39.2364   11.3599 C   0  0  0  0  0  0  0  0  0  0  0  0
   13.7268   40.0031    9.1804 C   0  0  0  0  0  0  0  0  0  0  0  0
   14.3919   41.0957    8.4035 C   0  0  0  0  0  0  0  0  0  0  0  0
   15.7034   41.5211    8.6893 C   0  0  0  0  0  0  0  0  0  0  0  0
   16.2776   42.5480    7.9353 C   0  0  0  0  0  0  0  0  0  0  0  0
   15.5579   43.1488    6.9001 C   0  0  0  0  0  0  0  0  0  0  0  0
   14.2544   42.7260    6.6044 C   0  0  0  0  0  0  0  0  0  0  0  0
   13.8952   44.3745    4.6731 C   0  0  0  0  0  0  0  0  0  0  0  0
   13.2757   45.8675    2.7563 C   0  0  0  0  0  0  0  0  0  0  0  0
   14.4613   45.5040    1.8792 C   0  0  0  0  0  0  0  0  0  0  0  0
   12.0636   46.0550    1.8687 C   0  0  0  0  0  0  0  0  0  0  0  0
   13.5503   47.1764    3.4765 C   0  0  0  0  0  0  0  0  0  0  0  0
   13.6818   41.6983    7.3598 C   0  0  0  0  0  0  0  0  0  0  0  0
   12.1166   40.9963   10.5641 C   0  0  0  0  0  0  0  0  0  0  0  0
   12.1237   42.3412   11.2691 C   0  0  0  0  0  0  0  0  0  0  0  0
   13.4596   40.4367   10.5439 N   0  0  0  0  0  0  0  0  0  0  0  0
   13.4848   43.3161    5.5479 N   0  0  0  0  0  0  0  0  0  0  0  0
   16.6586   40.7856    9.9678 Cl  0  0  0  0  0  0  0  0  0  0  0  0
   12.9997   44.8229    3.6927 O   0  0  0  0  0  0  0  0  0  0  0  0
   15.0395   44.8942    4.7814 O   0  0  0  0  0  0  0  0  0  0  0  0
   12.8286   43.2736   10.5075 O   0  0  0  0  0  0  0  0  0  0  0  0
  1 16  1  0
  2 16  1  0
  2  3  1  0
  4 18  1  0
  4  5  2  0
  6  7  2  0
  7 17  1  0
  8 19  1  0
  9 19  1  0
  9 10  1  0
  9 11  1  0
  9 12  1  0
 13  3  2  0
 14 16  1  0
 14 15  1  0
 15 21  1  0
 17  8  1  0
  3  4  1  0
  5  6  1  0
  7 13  1  0
  8 20  2  0
M  END
>  <rmsd>  (624) 
0.230710924

$$$$
Molport-046-420-638 CSSS14880538712 MCULE-1498866221
     RDKit          3D

 31 33  0  0  0  0  0  0  0  0999 V2000
   14.3898   39.2558   10.1281 C   0  0  2  0  0  0  0  0  0  0  0  0
   13.4909   39.2897   11.3535 C   0  0  0  0  0  0  0  0  0  0  0  0
   14.5368   37.8313    9.6665 C   0  0  0  0  0  0  0  0  0  0  0  0
   15.1752   35.4986   10.1864 C   0  0  0  0  0  0  0  0  0  0  0  0
   16.4930   35.3715    9.4452 C   0  0  0  0  0  0  0  0  0  0  0  0
   14.3453   41.0612    8.3751 C   0  0  0  0  0  0  0  0  0  0  0  0
   13.6443   41.6747    7.3328 C   0  0  0  0  0  0  0  0  0  0  0  0
   14.2291   42.7121    6.5979 C   0  0  0  0  0  0  0  0  0  0  0  0
   15.5284   43.1345    6.9198 C   0  0  0  0  0  0  0  0  0  0  0  0
   16.2310   42.5258    7.9635 C   0  0  0  0  0  0  0  0  0  0  0  0
   15.6387   41.4897    8.6893 C   0  0  0  0  0  0  0  0  0  0  0  0
   15.7529   39.8043   10.5024 C   0  0  0  0  0  0  0  0  0  0  0  0
   13.9008   44.3827    4.6810 C   0  0  0  0  0  0  0  0  0  0  0  0
   12.9545   44.9179    3.6609 C   0  0  0  0  0  0  0  0  0  0  0  0
   12.1596   46.0932    4.2158 C   0  0  0  0  0  0  0  0  0  0  0  0
   11.1558   45.6382    5.2639 C   0  0  0  0  0  0  0  0  0  0  0  0
    9.1434   44.2044    5.4000 C   0  0  0  0  0  0  0  0  0  0  0  0
    9.0445   44.3706    6.7917 C   0  0  0  0  0  0  0  0  0  0  0  0
    8.0159   43.7494    7.5055 C   0  0  0  0  0  0  0  0  0  0  0  0
    7.0798   42.9582    6.8351 C   0  0  0  0  0  0  0  0  0  0  0  0
    7.1722   42.7883    5.4511 C   0  0  0  0  0  0  0  0  0  0  0  0
    8.2003   43.4087    4.7344 C   0  0  0  0  0  0  0  0  0  0  0  0
   14.9581   36.8503   10.5715 O   0  0  0  0  0  0  0  0  0  0  0  0
   14.2957   37.5265    8.4654 O   0  0  0  0  0  0  0  0  0  0  0  0
   13.7450   40.0258    9.0993 O   0  0  0  0  0  0  0  0  0  0  0  0
   16.3935   39.3034   11.4658 O   0  0  0  0  0  0  0  0  0  0  0  0
   10.1651   44.8125    4.6644 O   0  0  0  0  0  0  0  0  0  0  0  0
   15.0466   44.8942    4.7918 O   0  0  0  0  0  0  0  0  0  0  0  0
   16.3405   40.8743    9.7625 N   0  0  0  0  0  0  0  0  0  0  0  0
   13.4755   43.3151    5.5379 N   0  0  0  0  0  0  0  0  0  0  0  0
    8.2790   43.2347    3.3923 F   0  0  0  0  0  0  0  0  0  0  0  0
  1  2  1  1
  1  3  1  0
  1 25  1  0
  1 12  1  0
  3 23  1  0
  4 23  1  0
  4  5  1  0
  6 25  1  0
  7  8  2  0
  8 30  1  0
  9 10  2  0
 11 29  1  0
 11  6  2  0
 14 13  1  0
 14 15  1  0
 15 16  1  0
 16 27  1  0
 17 27  1  0
 18 19  2  0
 20 21  2  0
 22 31  1  0
 22 17  2  0
 29 12  1  0
 30 13  1  0
  3 24  2  0
  6  7  1  0
  8  9  1  0
 10 11  1  0
 12 26  2  0
 13 28  2  0
 17 18  1  0
 19 20  1  0
 21 22  1  0
M  END
>  <rmsd>  (625) 
0.230697393

$$$$
MolPort-001-939-488 2057877 CSSS00121710954 LN01120534 MCULE-6418752900 PubChem-1722201 ZINC000002057877 ZINC02057877
     RDKit          3D

 22 23  0  0  0  0  0  0  0  0999 V2000
   10.6082   38.9281   10.6502 C   0  0  0  0  0  0  0  0  0  0  0  0
   12.1112   39.0094   10.4912 C   0  0  0  0  0  0  0  0  0  0  0  0
   12.7806   38.5907   11.7864 C   0  0  0  0  0  0  0  0  0  0  0  0
   14.2933   38.6825   11.6586 C   0  0  0  0  0  0  0  0  0  0  0  0
   14.7952   40.0860   11.9804 C   0  0  0  0  0  0  0  0  0  0  0  0
   14.5418   41.0532   10.8343 C   0  0  0  0  0  0  0  0  0  0  0  0
   15.4740   40.7578    9.6721 C   0  0  0  0  0  0  0  0  0  0  0  0
   15.1359   41.6265    8.5114 C   0  0  0  0  0  0  0  0  0  0  0  0
   14.2366   42.7874    6.6243 C   0  0  0  0  0  0  0  0  0  0  0  0
   13.9130   44.3562    4.6509 C   0  0  0  0  0  0  0  0  0  0  0  0
   13.0290   44.8159    3.5654 C   0  0  0  0  0  0  0  0  0  0  0  0
   13.4462   45.8309    2.6911 C   0  0  0  0  0  0  0  0  0  0  0  0
   12.6070   46.2663    1.6615 C   0  0  0  0  0  0  0  0  0  0  0  0
   13.0578   47.3420    0.7406 C   0  0  0  0  0  0  0  0  0  0  0  0
   11.3442   45.6905    1.4983 C   0  0  0  0  0  0  0  0  0  0  0  0
   10.9206   44.6791    2.3645 C   0  0  0  0  0  0  0  0  0  0  0  0
   11.7600   44.2435    3.3942 C   0  0  0  0  0  0  0  0  0  0  0  0
   15.9812   42.5503    8.0046 N   0  0  0  0  0  0  0  0  0  0  0  0
   15.4805   43.1993    6.9547 N   0  0  0  0  0  0  0  0  0  0  0  0
   13.4733   43.3181    5.5368 N   0  0  0  0  0  0  0  0  0  0  0  0
   15.0522   44.8781    4.7957 O   0  0  0  0  0  0  0  0  0  0  0  0
   13.6899   41.5674    7.6448 S   0  0  0  0  0  0  0  0  0  0  0  0
  1  2  1  0
  2  3  1  0
  3  4  1  0
  4  5  1  0
  5  6  1  0
  6  7  1  0
  7  8  1  0
  8 22  1  0
  9 20  1  0
  9 22  1  0
 10 11  1  0
 12 13  2  0
 14 13  1  0
 15 16  2  0
 17 11  2  0
 18 19  1  0
 20 10  1  0
  8 18  2  0
  9 19  2  0
 10 21  2  0
 11 12  1  0
 13 15  1  0
 16 17  1  0
M  END
>  <rmsd>  (626) 
0.230602026

$$$$
MolPort-002-774-842 36613896 CSSS00133006967 MCULE-1758707570 PubChem-19590973 ZINC000036613896 ZINC36613896
     RDKit          3D

 31 35  0  0  0  0  0  0  0  0999 V2000
   10.5142   47.9330    7.3236 F   0  0  0  0  0  0  0  0  0  0  0  0
    9.6190   49.0173    5.5541 F   0  0  0  0  0  0  0  0  0  0  0  0
   12.7246   39.9128   11.8998 F   0  0  0  0  0  0  0  0  0  0  0  0
   14.8208   39.1693   11.5435 F   0  0  0  0  0  0  0  0  0  0  0  0
   13.0764   38.0908   10.6189 F   0  0  0  0  0  0  0  0  0  0  0  0
   10.7101   48.2985    6.0048 C   0  0  0  0  0  0  0  0  0  0  0  0
   10.9011   47.0849    5.1601 C   0  0  0  0  0  0  0  0  0  0  0  0
   13.0418   44.7605    3.5314 C   0  0  0  0  0  0  0  0  0  0  0  0
   13.9288   44.3219    4.6461 C   0  0  0  0  0  0  0  0  0  0  0  0
   14.2157   42.8363    6.6823 C   0  0  0  0  0  0  0  0  0  0  0  0
   14.8151   41.8034    8.4768 C   0  0  0  0  0  0  0  0  0  0  0  0
   13.6602   40.2125    9.7628 C   0  0  0  0  0  0  0  0  0  0  0  0
   12.5680   40.2843    8.8634 C   0  0  0  0  0  0  0  0  0  0  0  0
   12.6287   41.1236    7.7311 C   0  0  0  0  0  0  0  0  0  0  0  0
   11.4681   41.2465    6.7861 C   0  0  0  0  0  0  0  0  0  0  0  0
   11.8082   40.5751    5.4661 C   0  0  0  0  0  0  0  0  0  0  0  0
   10.8871   39.8834    6.4428 C   0  0  0  0  0  0  0  0  0  0  0  0
   13.7887   41.8889    7.5843 C   0  0  0  0  0  0  0  0  0  0  0  0
   13.5710   39.3335   10.9727 C   0  0  0  0  0  0  0  0  0  0  0  0
   10.7011   45.0924    4.3388 C   0  0  0  0  0  0  0  0  0  0  0  0
   10.0261   46.0240    5.0247 C   0  0  0  0  0  0  0  0  0  0  0  0
    9.0131   45.4550    5.9319 C   0  0  0  0  0  0  0  0  0  0  0  0
    9.0736   43.9489    5.5965 C   0  0  0  0  0  0  0  0  0  0  0  0
   10.2638   43.7166    4.6411 C   0  0  0  0  0  0  0  0  0  0  0  0
   12.0635   46.7744    4.5418 N   0  0  0  0  0  0  0  0  0  0  0  0
   11.9333   45.5474    4.0515 N   0  0  0  0  0  0  0  0  0  0  0  0
   13.4766   43.3113    5.5526 N   0  0  0  0  0  0  0  0  0  0  0  0
   15.4446   43.2768    7.0442 N   0  0  0  0  0  0  0  0  0  0  0  0
   15.8157   42.6402    8.1522 N   0  0  0  0  0  0  0  0  0  0  0  0
   14.7703   40.9880    9.5583 N   0  0  0  0  0  0  0  0  0  0  0  0
   15.0555   44.8660    4.7900 O   0  0  0  0  0  0  0  0  0  0  0  0
  6  1  1  0
  6  2  1  0
  6  7  1  0
  8 26  1  0
  8  9  1  0
  9 27  1  0
 12 30  2  0
 13 14  2  0
 15 14  1  0
 15 16  1  0
 16 17  1  0
 17 15  1  0
 18 10  1  0
 18 11  2  0
 19 12  1  0
 19  3  1  0
 19  4  1  0
 19  5  1  0
 21  7  1  0
 22 21  1  0
 22 23  1  0
 23 24  1  0
 24 20  1  0
 26 25  1  0
 26 20  1  0
 27 10  1  0
 29 28  1  0
 29 11  1  0
  7 25  2  0
  9 31  2  0
 10 28  2  0
 11 30  1  0
 12 13  1  0
 14 18  1  0
 20 21  2  0
M  END
>  <rmsd>  (627) 
0.230576321

$$$$
MolPort-003-112-246 8959277 CSSS03437096107 DOMGJBLIFOPKKD-UHFFFAOYSA-N MCULE-7504215690 PubChem-40887173 ZINC000008959277
     RDKit          3D

 27 29  0  0  0  0  0  0  0  0999 V2000
   16.3500   40.9740    9.8813 N   0  0  0  0  0  0  0  0  0  0  0  0
   13.4835   43.3159    5.5510 N   0  0  0  0  0  0  0  0  0  0  0  0
   16.1853   39.5449   10.1574 C   0  0  0  0  0  0  0  0  0  0  0  0
   15.3374   39.2972   11.4031 C   0  0  0  0  0  0  0  0  0  0  0  0
   13.8645   39.5671   11.1479 C   0  0  0  0  0  0  0  0  0  0  0  0
   13.2518   38.4211   10.3660 C   0  0  0  0  0  0  0  0  0  0  0  0
   13.1449   39.7057   12.4724 C   0  0  0  0  0  0  0  0  0  0  0  0
   15.6903   41.5580    8.7400 C   0  0  0  0  0  0  0  0  0  0  0  0
   14.3892   41.1363    8.4240 C   0  0  0  0  0  0  0  0  0  0  0  0
   13.6771   41.7149    7.3741 C   0  0  0  0  0  0  0  0  0  0  0  0
   14.2487   42.7344    6.6153 C   0  0  0  0  0  0  0  0  0  0  0  0
   15.5538   43.1498    6.9040 C   0  0  0  0  0  0  0  0  0  0  0  0
   16.2899   42.5678    7.9418 C   0  0  0  0  0  0  0  0  0  0  0  0
   18.5869   42.3592    8.9039 C   0  0  0  0  0  0  0  0  0  0  0  0
   18.3115   42.5478   10.3881 C   0  0  0  0  0  0  0  0  0  0  0  0
   19.5141   42.0273   11.1524 C   0  0  0  0  0  0  0  0  0  0  0  0
   18.1422   44.0256   10.7065 C   0  0  0  0  0  0  0  0  0  0  0  0
   17.0906   41.7821   10.8120 C   0  0  0  0  0  0  0  0  0  0  0  0
   13.8992   44.3685    4.6689 C   0  0  0  0  0  0  0  0  0  0  0  0
   12.9832   44.8420    3.6254 C   0  0  0  0  0  0  0  0  0  0  0  0
   11.7050   44.3594    3.3912 C   0  0  0  0  0  0  0  0  0  0  0  0
   11.0672   45.0080    2.3237 C   0  0  0  0  0  0  0  0  0  0  0  0
   11.8311   45.9996    1.7120 C   0  0  0  0  0  0  0  0  0  0  0  0
   17.6069   43.0107    8.1058 O   0  0  0  0  0  0  0  0  0  0  0  0
   16.7356   41.8136   12.0225 O   0  0  0  0  0  0  0  0  0  0  0  0
   15.0402   44.8924    4.7790 O   0  0  0  0  0  0  0  0  0  0  0  0
   13.3076   46.0575    2.5164 S   0  0  0  0  0  0  0  0  0  0  0  0
  1  8  1  0
  2 19  1  0
  3  1  1  0
  3  4  1  0
  4  5  1  0
  5  6  1  0
  5  7  1  0
  9 10  2  0
 11 12  2  0
 11  2  1  0
 13 24  1  0
 13  8  2  0
 14 24  1  0
 14 15  1  0
 15 16  1  0
 15 17  1  0
 15 18  1  0
 18  1  1  0
 19 20  1  0
 20 27  1  0
 21 22  1  0
 23 27  1  0
  8  9  1  0
 10 11  1  0
 12 13  1  0
 18 25  2  0
 19 26  2  0
 20 21  2  0
 22 23  2  0
M  END
>  <rmsd>  (628) 
0.230387866

$$$$
MolPort-001-807-228 CSSS03437702633 MCULE-7238973406 PubChem-2811213 ZINC000001031142 ZINC01031142
     RDKit          3D

 26 29  0  0  0  0  0  0  0  0999 V2000
   17.7604   41.2903   10.0570 C   0  0  0  0  0  0  0  0  0  0  0  0
   15.6969   41.5188    8.7016 C   0  0  0  0  0  0  0  0  0  0  0  0
   16.2668   42.5527    7.9406 C   0  0  0  0  0  0  0  0  0  0  0  0
   15.5516   43.1533    6.9049 C   0  0  0  0  0  0  0  0  0  0  0  0
   14.2519   42.7299    6.6064 C   0  0  0  0  0  0  0  0  0  0  0  0
   13.8964   44.3743    4.6702 C   0  0  0  0  0  0  0  0  0  0  0  0
   13.2193   45.8652    2.7051 C   0  0  0  0  0  0  0  0  0  0  0  0
   13.9554   47.6359    1.2589 C   0  0  0  0  0  0  0  0  0  0  0  0
   14.6650   48.6812    0.4623 C   0  0  0  0  0  0  0  0  0  0  0  0
   14.9957   49.8671    1.3495 C   0  0  0  0  0  0  0  0  0  0  0  0
   13.8240   49.9430    0.3973 C   0  0  0  0  0  0  0  0  0  0  0  0
   13.6785   41.7047    7.3620 C   0  0  0  0  0  0  0  0  0  0  0  0
   14.3764   41.0960    8.4114 C   0  0  0  0  0  0  0  0  0  0  0  0
   14.1592   39.5110   10.3420 C   0  0  0  0  0  0  0  0  0  0  0  0
   13.4242   38.2065   10.5955 C   0  0  0  0  0  0  0  0  0  0  0  0
   12.5508   38.4290   11.8118 C   0  0  0  0  0  0  0  0  0  0  0  0
   13.1910   39.5716   12.5620 C   0  0  0  0  0  0  0  0  0  0  0  0
   13.8174   40.4396   11.4956 C   0  0  0  0  0  0  0  0  0  0  0  0
   16.4329   40.9074    9.7230 O   0  0  0  0  0  0  0  0  0  0  0  0
   15.0390   44.8936    4.7821 O   0  0  0  0  0  0  0  0  0  0  0  0
   13.7140   40.0783    9.1157 O   0  0  0  0  0  0  0  0  0  0  0  0
   13.4848   43.3176    5.5467 N   0  0  0  0  0  0  0  0  0  0  0  0
   12.9829   44.8284    3.6654 N   0  0  0  0  0  0  0  0  0  0  0  0
   12.2936   46.2261    1.7910 N   0  0  0  0  0  0  0  0  0  0  0  0
   12.7038   47.2037    0.9845 N   0  0  0  0  0  0  0  0  0  0  0  0
   14.6331   46.7733    2.5392 S   0  0  0  0  0  0  0  0  0  0  0  0
  1 19  1  0
  2 19  1  0
  3  4  2  0
  5 22  1  0
  5 12  2  0
  6 23  1  0
  7 26  1  0
  8 26  1  0
  9  8  1  0
  9 10  1  0
 10 11  1  0
 11  9  1  0
 13 21  1  0
 13  2  2  0
 14 21  1  0
 14 15  1  0
 15 16  1  0
 16 17  1  0
 17 18  1  0
 18 14  1  0
 22  6  1  0
 23  7  1  0
 24 25  1  0
  2  3  1  0
  4  5  1  0
  6 20  2  0
  7 24  2  0
  8 25  2  0
 12 13  1  0
M  END
>  <rmsd>  (629) 
0.230379447

$$$$
MolPort-039-210-489 CSSS03436966926 MCULE-6897107569 PubChem-119099798
     RDKit          3D

 27 29  0  0  0  0  0  0  0  0999 V2000
   14.6653   51.1660    2.5416 F   0  0  0  0  0  0  0  0  0  0  0  0
   12.9925   50.9875    1.0424 F   0  0  0  0  0  0  0  0  0  0  0  0
   12.5596   51.6929    3.1348 F   0  0  0  0  0  0  0  0  0  0  0  0
   13.3335   50.8330    2.3737 C   0  0  0  0  0  0  0  0  0  0  0  0
   13.1177   49.4051    2.7847 C   0  0  0  0  0  0  0  0  0  0  0  0
   13.8153   48.3809    2.1289 C   0  0  0  0  0  0  0  0  0  0  0  0
   13.6253   47.0469    2.5002 C   0  0  0  0  0  0  0  0  0  0  0  0
   12.7334   46.7264    3.5287 C   0  0  0  0  0  0  0  0  0  0  0  0
   12.5451   45.3057    3.9372 C   0  0  0  0  0  0  0  0  0  0  0  0
   14.2139   42.5366    6.6482 C   0  0  0  0  0  0  0  0  0  0  0  0
   14.0492   41.2279    7.0391 C   0  0  0  0  0  0  0  0  0  0  0  0
   15.1562   39.7689    8.7166 C   0  0  0  0  0  0  0  0  0  0  0  0
   14.5479   39.8646   10.1068 C   0  0  1  0  0  0  0  0  0  0  0  0
   13.0109   39.8712   10.0224 C   0  0  0  0  0  0  0  0  0  0  0  0
   12.3826   38.9609   11.0808 C   0  0  0  0  0  0  0  0  0  0  0  0
   13.1221   39.0565   12.4177 C   0  0  0  0  0  0  0  0  0  0  0  0
   14.6462   39.1108   12.2225 C   0  0  0  0  0  0  0  0  0  0  0  0
   15.2436   43.0792    7.3936 C   0  0  0  0  0  0  0  0  0  0  0  0
   12.0375   47.7434    4.1898 C   0  0  0  0  0  0  0  0  0  0  0  0
   12.2276   49.0773    3.8184 C   0  0  0  0  0  0  0  0  0  0  0  0
   13.7060   44.8548    5.2136 S   0  0  0  0  0  0  0  0  0  0  0  0
   13.4948   45.7316    6.4160 O   0  0  0  0  0  0  0  0  0  0  0  0
   15.1079   45.0228    4.6985 O   0  0  0  0  0  0  0  0  0  0  0  0
   15.0091   38.7979   10.8993 O   0  0  0  0  0  0  0  0  0  0  0  0
   13.4413   43.2004    5.6478 N   0  0  0  0  0  0  0  0  0  0  0  0
   14.9728   41.0168    7.9931 N   0  0  0  0  0  0  0  0  0  0  0  0
   15.6875   42.1090    8.2165 N   0  0  0  0  0  0  0  0  0  0  0  0
  4  1  1  0
  4  2  1  0
  4  3  1  0
  4  5  1  0
  6  7  2  0
  8 19  2  0
  9  8  1  0
  9 21  1  0
 11 26  1  0
 12 26  1  0
 13 12  1  6
 13 14  1  0
 13 24  1  0
 14 15  1  0
 15 16  1  0
 16 17  1  0
 17 24  1  0
 18 10  1  0
 20  5  2  0
 21 25  1  0
 25 10  1  0
 26 27  1  0
  5  6  1  0
  7  8  1  0
 10 11  2  0
 18 27  2  0
 19 20  1  0
 21 22  2  0
 21 23  2  0
M  END
>  <rmsd>  (630) 
0.230309665

$$$$
MolPort-001-933-564 2070240 CSSS00121702380 LN01138364 MCULE-8829448336 PubChem-1732463 ZINC000002070240 ZINC02070240
     RDKit          3D

 22 23  0  0  0  0  0  0  0  0999 V2000
   10.6094   38.9309   10.6479 C   0  0  0  0  0  0  0  0  0  0  0  0
   12.1126   39.0119   10.4892 C   0  0  0  0  0  0  0  0  0  0  0  0
   12.7817   38.5932   11.7844 C   0  0  0  0  0  0  0  0  0  0  0  0
   14.2944   38.6847   11.6567 C   0  0  0  0  0  0  0  0  0  0  0  0
   14.7965   40.0881   11.9785 C   0  0  0  0  0  0  0  0  0  0  0  0
   14.5434   41.0553   10.8324 C   0  0  0  0  0  0  0  0  0  0  0  0
   15.4754   40.7596    9.6702 C   0  0  0  0  0  0  0  0  0  0  0  0
   15.1375   41.6283    8.5095 C   0  0  0  0  0  0  0  0  0  0  0  0
   14.2382   42.7890    6.6222 C   0  0  0  0  0  0  0  0  0  0  0  0
   13.9117   44.3579    4.6465 C   0  0  0  0  0  0  0  0  0  0  0  0
   13.0106   44.8122    3.5559 C   0  0  0  0  0  0  0  0  0  0  0  0
   13.3526   45.8311    2.6284 C   0  0  0  0  0  0  0  0  0  0  0  0
   14.6591   46.5502    2.6582 C   0  0  0  0  0  0  0  0  0  0  0  0
   12.4434   46.1985    1.6304 C   0  0  0  0  0  0  0  0  0  0  0  0
   11.1998   45.5731    1.5359 C   0  0  0  0  0  0  0  0  0  0  0  0
   10.8547   44.5716    2.4418 C   0  0  0  0  0  0  0  0  0  0  0  0
   11.7534   44.1963    3.4417 C   0  0  0  0  0  0  0  0  0  0  0  0
   15.9828   42.5520    8.0024 N   0  0  0  0  0  0  0  0  0  0  0  0
   15.4821   43.2008    6.9526 N   0  0  0  0  0  0  0  0  0  0  0  0
   13.4747   43.3196    5.5346 N   0  0  0  0  0  0  0  0  0  0  0  0
   15.0517   44.8741    4.7980 O   0  0  0  0  0  0  0  0  0  0  0  0
   13.6914   41.5692    7.6428 S   0  0  0  0  0  0  0  0  0  0  0  0
  1  2  1  0
  2  3  1  0
  3  4  1  0
  4  5  1  0
  5  6  1  0
  6  7  1  0
  7  8  1  0
  8 22  1  0
  9 20  1  0
  9 22  1  0
 10 11  1  0
 12 14  2  0
 13 12  1  0
 15 16  2  0
 17 11  2  0
 18 19  1  0
 20 10  1  0
  8 18  2  0
  9 19  2  0
 10 21  2  0
 11 12  1  0
 14 15  1  0
 16 17  1  0
M  END
>  <rmsd>  (631) 
0.230285093

$$$$
MolPort-035-706-971 CSSS03437789226 MCULE-7193240938 PubChem-91938296
     RDKit          3D

 29 31  0  0  0  0  0  0  0  0999 V2000
   16.3763   35.9237    7.9329 C   0  0  0  0  0  0  0  0  0  0  0  0
   14.9159   36.2896    7.7412 C   0  0  0  0  0  0  0  0  0  0  0  0
   14.6117   37.8471    9.6419 C   0  0  0  0  0  0  0  0  0  0  0  0
   14.4188   39.2605   10.1203 C   0  0  1  0  0  0  0  0  0  0  0  0
   13.4991   39.2772   11.3330 C   0  0  0  0  0  0  0  0  0  0  0  0
   14.3589   41.0719    8.3750 C   0  0  0  0  0  0  0  0  0  0  0  0
   13.6601   41.6732    7.3241 C   0  0  0  0  0  0  0  0  0  0  0  0
   14.2295   42.7306    6.6057 C   0  0  0  0  0  0  0  0  0  0  0  0
   13.8893   44.3937    4.6785 C   0  0  0  0  0  0  0  0  0  0  0  0
   12.9884   44.9063    3.6176 C   0  0  0  0  0  0  0  0  0  0  0  0
   13.5710   45.6005    2.5447 C   0  0  0  0  0  0  0  0  0  0  0  0
   12.7905   46.1039    1.5024 C   0  0  0  0  0  0  0  0  0  0  0  0
   13.4111   48.5795    0.9663 C   0  0  0  0  0  0  0  0  0  0  0  0
   11.4089   45.9162    1.5154 C   0  0  0  0  0  0  0  0  0  0  0  0
   10.8091   45.2387    2.5769 C   0  0  0  0  0  0  0  0  0  0  0  0
   11.5802   44.7335    3.6295 C   0  0  0  0  0  0  0  0  0  0  0  0
   15.5107   43.1858    6.9539 C   0  0  0  0  0  0  0  0  0  0  0  0
   16.2112   42.5893    8.0059 C   0  0  0  0  0  0  0  0  0  0  0  0
   15.6347   41.5327    8.7145 C   0  0  0  0  0  0  0  0  0  0  0  0
   15.7635   39.8370   10.5167 C   0  0  0  0  0  0  0  0  0  0  0  0
   14.6571   37.5854    8.2682 O   0  0  0  0  0  0  0  0  0  0  0  0
   14.7816   36.9122   10.4739 O   0  0  0  0  0  0  0  0  0  0  0  0
   13.7740   40.0158    9.0820 O   0  0  0  0  0  0  0  0  0  0  0  0
   15.0446   44.8869    4.7938 O   0  0  0  0  0  0  0  0  0  0  0  0
   16.4039   39.3397   11.4818 O   0  0  0  0  0  0  0  0  0  0  0  0
   13.4777   43.3195    5.5361 N   0  0  0  0  0  0  0  0  0  0  0  0
   16.3347   40.9281    9.7950 N   0  0  0  0  0  0  0  0  0  0  0  0
   13.5640   46.9688    0.1426 S   0  0  0  0  0  0  0  0  0  0  0  0
   10.7065   43.9584    4.9441 Cl  0  0  0  0  0  0  0  0  0  0  0  0
  1  2  1  0
  2 21  1  0
  3 21  1  0
  4  3  1  0
  4  5  1  1
  4 23  1  0
  4 20  1  0
  6 23  1  0
  7  8  2  0
  8 26  1  0
  9 10  1  0
 11 12  2  0
 12 28  1  0
 13 28  1  0
 14 15  2  0
 16 29  1  0
 16 10  2  0
 17 18  2  0
 19 27  1  0
 19  6  2  0
 26  9  1  0
 27 20  1  0
  3 22  2  0
  6  7  1  0
  8 17  1  0
  9 24  2  0
 10 11  1  0
 12 14  1  0
 15 16  1  0
 18 19  1  0
 20 25  2  0
M  END
>  <rmsd>  (632) 
0.23027043

$$$$
MolPort-002-173-777 MolPort-002-548-036 MolPort-047-713-465 CSSS00107064492 ChemDiv-4120-0457 LN00488348 MCULE-8692214273 MCULE-9998837735 PubChem-2874769 PubChem-2874770 PubChem-5344390
     RDKit          3D

 30 33  0  0  0  0  0  0  0  0999 V2000
   17.7842   41.2618   10.0262 C   0  0  0  0  0  0  0  0  0  0  0  0
   15.7116   41.5022    8.6869 C   0  0  0  0  0  0  0  0  0  0  0  0
   16.2811   42.5332    7.9216 C   0  0  0  0  0  0  0  0  0  0  0  0
   15.5606   43.1383    6.8921 C   0  0  0  0  0  0  0  0  0  0  0  0
   14.2562   42.7223    6.6045 C   0  0  0  0  0  0  0  0  0  0  0  0
   13.8969   44.3711    4.6753 C   0  0  0  0  0  0  0  0  0  0  0  0
   12.9510   44.8472    3.6231 C   0  0  1  0  0  0  0  0  0  0  0  0
   12.5832   46.3166    3.8638 C   0  0  0  0  0  0  0  0  0  0  0  0
   12.0483   46.9638    2.5872 C   0  0  0  0  0  0  0  0  0  0  0  0
   13.0107   46.7815    1.3991 C   0  0  0  0  0  0  0  0  0  0  0  0
   14.7429   45.5309    0.4268 C   0  0  0  0  0  0  0  0  0  0  0  0
   16.1853   45.2113    0.6384 C   0  0  0  0  0  0  0  0  0  0  0  0
   17.0656   46.1899    1.1164 C   0  0  0  0  0  0  0  0  0  0  0  0
   18.4159   45.8828    1.3096 C   0  0  0  0  0  0  0  0  0  0  0  0
   18.8885   44.5982    1.0232 C   0  0  0  0  0  0  0  0  0  0  0  0
   18.0112   43.6212    0.5424 C   0  0  0  0  0  0  0  0  0  0  0  0
   16.6607   43.9280    0.3492 C   0  0  0  0  0  0  0  0  0  0  0  0
   13.5382   44.6133    2.2245 C   0  0  0  0  0  0  0  0  0  0  0  0
   13.6834   41.6998    7.3641 C   0  0  0  0  0  0  0  0  0  0  0  0
   14.3866   41.0869    8.4074 C   0  0  0  0  0  0  0  0  0  0  0  0
   14.1729   39.5078   10.3430 C   0  0  0  0  0  0  0  0  0  0  0  0
   13.8436   40.4417   11.4978 C   0  0  0  0  0  0  0  0  0  0  0  0
   12.7388   39.7752   12.2871 C   0  0  0  0  0  0  0  0  0  0  0  0
   12.8910   38.2991   12.0120 C   0  0  0  0  0  0  0  0  0  0  0  0
   13.4258   38.2118   10.5999 C   0  0  0  0  0  0  0  0  0  0  0  0
   16.4524   40.8860    9.7020 O   0  0  0  0  0  0  0  0  0  0  0  0
   15.0389   44.8964    4.7803 O   0  0  0  0  0  0  0  0  0  0  0  0
   13.7246   40.0726    9.1166 O   0  0  0  0  0  0  0  0  0  0  0  0
   13.4843   43.3143    5.5509 N   0  0  0  0  0  0  0  0  0  0  0  0
   14.1061   45.8524    1.6944 N   0  0  0  0  0  0  0  0  0  0  0  0
  1 26  1  0
  2 26  1  0
  3  4  2  0
  5 29  1  0
  5 19  2  0
  7  6  1  1
  7  8  1  0
  8  9  1  0
  9 10  1  0
 10 30  1  0
 11 30  1  0
 11 12  1  0
 13 14  2  0
 15 16  2  0
 17 12  2  0
 18 30  1  0
 18  7  1  0
 20 28  1  0
 20  2  2  0
 21 28  1  0
 21 22  1  0
 22 23  1  0
 23 24  1  0
 24 25  1  0
 25 21  1  0
 29  6  1  0
  2  3  1  0
  4  5  1  0
  6 27  2  0
 12 13  1  0
 14 15  1  0
 16 17  1  0
 19 20  1  0
M  END
>  <rmsd>  (633) 
0.230132088

$$$$
MolPort-001-758-260 15021238 LN00192691 MCULE-4614069524 PubChem-26369933 ZINC000015021238 ZINC15021238
     RDKit          3D

 18 18  0  0  0  0  0  0  0  0999 V2000
   12.6445   39.3013   11.6065 C   0  0  0  0  0  0  0  0  0  0  0  0
   13.8005   38.9724   10.6852 C   0  0  0  0  0  0  0  0  0  0  0  0
   14.9822   40.7267    9.4263 C   0  0  0  0  0  0  0  0  0  0  0  0
   14.9804   41.6966    8.3282 C   0  0  0  0  0  0  0  0  0  0  0  0
   16.0078   42.5560    7.9909 C   0  0  0  0  0  0  0  0  0  0  0  0
   14.3572   42.8194    6.6741 C   0  0  0  0  0  0  0  0  0  0  0  0
   13.8850   44.3231    4.6827 C   0  0  0  0  0  0  0  0  0  0  0  0
   13.1939   45.6972    2.7025 C   0  0  0  0  0  0  0  0  0  0  0  0
   13.4377   47.0487    3.3517 C   0  0  0  0  0  0  0  0  0  0  0  0
   14.3785   45.3255    1.8274 C   0  0  0  0  0  0  0  0  0  0  0  0
   11.9650   45.8028    1.8247 C   0  0  0  0  0  0  0  0  0  0  0  0
   13.8575   39.9272    9.6360 O   0  0  0  0  0  0  0  0  0  0  0  0
   15.9941   40.6205   10.1722 O   0  0  0  0  0  0  0  0  0  0  0  0
   15.0146   44.8810    4.7490 O   0  0  0  0  0  0  0  0  0  0  0  0
   12.9628   44.6937    3.6945 O   0  0  0  0  0  0  0  0  0  0  0  0
   13.9802   41.8791    7.5044 O   0  0  0  0  0  0  0  0  0  0  0  0
   15.6019   43.2768    6.9253 N   0  0  0  0  0  0  0  0  0  0  0  0
   13.5226   43.3002    5.6155 N   0  0  0  0  0  0  0  0  0  0  0  0
  1  2  1  0
  2 12  1  0
  3 12  1  0
  3  4  1  0
  4 16  1  0
  5 17  1  0
  6 18  1  0
  6 16  1  0
  7 15  1  0
  8 15  1  0
  8  9  1  0
  8 10  1  0
  8 11  1  0
 18  7  1  0
  3 13  2  0
  4  5  2  0
  6 17  2  0
  7 14  2  0
M  END
>  <rmsd>  (634) 
0.230053365

$$$$
MolPort-008-288-023 MCULE-3234992297 PubChem-46969567
     RDKit          3D

 28 30  0  0  0  0  0  0  0  0999 V2000
   10.4440   44.7119    4.1503 C   0  0  0  0  0  0  0  0  0  0  0  0
   11.6383   45.6343    4.2924 C   0  0  0  0  0  0  0  0  0  0  0  0
   12.8998   44.9479    3.7032 C   0  0  1  0  0  0  0  0  0  0  0  0
   13.5141   45.9233    2.6946 C   0  0  0  0  0  0  0  0  0  0  0  0
   12.4819   46.9733    2.6109 C   0  0  0  0  0  0  0  0  0  0  0  0
   13.8862   44.4057    4.7031 C   0  0  0  0  0  0  0  0  0  0  0  0
   14.2754   42.7025    6.5709 C   0  0  0  0  0  0  0  0  0  0  0  0
   15.8493   41.9447    8.2137 C   0  0  0  0  0  0  0  0  0  0  0  0
   16.9724   41.6868    9.1601 C   0  0  0  0  0  0  0  0  0  0  0  0
   17.0207   42.7571   10.2482 C   0  0  0  0  0  0  0  0  0  0  0  0
   16.0087   42.5793   11.3456 C   0  0  0  0  0  0  0  0  0  0  0  0
   15.1753   41.4537   11.4264 C   0  0  0  0  0  0  0  0  0  0  0  0
   14.2442   41.3205   12.4687 C   0  0  0  0  0  0  0  0  0  0  0  0
   14.1507   42.3237   13.4450 C   0  0  0  0  0  0  0  0  0  0  0  0
   14.9898   43.4470   13.3660 C   0  0  0  0  0  0  0  0  0  0  0  0
   15.9113   43.5710   12.3240 C   0  0  0  0  0  0  0  0  0  0  0  0
   13.0628   43.1539   15.5085 C   0  0  0  0  0  0  0  0  0  0  0  0
   13.4325   39.1492   11.5997 C   0  0  0  0  0  0  0  0  0  0  0  0
   11.7810   46.0575    5.7494 C   0  0  0  0  0  0  0  0  0  0  0  0
   12.5418   47.9529    1.8239 O   0  0  0  0  0  0  0  0  0  0  0  0
   11.4440   46.7906    3.4987 O   0  0  0  0  0  0  0  0  0  0  0  0
   15.0429   44.9001    4.7897 O   0  0  0  0  0  0  0  0  0  0  0  0
   13.2209   42.1847   14.4813 O   0  0  0  0  0  0  0  0  0  0  0  0
   13.4055   40.2038   12.5521 O   0  0  0  0  0  0  0  0  0  0  0  0
   13.4886   43.3146    5.5423 N   0  0  0  0  0  0  0  0  0  0  0  0
   13.8211   41.6637    7.3040 N   0  0  0  0  0  0  0  0  0  0  0  0
   14.6948   41.2435    8.2173 N   0  0  0  0  0  0  0  0  0  0  0  0
   15.8302   43.1588    7.0466 S   0  0  0  0  0  0  0  0  0  0  0  0
  1  2  1  0
  2  3  1  0
  2 19  1  0
  2 21  1  0
  3  4  1  0
  3  6  1  1
  4  5  1  0
  5 21  1  0
  6 25  1  0
  7 28  1  0
  8 28  1  0
  9  8  1  0
  9 10  1  0
 10 11  1  0
 12 13  2  0
 13 24  1  0
 14 15  2  0
 14 23  1  0
 16 11  2  0
 17 23  1  0
 18 24  1  0
 25  7  1  0
 26 27  1  0
  5 20  2  0
  6 22  2  0
  7 26  2  0
  8 27  2  0
 11 12  1  0
 13 14  1  0
 15 16  1  0
M  END
>  <rmsd>  (635) 
0.22999613

$$$$
Molport-047-042-891 MCULE-9701418706 PubChem-132765288
     RDKit          3D

 25 27  0  0  0  0  0  0  0  0999 V2000
   14.9496   40.8830   12.5584 C   0  0  0  0  0  0  0  0  0  0  0  0
   17.1237   41.9093   11.7278 C   0  0  0  0  0  0  0  0  0  0  0  0
   18.0478   42.1010   10.5770 C   0  0  0  0  0  0  0  0  0  0  0  0
   18.4541   44.2304    9.6984 C   0  0  0  0  0  0  0  0  0  0  0  0
   18.5844   44.7317    8.2828 C   0  0  0  0  0  0  0  0  0  0  0  0
   18.3296   43.5143    7.4382 C   0  0  0  0  0  0  0  0  0  0  0  0
   17.5424   42.5665    8.3308 C   0  0  2  0  0  0  0  0  0  0  0  0
   16.1405   42.3492    7.8363 C   0  0  0  0  0  0  0  0  0  0  0  0
   15.3158   41.3650    8.3857 C   0  0  0  0  0  0  0  0  0  0  0  0
   14.3245   42.7070    6.5727 C   0  0  0  0  0  0  0  0  0  0  0  0
   13.8814   44.3773    4.7158 C   0  0  0  0  0  0  0  0  0  0  0  0
   12.9154   44.9015    3.7160 C   0  0  0  0  0  0  0  0  0  0  0  0
   14.9364   41.3467   13.8600 C   0  0  0  0  0  0  0  0  0  0  0  0
   13.7998   40.1447   12.3957 C   0  0  0  0  0  0  0  0  0  0  0  0
   13.3619   39.4454   11.1572 C   0  0  0  0  0  0  0  0  0  0  0  0
   13.3770   41.1182   15.7777 C   0  0  0  0  0  0  0  0  0  0  0  0
   15.9451   41.1159   11.5561 N   0  0  0  0  0  0  0  0  0  0  0  0
   17.5143   43.1178    9.6845 N   0  0  0  0  0  0  0  0  0  0  0  0
   13.4906   43.3003    5.5731 N   0  0  0  0  0  0  0  0  0  0  0  0
   15.5907   43.0892    6.8322 N   0  0  0  0  0  0  0  0  0  0  0  0
   13.8008   40.8741   14.4121 N   0  0  0  0  0  0  0  0  0  0  0  0
   13.1059   40.1508   13.5467 N   0  0  0  0  0  0  0  0  0  0  0  0
   17.3738   42.4747   12.8251 O   0  0  0  0  0  0  0  0  0  0  0  0
   15.0298   44.8882    4.7947 O   0  0  0  0  0  0  0  0  0  0  0  0
   13.8453   41.4496    7.5669 S   0  0  0  0  0  0  0  0  0  0  0  0
  1 17  1  0
  3  2  1  0
  3 18  1  0
  4 18  1  0
  4  5  1  0
  5  6  1  0
  6  7  1  0
  7  8  1  6
  7 18  1  0
  8 20  1  0
  9 25  1  0
 10 25  1  0
 10 19  1  0
 12 11  1  0
 13 21  1  0
 14  1  1  0
 15 14  1  0
 16 21  1  0
 17  2  1  0
 19 11  1  0
 21 22  1  0
  1 13  2  0
  2 23  2  0
  8  9  2  0
 10 20  2  0
 11 24  2  0
 14 22  2  0
M  END
>  <rmsd>  (636) 
0.229908854

$$$$
MolPort-039-210-488 CSSS03437013823 MCULE-4377879429 PubChem-121017036
     RDKit          3D

 25 27  0  0  0  0  0  0  0  0999 V2000
   11.5984   50.0626    4.4890 F   0  0  0  0  0  0  0  0  0  0  0  0
   14.2789   46.0741    1.7942 F   0  0  0  0  0  0  0  0  0  0  0  0
   12.2543   49.0791    3.8282 C   0  0  0  0  0  0  0  0  0  0  0  0
   12.0673   47.7441    4.1978 C   0  0  0  0  0  0  0  0  0  0  0  0
   12.7419   46.7243    3.5167 C   0  0  0  0  0  0  0  0  0  0  0  0
   12.5452   45.3051    3.9360 C   0  0  0  0  0  0  0  0  0  0  0  0
   14.2141   42.5367    6.6473 C   0  0  0  0  0  0  0  0  0  0  0  0
   14.0495   41.2282    7.0384 C   0  0  0  0  0  0  0  0  0  0  0  0
   15.1570   39.7690    8.7155 C   0  0  0  0  0  0  0  0  0  0  0  0
   14.5493   39.8650   10.1061 C   0  0  1  0  0  0  0  0  0  0  0  0
   13.0124   39.8720   10.0224 C   0  0  0  0  0  0  0  0  0  0  0  0
   12.3843   38.9619   11.0810 C   0  0  0  0  0  0  0  0  0  0  0  0
   13.1244   39.0574   12.4176 C   0  0  0  0  0  0  0  0  0  0  0  0
   14.6484   39.1115   12.2217 C   0  0  0  0  0  0  0  0  0  0  0  0
   15.2444   43.0793    7.3921 C   0  0  0  0  0  0  0  0  0  0  0  0
   13.6127   47.0475    2.4640 C   0  0  0  0  0  0  0  0  0  0  0  0
   13.7978   48.3842    2.0972 C   0  0  0  0  0  0  0  0  0  0  0  0
   13.1194   49.3990    2.7782 C   0  0  0  0  0  0  0  0  0  0  0  0
   13.7062   44.8548    5.2126 S   0  0  0  0  0  0  0  0  0  0  0  0
   15.1084   45.0225    4.6983 O   0  0  0  0  0  0  0  0  0  0  0  0
   13.4945   45.7319    6.4146 O   0  0  0  0  0  0  0  0  0  0  0  0
   15.0106   38.7983   10.8984 O   0  0  0  0  0  0  0  0  0  0  0  0
   13.4412   43.2005    5.6471 N   0  0  0  0  0  0  0  0  0  0  0  0
   14.9734   41.0170    7.9920 N   0  0  0  0  0  0  0  0  0  0  0  0
   15.6884   42.1090    8.2149 N   0  0  0  0  0  0  0  0  0  0  0  0
  3  1  1  0
  4  5  2  0
  6  5  1  0
  6 19  1  0
  8 24  1  0
  9 24  1  0
 10  9  1  6
 10 11  1  0
 10 22  1  0
 11 12  1  0
 12 13  1  0
 13 14  1  0
 14 22  1  0
 15  7  1  0
 16  2  1  0
 16 17  2  0
 18  3  2  0
 19 23  1  0
 23  7  1  0
 24 25  1  0
  3  4  1  0
  5 16  1  0
  7  8  2  0
 15 25  2  0
 17 18  1  0
 19 20  2  0
 19 21  2  0
M  END
>  <rmsd>  (637) 
0.229891628

$$$$
MolPort-035-395-044 96125881 LN01331276 MCULE-9613971028 PubChem-14488320 ZINC000096125881 ZINC96125881
     RDKit          3D

 19 19  0  0  0  0  0  0  0  0999 V2000
   12.6356   39.2889   11.6169 C   0  0  0  0  0  0  0  0  0  0  0  0
   13.7948   38.9560   10.7012 C   0  0  0  0  0  0  0  0  0  0  0  0
   14.9933   40.7080    9.4532 C   0  0  0  0  0  0  0  0  0  0  0  0
   14.9965   41.6849    8.3502 C   0  0  0  0  0  0  0  0  0  0  0  0
   14.3476   42.8108    6.6776 C   0  0  0  0  0  0  0  0  0  0  0  0
   13.8846   44.3249    4.6806 C   0  0  0  0  0  0  0  0  0  0  0  0
   13.1909   45.6980    2.7007 C   0  0  0  0  0  0  0  0  0  0  0  0
   11.9609   45.8027    1.8243 C   0  0  0  0  0  0  0  0  0  0  0  0
   14.3745   45.3262    1.8244 C   0  0  0  0  0  0  0  0  0  0  0  0
   13.4349   47.0498    3.3490 C   0  0  0  0  0  0  0  0  0  0  0  0
   15.6266   43.2384    6.9821 C   0  0  0  0  0  0  0  0  0  0  0  0
   17.3087   42.6352    8.7008 C   0  0  0  0  0  0  0  0  0  0  0  0
   13.8630   39.9136    9.6551 O   0  0  0  0  0  0  0  0  0  0  0  0
   15.9973   40.5896   10.2072 O   0  0  0  0  0  0  0  0  0  0  0  0
   15.0139   44.8835    4.7449 O   0  0  0  0  0  0  0  0  0  0  0  0
   12.9612   44.6948    3.6933 O   0  0  0  0  0  0  0  0  0  0  0  0
   13.9434   41.8426    7.5231 N   0  0  0  0  0  0  0  0  0  0  0  0
   13.5227   43.3016    5.6144 N   0  0  0  0  0  0  0  0  0  0  0  0
   16.0184   42.5142    8.0425 N   0  0  0  0  0  0  0  0  0  0  0  0
  1  2  1  0
  2 13  1  0
  3 13  1  0
  3  4  1  0
  5 17  1  0
  5 18  1  0
  6 16  1  0
  7 16  1  0
  7  8  1  0
  7  9  1  0
  7 10  1  0
 11 19  1  0
 12 19  1  0
 18  6  1  0
 19  4  1  0
  3 14  2  0
  4 17  2  0
  5 11  2  0
  6 15  2  0
M  END
>  <rmsd>  (638) 
0.229568526

$$$$
MolPort-001-990-945 94430 CSSS00132532034 LN00558978 MCULE-4341930781 PubChem-707292 ZINC000000094430 ZINC00094430
     RDKit          3D

 19 19  0  0  0  0  0  0  0  0999 V2000
   13.0387   38.6204   11.4890 C   0  0  0  0  0  0  0  0  0  0  0  0
   13.6519   40.0023   11.5759 C   0  0  0  0  0  0  0  0  0  0  0  0
   14.9426   40.9574    9.7080 C   0  0  0  0  0  0  0  0  0  0  0  0
   14.9615   41.5536    8.3533 C   0  0  0  0  0  0  0  0  0  0  0  0
   13.8763   42.1668    7.7423 C   0  0  0  0  0  0  0  0  0  0  0  0
   12.4930   42.3135    8.2811 C   0  0  0  0  0  0  0  0  0  0  0  0
   14.3270   42.6641    6.5401 C   0  0  0  0  0  0  0  0  0  0  0  0
   13.9355   44.3032    4.6324 C   0  0  0  0  0  0  0  0  0  0  0  0
   13.0543   44.6804    3.4973 C   0  0  0  0  0  0  0  0  0  0  0  0
   15.6621   42.3104    6.4294 C   0  0  0  0  0  0  0  0  0  0  0  0
   16.4966   42.4510    5.1974 C   0  0  0  0  0  0  0  0  0  0  0  0
   17.3344   41.0206    7.7426 C   0  0  0  0  0  0  0  0  0  0  0  0
   18.5881   41.7250    7.3513 C   0  0  0  0  0  0  0  0  0  0  0  0
   13.7274   40.5700   10.2769 O   0  0  0  0  0  0  0  0  0  0  0  0
   16.0140   40.8272   10.3602 O   0  0  0  0  0  0  0  0  0  0  0  0
   15.0289   44.9061    4.7954 O   0  0  0  0  0  0  0  0  0  0  0  0
   17.4148   39.8662    8.2395 O   0  0  0  0  0  0  0  0  0  0  0  0
   13.5000   43.3054    5.5596 N   0  0  0  0  0  0  0  0  0  0  0  0
   16.0495   41.6371    7.5406 N   0  0  0  0  0  0  0  0  0  0  0  0
  1  2  1  0
  2 14  1  0
  3 14  1  0
  3  4  1  0
  5  7  1  0
  6  5  1  0
  7 18  1  0
  9  8  1  0
 10 19  1  0
 11 10  1  0
 13 12  1  0
 18  8  1  0
 19 12  1  0
 19  4  1  0
  3 15  2  0
  4  5  2  0
  7 10  2  0
  8 16  2  0
 12 17  2  0
M  END
>  <rmsd>  (639) 
0.229223058

$$$$
MolPort-005-160-763 CSSS00160037773 MCULE-3804064098 PubChem-45250734
     RDKit          3D

 33 36  0  0  0  0  0  0  0  0999 V2000
   11.6961   46.7662    4.1011 C   0  0  0  0  0  0  0  0  0  0  0  0
   12.9531   44.9855    3.7053 C   0  0  1  0  0  0  0  0  0  0  0  0
   13.8945   44.4059    4.7131 C   0  0  0  0  0  0  0  0  0  0  0  0
   14.2793   42.6492    6.5200 C   0  0  0  0  0  0  0  0  0  0  0  0
   15.5773   42.9672    6.8731 C   0  0  0  0  0  0  0  0  0  0  0  0
   15.8821   42.0297    7.8547 C   0  0  0  0  0  0  0  0  0  0  0  0
   12.5493   40.9630    7.1439 C   0  0  0  0  0  0  0  0  0  0  0  0
   11.8543   40.9688    8.5098 C   0  0  0  0  0  0  0  0  0  0  0  0
   10.8771   39.7985    8.6360 C   0  0  0  0  0  0  0  0  0  0  0  0
   11.7991   37.8578    9.7593 C   0  0  0  0  0  0  0  0  0  0  0  0
   12.6992   38.6644   10.6553 C   0  0  0  0  0  0  0  0  0  0  0  0
   14.0710   38.7613   10.3960 C   0  0  0  0  0  0  0  0  0  0  0  0
   14.8941   39.5076   11.2425 C   0  0  0  0  0  0  0  0  0  0  0  0
   14.3546   40.1592   12.3637 C   0  0  0  0  0  0  0  0  0  0  0  0
   16.5551   41.0849   13.0183 C   0  0  0  0  0  0  0  0  0  0  0  0
   12.9821   40.0460   12.6287 C   0  0  0  0  0  0  0  0  0  0  0  0
   12.1611   39.2984   11.7790 C   0  0  0  0  0  0  0  0  0  0  0  0
   12.7555   38.5020    7.6376 C   0  0  0  0  0  0  0  0  0  0  0  0
   12.6874   39.5607    6.5401 C   0  0  0  0  0  0  0  0  0  0  0  0
   12.6768   44.0226    2.5908 C   0  0  0  0  0  0  0  0  0  0  0  0
   11.9282   42.8556    2.8086 C   0  0  0  0  0  0  0  0  0  0  0  0
   11.6845   41.9705    1.7544 C   0  0  0  0  0  0  0  0  0  0  0  0
   12.1856   42.2478    0.4793 C   0  0  0  0  0  0  0  0  0  0  0  0
   12.9299   43.4104    0.2580 C   0  0  0  0  0  0  0  0  0  0  0  0
   13.1750   44.2958    1.3121 C   0  0  0  0  0  0  0  0  0  0  0  0
   11.7636   45.3893    4.3192 O   0  0  0  0  0  0  0  0  0  0  0  0
   15.0493   44.8956    4.8265 O   0  0  0  0  0  0  0  0  0  0  0  0
   15.1588   40.9163   13.2223 O   0  0  0  0  0  0  0  0  0  0  0  0
   12.4284   40.6755   13.7366 O   0  0  0  0  0  0  0  0  0  0  0  0
   13.4765   43.3060    5.5312 N   0  0  0  0  0  0  0  0  0  0  0  0
   14.8221   41.2178    8.0550 N   0  0  0  0  0  0  0  0  0  0  0  0
   13.8546   41.6049    7.2434 N   0  0  0  0  0  0  0  0  0  0  0  0
   11.5321   38.4862    8.4581 N   0  0  0  0  0  0  0  0  0  0  0  0
  1 26  1  0
  2 26  1  1
  2  3  1  0
  2 20  1  0
  3 30  1  0
  5  6  1  0
  7 32  1  0
  7  8  1  0
  8  9  1  0
  9 33  1  0
 10 33  1  0
 10 11  1  0
 12 13  2  0
 14 28  1  0
 14 16  2  0
 15 28  1  0
 16 29  1  0
 17 11  2  0
 18 33  1  0
 18 19  1  0
 19  7  1  0
 21 22  2  0
 23 24  2  0
 25 20  2  0
 30  4  1  0
 32 31  1  0
 32  4  1  0
  3 27  2  0
  4  5  2  0
  6 31  2  0
 11 12  1  0
 13 14  1  0
 16 17  1  0
 20 21  1  0
 22 23  1  0
 24 25  1  0
M  END
>  <rmsd>  (640) 
0.229116887

$$$$
MolPort-007-714-480 ChemDiv-E002-1797 MCULE-9825008472 PubChem-22510800 ZINC000006792409 ZINC06792409
     RDKit          3D

 26 27  0  0  0  0  0  0  0  0999 V2000
   13.0760   40.6595   11.1543 C   0  0  0  0  0  0  0  0  0  0  0  0
   14.1052   39.5460   11.1252 C   0  0  0  0  0  0  0  0  0  0  0  0
   13.4493   38.2520   11.5568 C   0  0  0  0  0  0  0  0  0  0  0  0
   14.6613   39.3826    9.7199 C   0  0  0  0  0  0  0  0  0  0  0  0
   16.8893   40.5114    9.9754 C   0  0  0  0  0  0  0  0  0  0  0  0
   17.1029   41.7839   10.7831 C   0  0  0  0  0  0  0  0  0  0  0  0
   18.5846   41.9805   11.0220 C   0  0  0  0  0  0  0  0  0  0  0  0
   16.3936   41.6889   12.1189 C   0  0  0  0  0  0  0  0  0  0  0  0
   15.2135   41.3840    8.3146 C   0  0  0  0  0  0  0  0  0  0  0  0
   14.2624   42.6887    6.5483 C   0  0  0  0  0  0  0  0  0  0  0  0
   13.8939   44.3911    4.7006 C   0  0  0  0  0  0  0  0  0  0  0  0
   13.2277   45.9842    2.8042 C   0  0  0  0  0  0  0  0  0  0  0  0
   14.4498   46.6726    2.7729 C   0  0  0  0  0  0  0  0  0  0  0  0
   14.6509   47.7151    1.8642 C   0  0  0  0  0  0  0  0  0  0  0  0
   13.6328   48.0792    0.9788 C   0  0  0  0  0  0  0  0  0  0  0  0
   13.8629   49.1919    0.0171 C   0  0  0  0  0  0  0  0  0  0  0  0
   12.4090   47.3957    1.0046 C   0  0  0  0  0  0  0  0  0  0  0  0
   12.2123   46.3531    1.9156 C   0  0  0  0  0  0  0  0  0  0  0  0
   15.5567   40.4826    9.3786 N   0  0  0  0  0  0  0  0  0  0  0  0
   16.0567   42.3277    7.8363 N   0  0  0  0  0  0  0  0  0  0  0  0
   15.5275   43.0537    6.8532 N   0  0  0  0  0  0  0  0  0  0  0  0
   13.4674   43.3073    5.5320 N   0  0  0  0  0  0  0  0  0  0  0  0
   12.9840   44.9093    3.7220 N   0  0  0  0  0  0  0  0  0  0  0  0
   15.0492   44.8789    4.8292 O   0  0  0  0  0  0  0  0  0  0  0  0
   11.4092   47.7349    0.1530 F   0  0  0  0  0  0  0  0  0  0  0  0
   13.7282   41.4156    7.5094 S   0  0  0  0  0  0  0  0  0  0  0  0
  1  2  1  0
  2  3  1  0
  2  4  1  0
  4 19  1  0
  5 19  1  0
  5  6  1  0
  6  7  1  0
  6  8  1  0
  9 26  1  0
 10 22  1  0
 10 26  1  0
 11 23  1  0
 13 14  2  0
 15 17  2  0
 16 15  1  0
 17 25  1  0
 18 12  2  0
 19  9  1  0
 20 21  1  0
 22 11  1  0
 23 12  1  0
  9 20  2  0
 10 21  2  0
 11 24  2  0
 12 13  1  0
 14 15  1  0
 17 18  1  0
M  END
>  <rmsd>  (641) 
0.229105949

$$$$
MolPort-003-134-642 4517711 CSSS03437056321 MCULE-7624361103 PubChem-7267002 ZINC000004517711
     RDKit          3D

 25 27  0  0  0  0  0  0  0  0999 V2000
   13.1220   39.6158   11.8993 C   0  0  0  0  0  0  0  0  0  0  0  0
   13.2196   38.8984   10.5655 C   0  0  0  0  0  0  0  0  0  0  0  0
   14.7365   40.4264    9.3232 C   0  0  0  0  0  0  0  0  0  0  0  0
   14.9017   41.3792    8.3131 C   0  0  0  0  0  0  0  0  0  0  0  0
   14.3717   42.7231    6.6069 C   0  0  0  0  0  0  0  0  0  0  0  0
   13.8887   44.3219    4.6669 C   0  0  0  0  0  0  0  0  0  0  0  0
   12.9253   44.7649    3.6364 C   0  0  0  0  0  0  0  0  0  0  0  0
   12.0308   43.8892    2.9633 C   0  0  0  0  0  0  0  0  0  0  0  0
   11.1312   44.4175    2.0275 C   0  0  0  0  0  0  0  0  0  0  0  0
   11.1122   45.7823    1.7408 C   0  0  0  0  0  0  0  0  0  0  0  0
   12.0027   46.6395    2.3833 C   0  0  0  0  0  0  0  0  0  0  0  0
   12.9023   46.1325    3.3212 C   0  0  0  0  0  0  0  0  0  0  0  0
   11.1843   41.3378    1.8409 C   0  0  0  0  0  0  0  0  0  0  0  0
   16.1370   41.9744    8.1039 C   0  0  0  0  0  0  0  0  0  0  0  0
   17.2541   41.6600    8.8719 C   0  0  0  0  0  0  0  0  0  0  0  0
   17.1038   40.7050    9.8882 C   0  0  0  0  0  0  0  0  0  0  0  0
   15.8568   40.0919   10.1131 C   0  0  0  0  0  0  0  0  0  0  0  0
   13.4853   39.8292    9.5216 O   0  0  0  0  0  0  0  0  0  0  0  0
   15.0062   44.8993    4.7526 O   0  0  0  0  0  0  0  0  0  0  0  0
   11.3496   41.7781    4.4707 O   0  0  0  0  0  0  0  0  0  0  0  0
   13.4513   41.6227    3.2012 O   0  0  0  0  0  0  0  0  0  0  0  0
   13.9137   41.7925    7.4780 N   0  0  0  0  0  0  0  0  0  0  0  0
   13.5262   43.3029    5.6068 N   0  0  0  0  0  0  0  0  0  0  0  0
   12.0383   42.1347    3.1838 S   0  0  0  0  0  0  0  0  0  0  0  0
   16.0201   43.0623    6.8330 S   0  0  0  0  0  0  0  0  0  0  0  0
  1  2  1  0
  2 18  1  0
  3 18  1  0
  4 22  1  0
  5 23  1  0
  5 25  1  0
  6  7  1  0
  8  9  2  0
 10 11  2  0
 12  7  2  0
 14 25  1  0
 14  4  2  0
 15 16  2  0
 17  3  2  0
 23  6  1  0
 24  8  1  0
 24 13  1  0
  3  4  1  0
  5 22  2  0
  6 19  2  0
  7  8  1  0
  9 10  1  0
 11 12  1  0
 14 15  1  0
 16 17  1  0
 24 20  2  0
 24 21  2  0
M  END
>  <rmsd>  (642) 
0.228799075

$$$$
MolPort-039-343-150 CSSS00132746343 MCULE-7163240322 PubChem-43819310
     RDKit          3D

 32 36  0  0  0  0  0  0  0  0999 V2000
   13.7829   41.6759    7.4096 C   0  0  0  0  0  0  0  0  0  0  0  0
   14.1796   42.7636    6.6281 C   0  0  0  0  0  0  0  0  0  0  0  0
   13.9221   44.3634    4.6540 C   0  0  0  0  0  0  0  0  0  0  0  0
   13.3971   45.7215    2.5365 C   0  0  0  0  0  0  0  0  0  0  0  0
   14.6853   46.2673    2.4144 C   0  0  0  0  0  0  0  0  0  0  0  0
   14.9982   47.1298    1.3596 C   0  0  0  0  0  0  0  0  0  0  0  0
   14.0225   47.4550    0.4138 C   0  0  0  0  0  0  0  0  0  0  0  0
   12.7356   46.9235    0.5281 C   0  0  0  0  0  0  0  0  0  0  0  0
   12.4192   46.0593    1.5831 C   0  0  0  0  0  0  0  0  0  0  0  0
   12.5143   40.9410    7.2235 C   0  0  0  0  0  0  0  0  0  0  0  0
   10.9850   39.0764    7.9087 C   0  0  0  0  0  0  0  0  0  0  0  0
   10.9243   38.0352    9.0348 C   0  0  1  0  0  0  0  0  0  0  0  0
   12.0363   37.0043    8.8861 C   0  0  0  0  0  0  0  0  0  0  0  0
   13.3740   37.7295    8.9429 C   0  0  1  0  0  0  0  0  0  0  0  0
   13.4665   38.6821    7.7484 C   0  0  0  0  0  0  0  0  0  0  0  0
   13.4896   38.5103   10.2233 C   0  0  0  0  0  0  0  0  0  0  0  0
   12.5235   39.8037   11.9756 C   0  0  0  0  0  0  0  0  0  0  0  0
   13.7930   40.0923   12.4804 C   0  0  0  0  0  0  0  0  0  0  0  0
   14.9197   39.5830   11.8417 C   0  0  0  0  0  0  0  0  0  0  0  0
   14.7703   38.7920   10.7069 C   0  0  0  0  0  0  0  0  0  0  0  0
   11.0066   38.6952   10.4159 C   0  0  0  0  0  0  0  0  0  0  0  0
   14.6824   41.3347    8.3851 N   0  0  0  0  0  0  0  0  0  0  0  0
   15.7810   42.0864    8.4257 N   0  0  0  0  0  0  0  0  0  0  0  0
   13.4626   43.3184    5.5178 N   0  0  0  0  0  0  0  0  0  0  0  0
   13.0644   44.8055    3.5951 N   0  0  0  0  0  0  0  0  0  0  0  0
   12.3397   39.6164    7.7529 N   0  0  0  0  0  0  0  0  0  0  0  0
   12.3778   39.0262   10.8546 N   0  0  0  0  0  0  0  0  0  0  0  0
   15.6701   43.2258    7.2222 S   0  0  0  0  0  0  0  0  0  0  0  0
   15.0621   44.8777    4.8159 O   0  0  0  0  0  0  0  0  0  0  0  0
   11.5654   41.4940    6.6016 O   0  0  0  0  0  0  0  0  0  0  0  0
   11.5137   40.2668   12.5757 O   0  0  0  0  0  0  0  0  0  0  0  0
   10.7912   45.4076    1.6843 Cl  0  0  0  0  0  0  0  0  0  0  0  0
  1 22  1  0
  1 10  1  0
  2 28  1  0
  2 24  1  0
  3 25  1  0
  5  6  2  0
  7  8  2  0
  9 32  1  0
  9  4  2  0
 10 26  1  0
 11 26  1  0
 12 11  1  6
 12 13  1  0
 13 14  1  0
 14 15  1  6
 14 16  1  0
 15 26  1  0
 16 27  1  0
 17 18  1  0
 19 20  1  0
 21 27  1  0
 21 12  1  0
 23 28  1  0
 24  3  1  0
 25  4  1  0
 27 17  1  0
  2  1  2  0
  3 29  2  0
  4  5  1  0
  6  7  1  0
  8  9  1  0
 10 30  2  0
 17 31  2  0
 18 19  2  0
 20 16  2  0
 22 23  2  0
M  END
>  <rmsd>  (643) 
0.228632405

$$$$
MolPort-010-852-371 41076405 ChemDiv-G952-3364 MCULE-9272492653 PubChem-52095937 ZINC000041076405 ZINC41076405
     RDKit          3D

 22 24  0  0  0  0  0  0  0  0999 V2000
   14.0909   39.0354   11.9744 C   0  0  0  0  0  0  0  0  0  0  0  0
   13.1322   39.7029   11.0066 C   0  0  0  0  0  0  0  0  0  0  0  0
   13.5578   39.4442    9.5705 C   0  0  0  0  0  0  0  0  0  0  0  0
   14.6610   40.3646    9.1627 C   0  0  0  0  0  0  0  0  0  0  0  0
   15.7636   41.8363    8.1483 C   0  0  0  0  0  0  0  0  0  0  0  0
   14.2166   42.6752    6.5597 C   0  0  0  0  0  0  0  0  0  0  0  0
   13.9268   44.3655    4.6641 C   0  0  0  0  0  0  0  0  0  0  0  0
   13.0466   44.8408    3.5587 C   0  0  0  0  0  0  0  0  0  0  0  0
   13.5389   44.3415    2.2049 C   0  0  0  0  0  0  0  0  0  0  0  0
   13.1291   42.9272    1.9517 C   0  0  0  0  0  0  0  0  0  0  0  0
   12.1350   42.6565    1.0051 C   0  0  0  0  0  0  0  0  0  0  0  0
   11.7573   41.3361    0.7418 C   0  0  0  0  0  0  0  0  0  0  0  0
   12.3784   40.2826    1.4196 C   0  0  0  0  0  0  0  0  0  0  0  0
   13.3799   40.5489    2.3581 C   0  0  0  0  0  0  0  0  0  0  0  0
   13.7577   41.8688    2.6209 C   0  0  0  0  0  0  0  0  0  0  0  0
   15.9170   40.3781    9.6864 N   0  0  0  0  0  0  0  0  0  0  0  0
   16.6227   41.3159    9.0410 N   0  0  0  0  0  0  0  0  0  0  0  0
   13.4680   43.3115    5.5177 N   0  0  0  0  0  0  0  0  0  0  0  0
   13.6710   41.6975    7.3375 N   0  0  0  0  0  0  0  0  0  0  0  0
   14.5839   41.2824    8.2000 N   0  0  0  0  0  0  0  0  0  0  0  0
   15.8715   43.0049    6.9545 S   0  0  0  0  0  0  0  0  0  0  0  0
   15.0592   44.8924    4.8257 O   0  0  0  0  0  0  0  0  0  0  0  0
  1  2  1  0
  2  3  1  0
  3  4  1  0
  5 21  1  0
  6 21  1  0
  6 18  1  0
  8  7  1  0
  8  9  1  0
  9 10  1  0
 11 12  2  0
 13 14  2  0
 15 10  2  0
 16 17  1  0
 18  7  1  0
 20 19  1  0
 20  4  1  0
 20  5  1  0
  4 16  2  0
  5 17  2  0
  6 19  2  0
  7 22  2  0
 10 11  1  0
 12 13  1  0
 14 15  1  0
M  END
>  <rmsd>  (644) 
0.228610739

$$$$
MolPort-002-760-240 20615767 CSSS00132999005 MCULE-3714084329 PubChem-19340451 ZINC000020615767 ZINC20615767
     RDKit          3D

 30 33  0  0  0  0  0  0  0  0999 V2000
   13.0087   39.3846   11.9711 C   0  0  0  0  0  0  0  0  0  0  0  0
   14.1588   39.4320   10.9871 C   0  0  0  0  0  0  0  0  0  0  0  0
   14.9029   40.2202    9.0662 C   0  0  0  0  0  0  0  0  0  0  0  0
   13.8458   41.5876    7.2785 C   0  0  0  0  0  0  0  0  0  0  0  0
   14.2537   42.6681    6.5300 C   0  0  0  0  0  0  0  0  0  0  0  0
   13.8942   44.4102    4.7069 C   0  0  0  0  0  0  0  0  0  0  0  0
   12.9723   44.9867    3.7127 C   0  0  0  0  0  0  0  0  0  0  0  0
   13.3969   46.0528    2.8821 C   0  0  0  0  0  0  0  0  0  0  0  0
   12.5329   46.6148    1.9259 C   0  0  0  0  0  0  0  0  0  0  0  0
   11.2464   46.0859    1.8267 C   0  0  0  0  0  0  0  0  0  0  0  0
   10.3034   47.5563    0.0224 C   0  0  0  0  0  0  0  0  0  0  0  0
    9.9741   48.8528    0.6816 C   0  0  0  0  0  0  0  0  0  0  0  0
    8.6385   49.2306    0.8608 C   0  0  0  0  0  0  0  0  0  0  0  0
    8.3314   50.4354    1.5003 C   0  0  0  0  0  0  0  0  0  0  0  0
    9.3592   51.2617    1.9653 C   0  0  0  0  0  0  0  0  0  0  0  0
   10.6941   50.8825    1.7924 C   0  0  0  0  0  0  0  0  0  0  0  0
   11.0013   49.6777    1.1529 C   0  0  0  0  0  0  0  0  0  0  0  0
    9.1969   45.6747    1.2775 C   0  0  0  0  0  0  0  0  0  0  0  0
    7.8735   45.7626    0.5932 C   0  0  0  0  0  0  0  0  0  0  0  0
    9.5202   44.7793    2.2917 C   0  0  0  0  0  0  0  0  0  0  0  0
    8.6353   43.7440    2.8973 C   0  0  0  0  0  0  0  0  0  0  0  0
   10.8285   45.0547    2.6307 C   0  0  0  0  0  0  0  0  0  0  0  0
   11.6627   44.4787    3.5856 C   0  0  0  0  0  0  0  0  0  0  0  0
   15.5342   43.0022    6.9321 C   0  0  0  0  0  0  0  0  0  0  0  0
   13.9115   40.4136   10.0290 O   0  0  0  0  0  0  0  0  0  0  0  0
   15.0552   44.8861    4.8356 O   0  0  0  0  0  0  0  0  0  0  0  0
   14.8722   41.3053    8.1007 N   0  0  0  0  0  0  0  0  0  0  0  0
   13.4670   43.3084    5.5198 N   0  0  0  0  0  0  0  0  0  0  0  0
   10.2587   46.4680    0.9935 N   0  0  0  0  0  0  0  0  0  0  0  0
   15.8833   42.1362    7.9035 N   0  0  0  0  0  0  0  0  0  0  0  0
  1  2  1  0
  2 25  1  0
  3 25  1  0
  3 27  1  0
  5 28  1  0
  5 24  1  0
  6  7  1  0
  8  9  2  0
 10 29  1  0
 11 29  1  0
 11 12  1  0
 13 14  2  0
 15 16  2  0
 17 12  2  0
 19 18  1  0
 20 22  1  0
 21 20  1  0
 22 10  2  0
 23  7  2  0
 27  4  1  0
 27 30  1  0
 28  6  1  0
 29 18  1  0
  4  5  2  0
  6 26  2  0
  7  8  1  0
  9 10  1  0
 12 13  1  0
 14 15  1  0
 16 17  1  0
 18 20  2  0
 22 23  1  0
 24 30  2  0
M  END
>  <rmsd>  (645) 
0.228540778

$$$$
MolPort-001-659-628 2730708 CSSS00132994376 MCULE-4414717107 PubChem-19585148 ZINC000002730708 ZINC02730708
     RDKit          3D

 27 29  0  0  0  0  0  0  0  0999 V2000
   13.0087   39.4550   11.9953 C   0  0  0  0  0  0  0  0  0  0  0  0
   14.1038   39.3936   10.9497 C   0  0  0  0  0  0  0  0  0  0  0  0
   14.9112   40.2180    9.0688 C   0  0  0  0  0  0  0  0  0  0  0  0
   13.8482   41.5913    7.2894 C   0  0  0  0  0  0  0  0  0  0  0  0
   14.2640   42.6554    6.5225 C   0  0  0  0  0  0  0  0  0  0  0  0
   13.8929   44.4131    4.7226 C   0  0  0  0  0  0  0  0  0  0  0  0
   12.9371   45.0183    3.7523 C   0  0  0  0  0  0  0  0  0  0  0  0
   12.3925   46.3407    4.2726 C   0  0  0  0  0  0  0  0  0  0  0  0
   10.3313   47.6167    5.8306 C   0  0  0  0  0  0  0  0  0  0  0  0
   10.9180   48.5260    6.7195 C   0  0  0  0  0  0  0  0  0  0  0  0
   10.3012   49.7525    6.9839 C   0  0  0  0  0  0  0  0  0  0  0  0
    9.0950   50.0758    6.3575 C   0  0  0  0  0  0  0  0  0  0  0  0
    8.4728   51.3004    6.6154 C   0  0  0  0  0  0  0  0  0  0  0  0
    7.2673   51.6182    5.9813 C   0  0  0  0  0  0  0  0  0  0  0  0
    6.6820   50.7141    5.0886 C   0  0  0  0  0  0  0  0  0  0  0  0
    7.2982   49.4863    4.8260 C   0  0  0  0  0  0  0  0  0  0  0  0
    8.5024   49.1610    5.4564 C   0  0  0  0  0  0  0  0  0  0  0  0
    9.1249   47.9374    5.1978 C   0  0  0  0  0  0  0  0  0  0  0  0
   15.5601   42.9636    6.8933 C   0  0  0  0  0  0  0  0  0  0  0  0
   13.9455   40.4468   10.0504 O   0  0  0  0  0  0  0  0  0  0  0  0
   15.0541   44.8900    4.8322 O   0  0  0  0  0  0  0  0  0  0  0  0
   11.7208   45.5506    6.7674 O   0  0  0  0  0  0  0  0  0  0  0  0
   10.1070   45.1000    4.9842 O   0  0  0  0  0  0  0  0  0  0  0  0
   14.8856   41.2926    8.0914 N   0  0  0  0  0  0  0  0  0  0  0  0
   13.4697   43.3060    5.5255 N   0  0  0  0  0  0  0  0  0  0  0  0
   15.9108   42.0977    7.8643 N   0  0  0  0  0  0  0  0  0  0  0  0
   11.1196   46.0859    5.4979 S   0  0  0  0  0  0  0  0  0  0  0  0
  1  2  1  0
  2 20  1  0
  3 20  1  0
  3 24  1  0
  5 25  1  0
  5 19  1  0
  7  6  1  0
  7  8  1  0
  8 27  1  0
 10 11  2  0
 12 13  2  0
 14 15  2  0
 16 17  2  0
 17 12  1  0
 18  9  2  0
 24  4  1  0
 24 26  1  0
 25  6  1  0
 27  9  1  0
  4  5  2  0
  6 21  2  0
  9 10  1  0
 11 12  1  0
 13 14  1  0
 15 16  1  0
 17 18  1  0
 19 26  2  0
 27 22  2  0
 27 23  2  0
M  END
>  <rmsd>  (646) 
0.228361115

$$$$
MolPort-016-719-737 19716250 MCULE-2089122661 PubChem-46976687 ZINC000019716250
     RDKit          3D

 28 31  0  0  0  0  0  0  0  0999 V2000
   13.1238   39.6138   11.9036 C   0  0  0  0  0  0  0  0  0  0  0  0
   13.2187   38.8966   10.5694 C   0  0  0  0  0  0  0  0  0  0  0  0
   14.7350   40.4237    9.3252 C   0  0  0  0  0  0  0  0  0  0  0  0
   15.8562   40.0883   10.1135 C   0  0  0  0  0  0  0  0  0  0  0  0
   17.1034   40.7003    9.8870 C   0  0  0  0  0  0  0  0  0  0  0  0
   17.2530   41.6553    8.8706 C   0  0  0  0  0  0  0  0  0  0  0  0
   16.1351   41.9709    8.1042 C   0  0  0  0  0  0  0  0  0  0  0  0
   14.3684   42.7213    6.6096 C   0  0  0  0  0  0  0  0  0  0  0  0
   13.8908   44.3291    4.6818 C   0  0  0  0  0  0  0  0  0  0  0  0
   12.9418   44.7117    3.5982 C   0  0  0  0  0  0  0  0  0  0  0  0
   12.9149   43.6465    2.5075 C   0  0  0  0  0  0  0  0  0  0  0  0
   14.5556   44.6290    0.9871 C   0  0  0  0  0  0  0  0  0  0  0  0
   16.5385   43.5260    0.4550 C   0  0  0  0  0  0  0  0  0  0  0  0
   16.2081   42.4783    1.2440 C   0  0  0  0  0  0  0  0  0  0  0  0
   17.2516   41.5741    1.1476 C   0  0  0  0  0  0  0  0  0  0  0  0
   18.4420   44.1720   -1.0272 C   0  0  0  0  0  0  0  0  0  0  0  0
   15.0087   42.4863    1.9410 C   0  0  0  0  0  0  0  0  0  0  0  0
   14.8995   41.3764    8.3149 C   0  0  0  0  0  0  0  0  0  0  0  0
   13.4836   39.8274    9.5252 O   0  0  0  0  0  0  0  0  0  0  0  0
   15.0093   44.9028    4.7514 O   0  0  0  0  0  0  0  0  0  0  0  0
   14.6861   41.5164    2.6803 O   0  0  0  0  0  0  0  0  0  0  0  0
   16.0175   43.0587    6.8335 S   0  0  0  0  0  0  0  0  0  0  0  0
   13.5238   43.3000    5.6079 N   0  0  0  0  0  0  0  0  0  0  0  0
   14.1926   43.5829    1.8034 N   0  0  0  0  0  0  0  0  0  0  0  0
   15.7397   44.6086    0.3039 N   0  0  0  0  0  0  0  0  0  0  0  0
   18.1694   42.1177    0.3015 N   0  0  0  0  0  0  0  0  0  0  0  0
   17.7271   43.3000   -0.1121 N   0  0  0  0  0  0  0  0  0  0  0  0
   13.9108   41.7905    7.4808 N   0  0  0  0  0  0  0  0  0  0  0  0
  1  2  1  0
  2 19  1  0
  3 19  1  0
  4  5  2  0
  6  7  2  0
  7 22  1  0
  8 22  1  0
  8 23  1  0
 10  9  1  0
 10 11  1  0
 11 24  1  0
 13 25  1  0
 14 15  1  0
 14 17  1  0
 16 27  1  0
 17 24  1  0
 18 28  1  0
 18  3  2  0
 23  9  1  0
 24 12  1  0
 27 26  1  0
 27 13  1  0
  3  4  1  0
  5  6  1  0
  8 28  2  0
  9 20  2  0
 12 25  2  0
 13 14  2  0
 15 26  2  0
 17 21  2  0
 18  7  1  0
M  END
>  <rmsd>  (647) 
0.228268906

$$$$
MolPort-039-210-473 CSSS03436999701 MCULE-9158305354 PubChem-121017026
     RDKit          3D

 23 25  0  0  0  0  0  0  0  0999 V2000
   13.9748   46.8720    2.5340 C   0  0  0  0  0  0  0  0  0  0  0  0
   12.7201   46.1755    2.9291 C   0  0  0  0  0  0  0  0  0  0  0  0
   12.5369   45.3366    4.0076 C   0  0  0  0  0  0  0  0  0  0  0  0
   11.2076   44.9801    3.9275 C   0  0  0  0  0  0  0  0  0  0  0  0
   10.4645   44.0968    4.8675 C   0  0  0  0  0  0  0  0  0  0  0  0
   14.2175   42.5404    6.6604 C   0  0  0  0  0  0  0  0  0  0  0  0
   14.0561   41.2292    7.0436 C   0  0  0  0  0  0  0  0  0  0  0  0
   15.1533   39.7688    8.7262 C   0  0  0  0  0  0  0  0  0  0  0  0
   14.5263   39.8541   10.1088 C   0  0  1  0  0  0  0  0  0  0  0  0
   12.9906   39.8509   10.0044 C   0  0  0  0  0  0  0  0  0  0  0  0
   12.3548   38.9317   11.0505 C   0  0  0  0  0  0  0  0  0  0  0  0
   13.0761   39.0263   12.3974 C   0  0  0  0  0  0  0  0  0  0  0  0
   14.6022   39.0915   12.2222 C   0  0  0  0  0  0  0  0  0  0  0  0
   15.2365   43.0854    7.4187 C   0  0  0  0  0  0  0  0  0  0  0  0
   10.6480   45.5735    2.8556 N   0  0  0  0  0  0  0  0  0  0  0  0
   13.4515   43.2043    5.6553 N   0  0  0  0  0  0  0  0  0  0  0  0
   14.9710   41.0188    8.0060 N   0  0  0  0  0  0  0  0  0  0  0  0
   15.6772   42.1139    8.2417 N   0  0  0  0  0  0  0  0  0  0  0  0
   11.5818   46.2794    2.2827 O   0  0  0  0  0  0  0  0  0  0  0  0
   13.5310   45.7339    6.4451 O   0  0  0  0  0  0  0  0  0  0  0  0
   15.1003   45.0213    4.6905 O   0  0  0  0  0  0  0  0  0  0  0  0
   14.9843   38.7870   10.9024 O   0  0  0  0  0  0  0  0  0  0  0  0
   13.7077   44.8637    5.2329 S   0  0  0  0  0  0  0  0  0  0  0  0
  1  2  1  0
  2 19  1  0
  3  4  1  0
  5  4  1  0
  7 17  1  0
  8 17  1  0
  9  8  1  6
  9 10  1  0
  9 22  1  0
 10 11  1  0
 11 12  1  0
 12 13  1  0
 13 22  1  0
 14  6  1  0
 15 19  1  0
 16  6  1  0
 17 18  1  0
 23  3  1  0
 23 16  1  0
  2  3  2  0
  4 15  2  0
  6  7  2  0
 14 18  2  0
 23 20  2  0
 23 21  2  0
M  END
>  <rmsd>  (648) 
0.228201985

$$$$
MolPort-010-852-089 41108806 ChemDiv-G952-0652 MCULE-7816905175 PubChem-52103581 ZINC000041108806
     RDKit          3D

 27 32  0  0  0  0  0  0  0  0999 V2000
   15.0453   44.8757    4.7661 O   0  0  0  0  0  0  0  0  0  0  0  0
   13.9423   44.2841    4.6095 C   0  0  0  0  0  0  0  0  0  0  0  0
   14.2235   42.8405    6.7064 C   0  0  0  0  0  0  0  0  0  0  0  0
   15.7261   42.2809    8.4531 C   0  0  0  0  0  0  0  0  0  0  0  0
   14.6387   40.8958    9.5974 C   0  0  0  0  0  0  0  0  0  0  0  0
   13.5486   39.9987   10.0825 C   0  0  0  0  0  0  0  0  0  0  0  0
   13.0551   40.4452   11.4684 C   0  0  0  0  0  0  0  0  0  0  0  0
   13.6927   39.6220   12.5856 C   0  0  0  0  0  0  0  0  0  0  0  0
   13.3570   38.1314   12.4433 C   0  0  0  0  0  0  0  0  0  0  0  0
   13.1874   37.6736   10.9876 C   0  0  0  0  0  0  0  0  0  0  0  0
   14.0071   38.5345   10.0316 C   0  0  0  0  0  0  0  0  0  0  0  0
   13.0445   44.6577    3.4603 C   0  0  2  0  0  0  0  0  0  0  0  0
   13.8503   45.3030    2.3115 C   0  0  0  0  0  0  0  0  0  0  0  0
   12.9143   45.6956    1.1575 C   0  0  1  0  0  0  0  0  0  0  0  0
   12.2043   44.4378    0.6328 C   0  0  0  0  0  0  0  0  0  0  0  0
   11.3876   43.7876    1.7606 C   0  0  2  0  0  0  0  0  0  0  0  0
   10.3437   44.7919    2.2745 C   0  0  0  0  0  0  0  0  0  0  0  0
   11.0443   46.0526    2.8055 C   0  0  2  0  0  0  0  0  0  0  0  0
   11.8644   46.6923    1.6738 C   0  0  0  0  0  0  0  0  0  0  0  0
   11.9870   45.6617    3.9547 C   0  0  0  0  0  0  0  0  0  0  0  0
   12.3314   43.4046    2.9116 C   0  0  0  0  0  0  0  0  0  0  0  0
   13.4950   43.3139    5.5674 N   0  0  0  0  0  0  0  0  0  0  0  0
   13.6860   41.9356    7.5730 N   0  0  0  0  0  0  0  0  0  0  0  0
   14.5740   41.6730    8.5173 N   0  0  0  0  0  0  0  0  0  0  0  0
   16.5544   41.9348    9.4530 N   0  0  0  0  0  0  0  0  0  0  0  0
   15.8585   41.0521   10.1817 N   0  0  0  0  0  0  0  0  0  0  0  0
   15.8369   43.3062    7.1345 S   0  0  0  0  0  0  0  0  0  0  0  0
  2 22  1  0
  3 27  1  0
  4 27  1  0
  5 24  1  0
  6  5  1  0
  6  7  1  0
  7  8  1  0
  8  9  1  0
  9 10  1  0
 10 11  1  0
 11  6  1  0
 12  2  1  1
 12 13  1  0
 14 13  1  1
 14 15  1  0
 16 15  1  6
 16 17  1  0
 16 21  1  0
 18 17  1  6
 18 19  1  0
 18 20  1  0
 19 14  1  0
 20 12  1  0
 21 12  1  0
 22  3  1  0
 24 23  1  0
 24  4  1  0
 25 26  1  0
  2  1  2  0
  3 23  2  0
  4 25  2  0
  5 26  2  0
M  END
>  <rmsd>  (649) 
0.227660626

$$$$
MolPort-010-852-202 41108814 ChemDiv-G952-1317 MCULE-6535544697 PubChem-52103589 ZINC000041108814
     RDKit          3D

 27 30  0  0  0  0  0  0  0  0999 V2000
   14.5843   41.6502    8.5049 N   0  0  0  0  0  0  0  0  0  0  0  0
   13.6997   41.9055    7.5551 N   0  0  0  0  0  0  0  0  0  0  0  0
   16.5403   41.9598    9.4768 N   0  0  0  0  0  0  0  0  0  0  0  0
   15.8562   41.0538   10.1879 N   0  0  0  0  0  0  0  0  0  0  0  0
   13.4947   43.3122    5.5705 N   0  0  0  0  0  0  0  0  0  0  0  0
   14.2247   42.8355    6.7074 C   0  0  0  0  0  0  0  0  0  0  0  0
   15.7210   42.2887    8.4637 C   0  0  0  0  0  0  0  0  0  0  0  0
   14.6520   40.8670    9.5807 C   0  0  0  0  0  0  0  0  0  0  0  0
   13.5731   39.9478   10.0487 C   0  0  0  0  0  0  0  0  0  0  0  0
   14.0867   38.5014   10.0860 C   0  0  0  0  0  0  0  0  0  0  0  0
   13.2379   37.6478   11.0230 C   0  0  0  0  0  0  0  0  0  0  0  0
   13.2953   38.1674   12.4668 C   0  0  0  0  0  0  0  0  0  0  0  0
   13.5865   39.6706   12.5698 C   0  0  0  0  0  0  0  0  0  0  0  0
   12.9922   40.4330   11.3870 C   0  0  0  0  0  0  0  0  0  0  0  0
   13.9338   44.3014    4.6327 C   0  0  0  0  0  0  0  0  0  0  0  0
   13.0651   44.6416    3.4709 C   0  0  0  0  0  0  0  0  0  0  0  0
   14.1206   43.3695    1.6150 C   0  0  0  0  0  0  0  0  0  0  0  0
   15.2103   44.2517    1.5266 C   0  0  0  0  0  0  0  0  0  0  0  0
   16.2386   44.0121    0.6106 C   0  0  0  0  0  0  0  0  0  0  0  0
   17.3885   44.9491    0.5230 C   0  0  0  0  0  0  0  0  0  0  0  0
   16.1841   42.8920   -0.2228 C   0  0  0  0  0  0  0  0  0  0  0  0
   15.1016   42.0118   -0.1404 C   0  0  0  0  0  0  0  0  0  0  0  0
   15.0436   40.8209   -1.0266 C   0  0  0  0  0  0  0  0  0  0  0  0
   14.0730   42.2517    0.7756 C   0  0  0  0  0  0  0  0  0  0  0  0
   15.8195   43.3384    7.1633 S   0  0  0  0  0  0  0  0  0  0  0  0
   13.0747   43.5809    2.5203 O   0  0  0  0  0  0  0  0  0  0  0  0
   15.0447   44.8791    4.7626 O   0  0  0  0  0  0  0  0  0  0  0  0
  1  2  1  0
  3  4  1  0
  5 15  1  0
  6 25  1  0
  6  5  1  0
  7 25  1  0
  7  1  1  0
  8  1  1  0
  9  8  1  0
  9 10  1  0
 10 11  1  0
 11 12  1  0
 12 13  1  0
 13 14  1  0
 14  9  1  0
 16 15  1  0
 16 26  1  0
 17 26  1  0
 18 19  2  0
 20 19  1  0
 21 22  2  0
 23 22  1  0
 24 17  2  0
  6  2  2  0
  7  3  2  0
  8  4  2  0
 15 27  2  0
 17 18  1  0
 19 21  1  0
 22 24  1  0
M  END
>  <rmsd>  (650) 
0.227589503

$$$$
MolPort-008-385-482 10773408 CSSS00160349912 MCULE-6486063186 PubChem-41656383 ZINC000010773408 ZINC10773408
     RDKit          3D

 24 26  0  0  0  0  0  0  0  0999 V2000
   13.1831   39.2705   11.1661 C   0  0  0  0  0  0  0  0  0  0  0  0
   15.0283   40.8567   11.6300 C   0  0  0  0  0  0  0  0  0  0  0  0
   16.2993   41.3515   11.2860 C   0  0  0  0  0  0  0  0  0  0  0  0
   17.0564   40.7728   10.1305 C   0  0  0  0  0  0  0  0  0  0  0  0
   17.2713   41.8074    9.0286 C   0  0  0  0  0  0  0  0  0  0  0  0
   16.0537   42.0367    8.1871 C   0  0  0  0  0  0  0  0  0  0  0  0
   14.3734   42.7338    6.6191 C   0  0  0  0  0  0  0  0  0  0  0  0
   13.8669   44.3619    4.7091 C   0  0  0  0  0  0  0  0  0  0  0  0
   12.8747   44.8305    3.7256 C   0  0  0  0  0  0  0  0  0  0  0  0
   11.6018   44.2438    3.6682 C   0  0  0  0  0  0  0  0  0  0  0  0
   10.6598   44.6877    2.7355 C   0  0  0  0  0  0  0  0  0  0  0  0
   10.9836   45.7216    1.8529 C   0  0  0  0  0  0  0  0  0  0  0  0
   12.2492   46.3118    1.9028 C   0  0  0  0  0  0  0  0  0  0  0  0
   13.1913   45.8681    2.8356 C   0  0  0  0  0  0  0  0  0  0  0  0
   16.8759   42.3801   12.0431 C   0  0  0  0  0  0  0  0  0  0  0  0
   16.1885   42.9288   13.1279 C   0  0  0  0  0  0  0  0  0  0  0  0
   14.9219   42.4492   13.4660 C   0  0  0  0  0  0  0  0  0  0  0  0
   14.3446   41.4174   12.7222 C   0  0  0  0  0  0  0  0  0  0  0  0
   14.4658   39.8135   10.8848 O   0  0  0  0  0  0  0  0  0  0  0  0
   15.0074   44.8981    4.7501 O   0  0  0  0  0  0  0  0  0  0  0  0
   14.8960   41.3448    8.2953 N   0  0  0  0  0  0  0  0  0  0  0  0
   13.9640   41.7327    7.4265 N   0  0  0  0  0  0  0  0  0  0  0  0
   13.5265   43.3001    5.6118 N   0  0  0  0  0  0  0  0  0  0  0  0
   15.9619   43.1894    6.9645 S   0  0  0  0  0  0  0  0  0  0  0  0
  1 19  1  0
  2 19  1  0
  3 15  2  0
  4  3  1  0
  4  5  1  0
  5  6  1  0
  6 24  1  0
  7 23  1  0
  7 24  1  0
  8  9  1  0
 10 11  2  0
 12 13  2  0
 14  9  2  0
 16 17  2  0
 18  2  2  0
 21 22  1  0
 23  8  1  0
  2  3  1  0
  6 21  2  0
  7 22  2  0
  8 20  2  0
  9 10  1  0
 11 12  1  0
 13 14  1  0
 15 16  1  0
 17 18  1  0
M  END
>  <rmsd>  (651) 
0.227145448

$$$$
MolPort-002-716-149 4580359 CSSS00132972401 ChemDiv-8013-0823 MCULE-3996002319 PubChem-135403603 ZINC000004580359 ZINC04580359
     RDKit          3D

 24 25  0  0  0  0  0  0  0  0999 V2000
    9.2956   41.3901    5.7392 C   0  0  0  0  0  0  0  0  0  0  0  0
   10.2601   41.3664    6.8689 C   0  0  0  0  0  0  0  0  0  0  0  0
   12.6804   41.0426    7.5792 C   0  0  0  0  0  0  0  0  0  0  0  0
   11.3108   38.3562    9.6002 C   0  0  0  0  0  0  0  0  0  0  0  0
   11.0336   39.0530   10.8906 C   0  0  0  0  0  0  0  0  0  0  0  0
   12.0784   39.3743   11.7710 C   0  0  0  0  0  0  0  0  0  0  0  0
   11.8027   40.0542   12.9615 C   0  0  0  0  0  0  0  0  0  0  0  0
   10.4897   40.4192   13.2731 C   0  0  0  0  0  0  0  0  0  0  0  0
    9.4497   40.1069   12.3933 C   0  0  0  0  0  0  0  0  0  0  0  0
    9.7218   39.4274   11.2024 C   0  0  0  0  0  0  0  0  0  0  0  0
   13.9429   41.7948    7.5120 C   0  0  0  0  0  0  0  0  0  0  0  0
   14.2988   42.7872    6.6315 C   0  0  0  0  0  0  0  0  0  0  0  0
   13.9025   44.3492    4.6727 C   0  0  0  0  0  0  0  0  0  0  0  0
   12.9698   44.8021    3.6085 C   0  0  0  0  0  0  0  0  0  0  0  0
    9.8357   41.4690    8.0504 O   0  0  0  0  0  0  0  0  0  0  0  0
   11.4407   39.3033    8.5522 O   0  0  0  0  0  0  0  0  0  0  0  0
   15.8946   42.4717    7.9626 O   0  0  0  0  0  0  0  0  0  0  0  0
   15.0375   44.8858    4.7721 O   0  0  0  0  0  0  0  0  0  0  0  0
   11.6621   41.2822    6.5964 N   0  0  0  0  0  0  0  0  0  0  0  0
   12.5445   40.1242    8.4875 N   0  0  0  0  0  0  0  0  0  0  0  0
   14.9832   41.6201    8.3469 N   0  0  0  0  0  0  0  0  0  0  0  0
   15.5400   43.1986    6.9390 N   0  0  0  0  0  0  0  0  0  0  0  0
   13.4957   43.3101    5.5677 N   0  0  0  0  0  0  0  0  0  0  0  0
   13.3582   39.0321   11.4794 F   0  0  0  0  0  0  0  0  0  0  0  0
  1  2  1  0
  2 19  1  0
  3 11  1  0
  4 16  1  0
  4  5  1  0
  6 24  1  0
  6  7  2  0
  8  9  2  0
 10  5  2  0
 12 23  1  0
 12 11  1  0
 14 13  1  0
 17 22  1  0
 19  3  1  0
 20 16  1  0
 21 17  1  0
 23 13  1  0
  2 15  2  0
  3 20  2  0
  5  6  1  0
  7  8  1  0
  9 10  1  0
 11 21  2  0
 12 22  2  0
 13 18  2  0
M  END
>  <rmsd>  (652) 
0.227055639

$$$$
MolPort-039-210-480 CSSS03437028746 MCULE-7076928754 PubChem-121017031
     RDKit          3D

 27 29  0  0  0  0  0  0  0  0999 V2000
    8.8498   47.5425   -0.7517 F   0  0  0  0  0  0  0  0  0  0  0  0
   11.0801   47.2451   -0.7099 F   0  0  0  0  0  0  0  0  0  0  0  0
   10.0972   48.6802    0.7362 F   0  0  0  0  0  0  0  0  0  0  0  0
    9.9598   47.4767    0.0680 C   0  0  0  0  0  0  0  0  0  0  0  0
   10.7244   46.0694    1.9841 C   0  0  0  0  0  0  0  0  0  0  0  0
   11.9392   46.7609    2.1242 C   0  0  0  0  0  0  0  0  0  0  0  0
   12.8528   46.3882    3.1139 C   0  0  0  0  0  0  0  0  0  0  0  0
   12.5621   45.3212    3.9700 C   0  0  0  0  0  0  0  0  0  0  0  0
   11.3522   44.6326    3.8361 C   0  0  0  0  0  0  0  0  0  0  0  0
   10.4385   45.0054    2.8461 C   0  0  0  0  0  0  0  0  0  0  0  0
   14.2162   42.5409    6.6517 C   0  0  0  0  0  0  0  0  0  0  0  0
   14.0551   41.2310    7.0398 C   0  0  0  0  0  0  0  0  0  0  0  0
   15.1605   39.7739    8.7201 C   0  0  0  0  0  0  0  0  0  0  0  0
   14.5435   39.8643   10.1068 C   0  0  1  0  0  0  0  0  0  0  0  0
   13.0070   39.8636   10.0133 C   0  0  0  0  0  0  0  0  0  0  0  0
   12.3769   38.9484   11.0663 C   0  0  0  0  0  0  0  0  0  0  0  0
   13.1079   39.0452   12.4078 C   0  0  0  0  0  0  0  0  0  0  0  0
   14.6328   39.1076   12.2217 C   0  0  0  0  0  0  0  0  0  0  0  0
   15.2403   43.0866    7.4026 C   0  0  0  0  0  0  0  0  0  0  0  0
    9.7855   46.4147    1.0035 O   0  0  0  0  0  0  0  0  0  0  0  0
   13.5007   45.7357    6.4227 O   0  0  0  0  0  0  0  0  0  0  0  0
   15.1046   45.0211    4.6968 O   0  0  0  0  0  0  0  0  0  0  0  0
   15.0051   38.7985   10.9002 O   0  0  0  0  0  0  0  0  0  0  0  0
   13.7040   44.8605    5.2184 S   0  0  0  0  0  0  0  0  0  0  0  0
   13.4453   43.2030    5.6492 N   0  0  0  0  0  0  0  0  0  0  0  0
   14.9753   41.0221    7.9976 N   0  0  0  0  0  0  0  0  0  0  0  0
   15.6844   42.1169    8.2259 N   0  0  0  0  0  0  0  0  0  0  0  0
  4  1  1  0
  4  2  1  0
  4  3  1  0
  4 20  1  0
  5 20  1  0
  6  7  2  0
  8  9  2  0
 10  5  2  0
 12 26  1  0
 13 26  1  0
 14 13  1  6
 14 15  1  0
 14 23  1  0
 15 16  1  0
 16 17  1  0
 17 18  1  0
 18 23  1  0
 19 11  1  0
 24  8  1  0
 24 25  1  0
 25 11  1  0
 26 27  1  0
  5  6  1  0
  7  8  1  0
  9 10  1  0
 11 12  2  0
 19 27  2  0
 24 21  2  0
 24 22  2  0
M  END
>  <rmsd>  (653) 
0.227036342

$$$$
MolPort-039-210-479 CSSS03437018559 MCULE-2838403596 PubChem-119099794
     RDKit          3D

 24 26  0  0  0  0  0  0  0  0999 V2000
    9.8508   46.4448    1.0293 F   0  0  0  0  0  0  0  0  0  0  0  0
   10.7297   46.0726    1.9922 C   0  0  0  0  0  0  0  0  0  0  0  0
   10.4500   44.9843    2.8302 C   0  0  0  0  0  0  0  0  0  0  0  0
   11.3662   44.6129    3.8187 C   0  0  0  0  0  0  0  0  0  0  0  0
   12.5622   45.3222    3.9724 C   0  0  0  0  0  0  0  0  0  0  0  0
   12.8379   46.4100    3.1372 C   0  0  0  0  0  0  0  0  0  0  0  0
   11.9234   46.7837    2.1482 C   0  0  0  0  0  0  0  0  0  0  0  0
   14.2169   42.5404    6.6522 C   0  0  0  0  0  0  0  0  0  0  0  0
   14.0555   41.2306    7.0401 C   0  0  0  0  0  0  0  0  0  0  0  0
   15.1601   39.7730    8.7205 C   0  0  0  0  0  0  0  0  0  0  0  0
   14.5423   39.8634   10.1069 C   0  0  1  0  0  0  0  0  0  0  0  0
   13.0060   39.8629   10.0126 C   0  0  0  0  0  0  0  0  0  0  0  0
   12.3751   38.9477   11.0651 C   0  0  0  0  0  0  0  0  0  0  0  0
   13.1054   39.0443   12.4070 C   0  0  0  0  0  0  0  0  0  0  0  0
   14.6305   39.1063   12.2217 C   0  0  0  0  0  0  0  0  0  0  0  0
   15.2410   43.0859    7.4033 C   0  0  0  0  0  0  0  0  0  0  0  0
    8.9588   44.0790    2.6550 Cl  0  0  0  0  0  0  0  0  0  0  0  0
   13.7053   44.8603    5.2192 S   0  0  0  0  0  0  0  0  0  0  0  0
   15.1051   45.0209    4.6959 O   0  0  0  0  0  0  0  0  0  0  0  0
   13.5034   45.7349    6.4243 O   0  0  0  0  0  0  0  0  0  0  0  0
   15.0034   38.7974   10.9004 O   0  0  0  0  0  0  0  0  0  0  0  0
   13.4463   43.2028    5.6496 N   0  0  0  0  0  0  0  0  0  0  0  0
   14.9756   41.0214    7.9980 N   0  0  0  0  0  0  0  0  0  0  0  0
   15.6849   42.1160    8.2266 N   0  0  0  0  0  0  0  0  0  0  0  0
  2  1  1  0
  3 17  1  0
  3  4  2  0
  5  6  2  0
  7  2  2  0
  9 23  1  0
 10 23  1  0
 11 10  1  6
 11 12  1  0
 11 21  1  0
 12 13  1  0
 13 14  1  0
 14 15  1  0
 15 21  1  0
 16  8  1  0
 18  5  1  0
 18 22  1  0
 22  8  1  0
 23 24  1  0
  2  3  1  0
  4  5  1  0
  6  7  1  0
  8  9  2  0
 16 24  2  0
 18 19  2  0
 18 20  2  0
M  END
>  <rmsd>  (654) 
0.226950809

$$$$
Molport-051-982-927 MCULE-8994215766
     RDKit          3D

 23 25  0  0  0  0  0  0  0  0999 V2000
   10.3669   49.2579    4.1664 C   0  0  0  0  0  0  0  0  0  0  0  0
   11.7599   49.4194    3.5779 C   0  0  0  0  0  0  0  0  0  0  0  0
   13.4642   48.3306    2.4696 C   0  0  0  0  0  0  0  0  0  0  0  0
   13.9322   46.9878    1.9115 C   0  0  0  0  0  0  0  0  0  0  0  0
   14.0753   45.9723    3.0014 C   0  0  0  0  0  0  0  0  0  0  0  0
   13.8625   44.3019    4.7071 C   0  0  0  0  0  0  0  0  0  0  0  0
   14.3272   42.7602    6.6648 C   0  0  0  0  0  0  0  0  0  0  0  0
   14.9120   41.4296    8.4767 C   0  0  0  0  0  0  0  0  0  0  0  0
   13.5986   39.7954    9.5387 C   0  0  0  0  0  0  0  0  0  0  0  0
   13.4776   38.7785   10.6440 C   0  0  0  0  0  0  0  0  0  0  0  0
   13.0061   39.4376   11.9362 C   0  0  0  0  0  0  0  0  0  0  0  0
   12.5249   40.0819    8.6404 C   0  0  0  0  0  0  0  0  0  0  0  0
   11.2167   39.3391    8.7075 C   0  0  0  0  0  0  0  0  0  0  0  0
   12.7072   41.0628    7.6398 C   0  0  0  0  0  0  0  0  0  0  0  0
   13.9260   41.7428    7.5695 C   0  0  0  0  0  0  0  0  0  0  0  0
   12.1737   48.1882    3.0264 O   0  0  0  0  0  0  0  0  0  0  0  0
   15.1730   45.8650    3.7832 N   0  0  0  0  0  0  0  0  0  0  0  0
   15.0577   44.9331    4.7276 N   0  0  0  0  0  0  0  0  0  0  0  0
   13.4774   43.2651    5.6195 N   0  0  0  0  0  0  0  0  0  0  0  0
   15.5938   43.2339    6.8566 N   0  0  0  0  0  0  0  0  0  0  0  0
   14.7701   40.4906    9.4385 N   0  0  0  0  0  0  0  0  0  0  0  0
   16.2228   42.3908    8.1519 S   0  0  0  0  0  0  0  0  0  0  0  0
   12.8702   44.8955    3.4831 S   0  0  0  0  0  0  0  0  0  0  0  0
  1  2  1  0
  2 16  1  0
  3 16  1  0
  3  4  1  0
  4  5  1  0
  5 23  1  0
  6 19  1  0
  6 23  1  0
  8 22  1  0
  9 21  2  0
 10  9  1  0
 10 11  1  0
 12 14  2  0
 13 12  1  0
 15  7  1  0
 15  8  2  0
 17 18  1  0
 19  7  1  0
 20 22  1  0
  5 17  2  0
  6 18  2  0
  7 20  2  0
  8 21  1  0
  9 12  1  0
 14 15  1  0
M  END
>  <rmsd>  (655) 
0.226901874

$$$$
MolPort-046-061-713 MCULE-4990245677 PubChem-132448873
     RDKit          3D

 26 29  0  0  0  0  0  0  0  0999 V2000
   17.1947   42.4962    8.5861 C   0  0  0  0  0  0  0  0  0  0  0  0
   14.2963   42.6934    6.5330 C   0  0  0  0  0  0  0  0  0  0  0  0
   13.8689   44.4390    4.7497 C   0  0  0  0  0  0  0  0  0  0  0  0
   12.8834   45.0388    3.7968 C   0  0  0  0  0  0  0  0  0  0  0  0
   11.8862   45.8836    4.5716 C   0  0  0  0  0  0  0  0  0  0  0  0
   12.9896   46.5566    3.7855 C   0  0  0  0  0  0  0  0  0  0  0  0
   13.9905   41.5306    7.2064 C   0  0  0  0  0  0  0  0  0  0  0  0
   15.0587   41.3211    8.0368 C   0  0  0  0  0  0  0  0  0  0  0  0
   15.1568   40.1650    8.9823 C   0  0  0  0  0  0  0  0  0  0  0  0
   14.2689   39.0182    8.4761 C   0  0  0  0  0  0  0  0  0  0  0  0
   12.8608   40.5663    7.0353 C   0  0  0  0  0  0  0  0  0  0  0  0
   11.7502   38.9099    8.5673 C   0  0  0  0  0  0  0  0  0  0  0  0
   11.8081   37.8909    9.6623 C   0  0  0  0  0  0  0  0  0  0  0  0
   11.2879   38.4513   10.9467 C   0  0  0  0  0  0  0  0  0  0  0  0
   12.1432   39.1098   11.8464 C   0  0  0  0  0  0  0  0  0  0  0  0
   11.6403   39.6087   13.0533 C   0  0  0  0  0  0  0  0  0  0  0  0
   10.2861   39.4599   13.3616 C   0  0  0  0  0  0  0  0  0  0  0  0
    9.4310   38.8132   12.4629 C   0  0  0  0  0  0  0  0  0  0  0  0
    9.9313   38.3097   11.2582 C   0  0  0  0  0  0  0  0  0  0  0  0
   15.9322   42.3344    7.8871 N   0  0  0  0  0  0  0  0  0  0  0  0
   15.4826   43.1775    6.9673 N   0  0  0  0  0  0  0  0  0  0  0  0
   13.4771   43.3104    5.5349 N   0  0  0  0  0  0  0  0  0  0  0  0
   12.9488   39.5203    8.0643 N   0  0  0  0  0  0  0  0  0  0  0  0
   15.0471   44.8891    4.8167 O   0  0  0  0  0  0  0  0  0  0  0  0
   10.6295   39.2201    8.0812 O   0  0  0  0  0  0  0  0  0  0  0  0
   13.4593   39.2579   11.5656 F   0  0  0  0  0  0  0  0  0  0  0  0
  1 20  1  0
  2 22  1  0
  2  7  1  0
  4  3  1  0
  4  5  1  0
  5  6  1  0
  6  4  1  0
  8 20  1  0
  9  8  1  0
  9 10  1  0
 10 23  1  0
 11 23  1  0
 11  7  1  0
 13 12  1  0
 13 14  1  0
 15 26  1  0
 15 16  2  0
 17 18  2  0
 19 14  2  0
 20 21  1  0
 22  3  1  0
 23 12  1  0
  2 21  2  0
  3 24  2  0
  7  8  2  0
 12 25  2  0
 14 15  1  0
 16 17  1  0
 18 19  1  0
M  END
>  <rmsd>  (656) 
0.226892784

$$$$
MolPort-005-144-839 12074362 CHEMBL1581486 CSSS00160033359 MCULE-7110591329 PubChem-24790783 ZINC000012074362
     RDKit          3D

 33 36  0  0  0  0  0  0  0  0999 V2000
   17.0265   38.1413   10.7975 C   0  0  0  0  0  0  0  0  0  0  0  0
   14.5884   38.5338   10.6628 C   0  0  0  0  0  0  0  0  0  0  0  0
   13.3726   38.2288   10.0435 C   0  0  0  0  0  0  0  0  0  0  0  0
   12.1916   38.8702   10.4357 C   0  0  0  0  0  0  0  0  0  0  0  0
   10.8970   38.5277    9.7533 C   0  0  0  0  0  0  0  0  0  0  0  0
   10.4434   40.7645    8.7888 C   0  0  0  0  0  0  0  0  0  0  0  0
   11.7745   41.5147    8.8074 C   0  0  0  0  0  0  0  0  0  0  0  0
   12.5615   41.2291    7.5374 C   0  0  0  0  0  0  0  0  0  0  0  0
   12.7848   39.7311    7.3955 C   0  0  0  0  0  0  0  0  0  0  0  0
   11.4495   38.9889    7.3907 C   0  0  0  0  0  0  0  0  0  0  0  0
   15.8157   42.5302    8.2182 C   0  0  0  0  0  0  0  0  0  0  0  0
   15.5367   43.2772    7.0784 C   0  0  0  0  0  0  0  0  0  0  0  0
   14.2729   42.8493    6.7170 C   0  0  0  0  0  0  0  0  0  0  0  0
   13.9198   44.2968    4.6512 C   0  0  0  0  0  0  0  0  0  0  0  0
   13.0049   44.6779    3.5427 C   0  0  0  0  0  0  0  0  0  0  0  0
   12.0554   45.7671    4.0104 C   0  0  0  0  0  0  0  0  0  0  0  0
   11.1354   46.1945    2.8760 C   0  0  0  0  0  0  0  0  0  0  0  0
   11.8586   47.0303    1.8714 C   0  0  0  0  0  0  0  0  0  0  0  0
   12.0235   46.5550    0.5658 C   0  0  0  0  0  0  0  0  0  0  0  0
   12.6885   47.3348   -0.3855 C   0  0  0  0  0  0  0  0  0  0  0  0
   13.1864   48.5933   -0.0339 C   0  0  0  0  0  0  0  0  0  0  0  0
   13.0176   49.0734    1.2685 C   0  0  0  0  0  0  0  0  0  0  0  0
   12.3524   48.2942    2.2200 C   0  0  0  0  0  0  0  0  0  0  0  0
   12.2246   39.8020   11.4854 C   0  0  0  0  0  0  0  0  0  0  0  0
   13.4372   40.1101   12.1078 C   0  0  0  0  0  0  0  0  0  0  0  0
   14.6155   39.4823   11.6973 C   0  0  0  0  0  0  0  0  0  0  0  0
   15.7484   37.8848   10.2319 O   0  0  0  0  0  0  0  0  0  0  0  0
   15.0349   44.8727    4.7599 O   0  0  0  0  0  0  0  0  0  0  0  0
   10.6061   39.3222    8.5485 N   0  0  0  0  0  0  0  0  0  0  0  0
   13.8440   41.9203    7.5817 N   0  0  0  0  0  0  0  0  0  0  0  0
   14.7739   41.7185    8.4982 N   0  0  0  0  0  0  0  0  0  0  0  0
   13.5042   43.3041    5.5956 N   0  0  0  0  0  0  0  0  0  0  0  0
   11.0883   40.4132   11.9037 F   0  0  0  0  0  0  0  0  0  0  0  0
  1 27  1  0
  2 27  1  0
  3  4  2  0
  5  4  1  0
  5 29  1  0
  6 29  1  0
  6  7  1  0
  7  8  1  0
  8  9  1  0
  8 30  1  0
  9 10  1  0
 10 29  1  0
 11 12  1  0
 13 32  1  0
 13 30  1  0
 15 14  1  0
 15 16  1  0
 16 17  1  0
 17 18  1  0
 19 20  2  0
 21 22  2  0
 23 18  2  0
 24 33  1  0
 24 25  2  0
 26  2  2  0
 30 31  1  0
 32 14  1  0
  2  3  1  0
  4 24  1  0
 11 31  2  0
 12 13  2  0
 14 28  2  0
 18 19  1  0
 20 21  1  0
 22 23  1  0
 25 26  1  0
M  END
>  <rmsd>  (657) 
0.226720124

$$$$
MolPort-003-049-136 11758562 CSSS03437040344 MCULE-6217627162 PubChem-18554452 ZINC000011758562 ZINC11758562
     RDKit          3D

 28 31  0  0  0  0  0  0  0  0999 V2000
   16.7118   42.4743    9.1891 C   0  0  0  0  0  0  0  0  0  0  0  0
   15.5772   42.4053    8.2319 C   0  0  0  0  0  0  0  0  0  0  0  0
   15.3458   43.2919    7.1991 C   0  0  0  0  0  0  0  0  0  0  0  0
   14.1881   42.7687    6.6458 C   0  0  0  0  0  0  0  0  0  0  0  0
   13.8995   44.4031    4.7181 C   0  0  0  0  0  0  0  0  0  0  0  0
   12.9422   45.0069    3.7494 C   0  0  0  0  0  0  0  0  0  0  0  0
   11.4369   46.0170    5.6809 C   0  0  0  0  0  0  0  0  0  0  0  0
   11.9596   45.9267    6.9626 C   0  0  0  0  0  0  0  0  0  0  0  0
   11.5843   44.9566   10.3992 C   0  0  0  0  0  0  0  0  0  0  0  0
   12.0997   43.5747   10.6098 C   0  0  0  0  0  0  0  0  0  0  0  0
   11.3865   42.4760   10.1173 C   0  0  0  0  0  0  0  0  0  0  0  0
   11.8763   41.1808   10.3102 C   0  0  0  0  0  0  0  0  0  0  0  0
   13.0803   40.9835   10.9934 C   0  0  0  0  0  0  0  0  0  0  0  0
   13.7979   42.0813   11.4784 C   0  0  0  0  0  0  0  0  0  0  0  0
   13.3090   43.3766   11.2845 C   0  0  0  0  0  0  0  0  0  0  0  0
   11.2121   45.4243    7.9641 C   0  0  0  0  0  0  0  0  0  0  0  0
    9.4076   45.0852    6.5361 C   0  0  0  0  0  0  0  0  0  0  0  0
   13.4680   43.3084    5.5331 N   0  0  0  0  0  0  0  0  0  0  0  0
   13.1757   46.2486    7.4440 N   0  0  0  0  0  0  0  0  0  0  0  0
   13.1397   45.9325    8.7409 N   0  0  0  0  0  0  0  0  0  0  0  0
   11.9520   45.4354    9.0761 N   0  0  0  0  0  0  0  0  0  0  0  0
    9.9400   44.9932    7.7941 N   0  0  0  0  0  0  0  0  0  0  0  0
   10.1503   45.5919    5.4964 N   0  0  0  0  0  0  0  0  0  0  0  0
   13.7806   41.6732    7.3106 N   0  0  0  0  0  0  0  0  0  0  0  0
   15.0651   44.8707    4.8197 O   0  0  0  0  0  0  0  0  0  0  0  0
   14.6469   41.4826    8.2582 O   0  0  0  0  0  0  0  0  0  0  0  0
   12.4005   46.6554    4.3104 S   0  0  0  0  0  0  0  0  0  0  0  0
   13.6982   39.3633   11.2267 Cl  0  0  0  0  0  0  0  0  0  0  0  0
  1  2  1  0
  2 26  1  0
  3  4  1  0
  4 18  1  0
  6  5  1  0
  6 27  1  0
  7 27  1  0
  7 23  2  0
  8 19  1  0
  9 21  1  0
  9 10  1  0
 11 12  2  0
 13 28  1  0
 13 14  2  0
 15 10  2  0
 16  8  2  0
 17 22  2  0
 18  5  1  0
 21 20  1  0
 21 16  1  0
 24 26  1  0
  2  3  2  0
  4 24  2  0
  5 25  2  0
  7  8  1  0
 10 11  1  0
 12 13  1  0
 14 15  1  0
 16 22  1  0
 17 23  1  0
 19 20  2  0
M  END
>  <rmsd>  (658) 
0.225296423

$$$$
MolPort-007-714-528 ChemDiv-E002-1850 MCULE-6371993484 PubChem-22510837 ZINC000006792968 ZINC06792968
     RDKit          3D

 26 27  0  0  0  0  0  0  0  0999 V2000
   13.4526   38.2418   11.5510 C   0  0  0  0  0  0  0  0  0  0  0  0
   14.1019   39.5407   11.1242 C   0  0  0  0  0  0  0  0  0  0  0  0
   13.0651   40.6471   11.1490 C   0  0  0  0  0  0  0  0  0  0  0  0
   14.6667   39.3827    9.7217 C   0  0  0  0  0  0  0  0  0  0  0  0
   16.8854   40.5265    9.9905 C   0  0  0  0  0  0  0  0  0  0  0  0
   17.0860   41.7995   10.8006 C   0  0  0  0  0  0  0  0  0  0  0  0
   16.3702   41.6982   12.1325 C   0  0  0  0  0  0  0  0  0  0  0  0
   18.5650   42.0059   11.0477 C   0  0  0  0  0  0  0  0  0  0  0  0
   15.2126   41.3894    8.3218 C   0  0  0  0  0  0  0  0  0  0  0  0
   14.2617   42.6899    6.5523 C   0  0  0  0  0  0  0  0  0  0  0  0
   13.8929   44.3927    4.7064 C   0  0  0  0  0  0  0  0  0  0  0  0
   13.3180   46.0542    2.8804 C   0  0  0  0  0  0  0  0  0  0  0  0
   13.2258   47.3274    3.6515 C   0  0  0  0  0  0  0  0  0  0  0  0
   14.3911   47.9623    4.0950 C   0  0  0  0  0  0  0  0  0  0  0  0
   14.3060   49.1488    4.8298 C   0  0  0  0  0  0  0  0  0  0  0  0
   13.0553   49.7012    5.1234 C   0  0  0  0  0  0  0  0  0  0  0  0
   12.9651   50.9621    5.9044 C   0  0  0  0  0  0  0  0  0  0  0  0
   11.8897   49.0665    4.6833 C   0  0  0  0  0  0  0  0  0  0  0  0
   11.9745   47.8798    3.9485 C   0  0  0  0  0  0  0  0  0  0  0  0
   15.5563   40.4891    9.3864 N   0  0  0  0  0  0  0  0  0  0  0  0
   16.0517   42.3396    7.8491 N   0  0  0  0  0  0  0  0  0  0  0  0
   15.5227   43.0633    6.8644 N   0  0  0  0  0  0  0  0  0  0  0  0
   13.4673   43.3059    5.5342 N   0  0  0  0  0  0  0  0  0  0  0  0
   12.9901   44.9184    3.7318 N   0  0  0  0  0  0  0  0  0  0  0  0
   15.0497   44.8800    4.8277 O   0  0  0  0  0  0  0  0  0  0  0  0
   13.7312   41.4120    7.5090 S   0  0  0  0  0  0  0  0  0  0  0  0
  1  2  1  0
  2  3  1  0
  2  4  1  0
  4 20  1  0
  5 20  1  0
  5  6  1  0
  6  7  1  0
  6  8  1  0
  9 26  1  0
 10 23  1  0
 10 26  1  0
 11 24  1  0
 12 24  1  0
 12 13  1  0
 14 15  2  0
 16 18  2  0
 17 16  1  0
 19 13  2  0
 20  9  1  0
 21 22  1  0
 23 11  1  0
  9 21  2  0
 10 22  2  0
 11 25  2  0
 13 14  1  0
 15 16  1  0
 18 19  1  0
M  END
>  <rmsd>  (659) 
0.225127056

$$$$
MolPort-002-603-648 2374897 CHEMBL1575533 CSSS00160651546 LN00678916 MCULE-6865837890 PubChem-662949 ZINC000002374897
     RDKit          3D

 30 34  0  0  0  0  0  0  0  0999 V2000
   15.2393   41.1341    7.9289 C   0  0  0  0  0  0  0  0  0  0  0  0
   14.2628   39.5328   10.0883 C   0  0  0  0  0  0  0  0  0  0  0  0
   13.1493   38.6960    9.9488 C   0  0  0  0  0  0  0  0  0  0  0  0
   12.1883   38.6337   10.9623 C   0  0  0  0  0  0  0  0  0  0  0  0
   12.3364   39.4117   12.1150 C   0  0  0  0  0  0  0  0  0  0  0  0
   13.4459   40.2509   12.2545 C   0  0  0  0  0  0  0  0  0  0  0  0
   14.4076   40.3123   11.2415 C   0  0  0  0  0  0  0  0  0  0  0  0
   11.3146   39.3458   13.1921 C   0  0  0  0  0  0  0  0  0  0  0  0
   15.7776   42.3658    8.2336 C   0  0  0  0  0  0  0  0  0  0  0  0
   16.8874   44.0540    9.4023 C   0  0  0  0  0  0  0  0  0  0  0  0
   17.7331   44.4771   10.4300 C   0  0  0  0  0  0  0  0  0  0  0  0
   18.0168   45.8378   10.5846 C   0  0  0  0  0  0  0  0  0  0  0  0
   17.4551   46.7808    9.7164 C   0  0  0  0  0  0  0  0  0  0  0  0
   16.6038   46.3728    8.6846 C   0  0  0  0  0  0  0  0  0  0  0  0
   16.3133   45.0171    8.5157 C   0  0  0  0  0  0  0  0  0  0  0  0
   15.2405   43.2830    7.3740 C   0  0  0  0  0  0  0  0  0  0  0  0
   13.8244   44.4932    4.8761 C   0  0  0  0  0  0  0  0  0  0  0  0
   12.7416   45.2189    4.1468 C   0  0  0  0  0  0  0  0  0  0  0  0
   12.6576   46.6514    4.6425 C   0  0  0  0  0  0  0  0  0  0  0  0
   11.6508   45.6297    5.1194 C   0  0  0  0  0  0  0  0  0  0  0  0
   14.3620   41.3813    6.8742 C   0  0  0  0  0  0  0  0  0  0  0  0
   15.4594   39.6325    8.8108 S   0  0  0  0  0  0  0  0  0  0  0  0
   16.8397   39.5863    9.4034 O   0  0  0  0  0  0  0  0  0  0  0  0
   15.3070   38.4700    7.8700 O   0  0  0  0  0  0  0  0  0  0  0  0
   15.0161   44.8922    4.7809 O   0  0  0  0  0  0  0  0  0  0  0  0
   16.5918   42.7285    9.2545 N   0  0  0  0  0  0  0  0  0  0  0  0
   15.4763   44.6111    7.5152 N   0  0  0  0  0  0  0  0  0  0  0  0
   14.3826   42.6884    6.5212 N   0  0  0  0  0  0  0  0  0  0  0  0
   13.5139   43.2955    5.5968 N   0  0  0  0  0  0  0  0  0  0  0  0
   13.4906   40.4184    6.2888 N   0  0  0  0  0  0  0  0  0  0  0  0
  1  9  1  0
  3  4  2  0
  5  6  2  0
  7  2  2  0
  8  5  1  0
 10 26  2  0
 11 12  2  0
 13 14  2  0
 15 27  2  0
 15 10  1  0
 16 28  1  0
 16  9  2  0
 18 17  1  0
 18 19  1  0
 19 20  1  0
 20 18  1  0
 21 30  1  0
 22  1  1  0
 22  2  1  0
 28 29  1  0
 28 21  1  0
 29 17  1  0
  2  3  1  0
  4  5  1  0
  6  7  1  0
  9 26  1  0
 10 11  1  0
 12 13  1  0
 14 15  1  0
 16 27  1  0
 17 25  2  0
 21  1  2  0
 22 23  2  0
 22 24  2  0
M  END
>  <rmsd>  (660) 
0.225087047

$$$$
MolPort-000-055-736 1379119 CHEMBL1402429 PubChem-1468316 ZINC000001379119 ZINC01379119
     RDKit          3D

 25 27  0  0  0  0  0  0  0  0999 V2000
   17.4101   42.5812    8.3862 C   0  0  0  0  0  0  0  0  0  0  0  0
   16.0307   42.3375    7.8785 C   0  0  0  0  0  0  0  0  0  0  0  0
   15.1632   41.3684    8.3986 C   0  0  0  0  0  0  0  0  0  0  0  0
   14.2583   42.7124    6.5561 C   0  0  0  0  0  0  0  0  0  0  0  0
   13.9004   44.3900    4.6852 C   0  0  0  0  0  0  0  0  0  0  0  0
   12.9782   44.9053    3.6689 C   0  0  0  0  0  0  0  0  0  0  0  0
   13.3141   45.9029    2.8539 C   0  0  0  0  0  0  0  0  0  0  0  0
   12.4034   46.4325    1.8298 C   0  0  0  0  0  0  0  0  0  0  0  0
   12.8417   47.4836    1.0168 C   0  0  0  0  0  0  0  0  0  0  0  0
   12.0011   48.0117    0.0321 C   0  0  0  0  0  0  0  0  0  0  0  0
   10.7163   47.4901   -0.1442 C   0  0  0  0  0  0  0  0  0  0  0  0
   10.2714   46.4401    0.6641 C   0  0  0  0  0  0  0  0  0  0  0  0
   11.1117   45.9119    1.6486 C   0  0  0  0  0  0  0  0  0  0  0  0
   15.4705   40.3815    9.4605 C   0  0  0  0  0  0  0  0  0  0  0  0
   14.7260   38.4646   10.8863 C   0  0  0  0  0  0  0  0  0  0  0  0
   14.3713   38.5461   12.3728 C   0  0  0  0  0  0  0  0  0  0  0  0
   13.0205   39.2281   12.6436 C   0  0  0  0  0  0  0  0  0  0  0  0
   12.2497   39.5677   11.3689 C   0  0  0  0  0  0  0  0  0  0  0  0
   13.1337   40.3816   10.4267 C   0  0  0  0  0  0  0  0  0  0  0  0
   13.7222   41.4514    7.5231 S   0  0  0  0  0  0  0  0  0  0  0  0
   13.4695   43.3152    5.5258 N   0  0  0  0  0  0  0  0  0  0  0  0
   15.5202   43.0832    6.8623 N   0  0  0  0  0  0  0  0  0  0  0  0
   14.4352   39.7357   10.2217 N   0  0  0  0  0  0  0  0  0  0  0  0
   15.0525   44.8878    4.8134 O   0  0  0  0  0  0  0  0  0  0  0  0
   16.6753   40.0886    9.6904 O   0  0  0  0  0  0  0  0  0  0  0  0
  1  2  1  0
  2 22  1  0
  3 20  1  0
  3 14  1  0
  4 20  1  0
  4 21  1  0
  5  6  1  0
  7  8  1  0
  9 10  2  0
 11 12  2  0
 13  8  2  0
 14 23  1  0
 15 23  1  0
 15 16  1  0
 16 17  1  0
 17 18  1  0
 18 19  1  0
 19 23  1  0
 21  5  1  0
  2  3  2  0
  4 22  2  0
  5 24  2  0
  6  7  2  0
  8  9  1  0
 10 11  1  0
 12 13  1  0
 14 25  2  0
M  END
>  <rmsd>  (661) 
0.224904731

$$$$
MolPort-001-943-897 2304980 CSSS00161035153 ChemDiv-8010-2152 MCULE-5016758089 PubChem-1923393 ZINC000002304980 ZINC02304980
     RDKit          3D

 21 22  0  0  0  0  0  0  0  0999 V2000
   12.9098   39.6397   11.1366 C   0  0  0  0  0  0  0  0  0  0  0  0
   14.0026   38.9169   11.8992 C   0  0  0  0  0  0  0  0  0  0  0  0
   14.9007   39.9203   12.6034 C   0  0  0  0  0  0  0  0  0  0  0  0
   16.1576   40.2116   11.7939 C   0  0  0  0  0  0  0  0  0  0  0  0
   15.8782   41.1903   10.6663 C   0  0  0  0  0  0  0  0  0  0  0  0
   15.6134   40.4367    9.3759 C   0  0  0  0  0  0  0  0  0  0  0  0
   15.2506   41.3897    8.2920 C   0  0  0  0  0  0  0  0  0  0  0  0
   14.2815   42.6942    6.5395 C   0  0  0  0  0  0  0  0  0  0  0  0
   13.8896   44.4000    4.6966 C   0  0  0  0  0  0  0  0  0  0  0  0
   12.9599   44.9495    3.6939 C   0  0  0  0  0  0  0  0  0  0  0  0
   13.3531   46.0138    2.8685 C   0  0  0  0  0  0  0  0  0  0  0  0
   12.4705   46.5344    1.9175 C   0  0  0  0  0  0  0  0  0  0  0  0
   11.1884   45.9945    1.7848 C   0  0  0  0  0  0  0  0  0  0  0  0
   10.7886   44.9344    2.6027 C   0  0  0  0  0  0  0  0  0  0  0  0
   11.6712   44.4139    3.5538 C   0  0  0  0  0  0  0  0  0  0  0  0
   16.0896   42.3313    7.8053 N   0  0  0  0  0  0  0  0  0  0  0  0
   15.5498   43.0597    6.8299 N   0  0  0  0  0  0  0  0  0  0  0  0
   13.4741   43.3122    5.5332 N   0  0  0  0  0  0  0  0  0  0  0  0
   15.0463   44.8892    4.8141 O   0  0  0  0  0  0  0  0  0  0  0  0
   10.3333   46.4989    0.8635 F   0  0  0  0  0  0  0  0  0  0  0  0
   13.7620   41.4179    7.5045 S   0  0  0  0  0  0  0  0  0  0  0  0
  1  2  1  0
  2  3  1  0
  3  4  1  0
  4  5  1  0
  5  6  1  0
  6  7  1  0
  7 21  1  0
  8 18  1  0
  8 21  1  0
  9 10  1  0
 11 12  2  0
 13 20  1  0
 13 14  2  0
 15 10  2  0
 16 17  1  0
 18  9  1  0
  7 16  2  0
  8 17  2  0
  9 19  2  0
 10 11  1  0
 12 13  1  0
 14 15  1  0
M  END
>  <rmsd>  (662) 
0.22465919

$$$$
Molport-053-335-138
     RDKit          3D

 15 16  0  0  0  0  0  0  0  0999 V2000
   13.1267   43.5726    2.2147 Cl  0  0  0  0  0  0  0  0  0  0  0  0
   13.0358   44.7670    3.5306 C   0  0  0  0  0  0  0  0  0  0  0  0
   13.9182   44.3382    4.6589 C   0  0  0  0  0  0  0  0  0  0  0  0
   14.3272   42.6788    6.5364 C   0  0  0  0  0  0  0  0  0  0  0  0
   15.7135   42.6122    6.5364 C   0  0  0  0  0  0  0  0  0  0  0  0
   14.9832   41.5185    8.2088 C   0  0  0  0  0  0  0  0  0  0  0  0
   14.8869   40.7423    9.3621 C   0  0  0  0  0  0  0  0  0  0  0  0
   13.6019   40.4600    9.8551 C   0  0  0  0  0  0  0  0  0  0  0  0
   12.4624   40.9551    9.1908 C   0  0  0  0  0  0  0  0  0  0  0  0
   12.6189   41.7311    8.0331 C   0  0  0  0  0  0  0  0  0  0  0  0
   15.0378   44.8958    4.8124 O   0  0  0  0  0  0  0  0  0  0  0  0
   13.4841   43.3012    5.5522 N   0  0  0  0  0  0  0  0  0  0  0  0
   16.1308   41.8800    7.5973 N   0  0  0  0  0  0  0  0  0  0  0  0
   13.8805   41.9772    7.5908 N   0  0  0  0  0  0  0  0  0  0  0  0
   13.4001   39.4025   11.4319 Br  0  0  0  0  0  0  0  0  0  0  0  0
  2  1  1  0
  2  3  1  0
  3 12  1  0
  5 13  1  0
  6  7  1  0
  8 15  1  0
  8  9  1  0
 10 14  1  0
 12  4  1  0
 14  4  1  0
 14  6  1  0
  3 11  2  0
  4  5  2  0
  6 13  2  0
  7  8  2  0
  9 10  2  0
M  END
>  <rmsd>  (663) 
0.224570632

$$$$
MolPort-035-771-294 Molport-051-903-133 44138102 MCULE-1368330722 MCULE-7034198557 PubChem-11454223 PubChem-11454224 PubChem-21874036 ZINC000044138102
     RDKit          3D

 29 32  0  0  0  0  0  0  0  0999 V2000
   12.7562   39.5889   11.8516 C   0  0  0  0  0  0  0  0  0  0  0  0
   13.5306   39.0190   10.6816 C   0  0  0  0  0  0  0  0  0  0  0  0
   14.9243   40.4492    9.2411 C   0  0  0  0  0  0  0  0  0  0  0  0
   16.1192   41.9019    7.6101 C   0  0  0  0  0  0  0  0  0  0  0  0
   15.7808   42.7156    6.6014 C   0  0  0  0  0  0  0  0  0  0  0  0
   16.7081   42.5437    5.4676 C   0  0  0  0  0  0  0  0  0  0  0  0
   17.3311   41.1297    7.2753 C   0  0  0  0  0  0  0  0  0  0  0  0
   14.3969   42.7637    6.6286 C   0  0  0  0  0  0  0  0  0  0  0  0
   13.9068   44.2868    4.6479 C   0  0  0  0  0  0  0  0  0  0  0  0
   12.9896   44.6093    3.5409 C   0  0  0  0  0  0  0  0  0  0  0  0
   13.3329   45.5857    2.5960 C   0  0  0  0  0  0  0  0  0  0  0  0
   12.4631   45.8899    1.5457 C   0  0  0  0  0  0  0  0  0  0  0  0
   11.2327   45.2248    1.4213 C   0  0  0  0  0  0  0  0  0  0  0  0
   10.8948   44.2446    2.3683 C   0  0  0  0  0  0  0  0  0  0  0  0
   11.7648   43.9404    3.4184 C   0  0  0  0  0  0  0  0  0  0  0  0
   10.6413   46.6214   -0.5959 C   0  0  0  0  0  0  0  0  0  0  0  0
   10.2180   46.2194   -2.0065 C   0  0  0  0  0  0  0  0  0  0  0  0
    8.6808   44.6061   -1.2005 C   0  0  0  0  0  0  0  0  0  0  0  0
    9.0153   44.9149    0.2568 C   0  0  0  0  0  0  0  0  0  0  0  0
    8.4879   45.4449   -3.3731 C   0  0  0  0  0  0  0  0  0  0  0  0
   13.6717   40.0124    9.6772 O   0  0  0  0  0  0  0  0  0  0  0  0
   15.9775   39.9661    9.7412 O   0  0  0  0  0  0  0  0  0  0  0  0
   15.0011   44.9045    4.7563 O   0  0  0  0  0  0  0  0  0  0  0  0
   15.0060   41.4587    8.2287 N   0  0  0  0  0  0  0  0  0  0  0  0
   17.7435   41.6080    5.9434 N   0  0  0  0  0  0  0  0  0  0  0  0
   13.9441   41.9895    7.6374 N   0  0  0  0  0  0  0  0  0  0  0  0
   13.5357   43.2970    5.6164 N   0  0  0  0  0  0  0  0  0  0  0  0
   10.3397   45.5325    0.3342 N   0  0  0  0  0  0  0  0  0  0  0  0
    8.8133   45.8165   -2.0085 N   0  0  0  0  0  0  0  0  0  0  0  0
  1  2  1  0
  2 21  1  0
  3 21  1  0
  3 24  1  0
  5  8  1  0
  6  5  1  0
  6 25  1  0
  7 25  1  0
  7  4  1  0
  8 27  1  0
  9 10  1  0
 11 12  2  0
 13 14  2  0
 13 28  1  0
 15 10  2  0
 16 28  1  0
 16 17  1  0
 17 29  1  0
 18 29  1  0
 18 19  1  0
 19 28  1  0
 20 29  1  0
 24  4  1  0
 24 26  1  0
 27  9  1  0
  3 22  2  0
  4  5  2  0
  8 26  2  0
  9 23  2  0
 10 11  1  0
 12 13  1  0
 14 15  1  0
M  END
>  <rmsd>  (664) 
0.22405161

$$$$
Molport-016-716-267 19496917 MCULE-7909949771 PubChem-92584239 ZINC000019496917
     RDKit          3D

 29 31  0  0  0  0  0  0  0  0999 V2000
   13.4922   39.0906   11.5406 C   0  0  0  0  0  0  0  0  0  0  0  0
   14.0160   39.7821   12.7866 C   0  0  0  0  0  0  0  0  0  0  0  0
   15.5100   39.4918   12.9743 C   0  0  0  0  0  0  0  0  0  0  0  0
   16.4200   40.3190   12.0462 C   0  0  0  0  0  0  0  0  0  0  0  0
   14.8709   42.1072   12.1482 C   0  0  0  0  0  0  0  0  0  0  0  0
   13.7136   41.2853   12.7258 C   0  0  0  0  0  0  0  0  0  0  0  0
   16.6457   42.1767   10.6250 C   0  0  0  0  0  0  0  0  0  0  0  0
   16.9408   41.7290    9.2002 C   0  0  0  0  0  0  0  0  0  0  0  0
   15.7920   42.0258    8.2961 C   0  0  0  0  0  0  0  0  0  0  0  0
   14.2380   42.7604    6.6242 C   0  0  0  0  0  0  0  0  0  0  0  0
   13.9363   44.3221    4.6201 C   0  0  0  0  0  0  0  0  0  0  0  0
   13.0422   44.7646    3.4902 C   0  0  0  0  0  0  0  0  0  0  0  0
   12.1634   45.8919    3.9945 C   0  0  0  0  0  0  0  0  0  0  0  0
   12.1297   43.6352    3.0276 C   0  0  0  0  0  0  0  0  0  0  0  0
   14.7331   44.5107    1.6325 C   0  0  0  0  0  0  0  0  0  0  0  0
   15.4038   45.1401    0.5794 C   0  0  0  0  0  0  0  0  0  0  0  0
   16.3307   44.4336   -0.1919 C   0  0  0  0  0  0  0  0  0  0  0  0
   16.5985   43.0832    0.0835 C   0  0  0  0  0  0  0  0  0  0  0  0
   15.9290   42.4526    1.1364 C   0  0  0  0  0  0  0  0  0  0  0  0
   15.0022   43.1598    1.9069 C   0  0  0  0  0  0  0  0  0  0  0  0
   18.2447   42.9110   -1.7545 C   0  0  0  0  0  0  0  0  0  0  0  0
   15.6729   41.2908   11.2440 N   0  0  0  0  0  0  0  0  0  0  0  0
   14.5797   41.4364    8.3973 N   0  0  0  0  0  0  0  0  0  0  0  0
   13.7167   41.8456    7.4691 N   0  0  0  0  0  0  0  0  0  0  0  0
   13.4854   43.3176    5.5403 N   0  0  0  0  0  0  0  0  0  0  0  0
   15.8478   43.1023    7.0037 S   0  0  0  0  0  0  0  0  0  0  0  0
   15.0490   44.8911    4.7876 O   0  0  0  0  0  0  0  0  0  0  0  0
   13.8111   45.2566    2.3852 O   0  0  0  0  0  0  0  0  0  0  0  0
   17.5199   42.3496   -0.6686 O   0  0  0  0  0  0  0  0  0  0  0  0
  1  2  1  0
  2  3  1  0
  3  4  1  0
  4 22  1  0
  5 22  1  0
  5  6  1  0
  6  2  1  0
  7 22  1  0
  7  8  1  0
  8  9  1  0
  9 26  1  0
 10 26  1  0
 10 25  1  0
 12 11  1  0
 12 13  1  0
 12 14  1  0
 12 28  1  0
 15 28  1  0
 16 17  2  0
 18 19  2  0
 18 29  1  0
 20 15  2  0
 21 29  1  0
 23 24  1  0
 25 11  1  0
  9 23  2  0
 10 24  2  0
 11 27  2  0
 15 16  1  0
 17 18  1  0
 19 20  1  0
M  END
>  <rmsd>  (665) 
0.223719567

$$$$
MolPort-002-865-760 5681538 CHEMBL4583059 CSSS00138423840 MCULE-3822519898 PubChem-4417892 ZINC000005681538 ZINC05681538
     RDKit          3D

 22 24  0  0  0  0  0  0  0  0999 V2000
   15.0447   44.8708    4.7972 O   0  0  0  0  0  0  0  0  0  0  0  0
   17.1274   42.7400    8.5098 O   0  0  0  0  0  0  0  0  0  0  0  0
   16.6516   40.5258   10.0540 O   0  0  0  0  0  0  0  0  0  0  0  0
   13.9064   44.3437    4.6632 C   0  0  0  0  0  0  0  0  0  0  0  0
   14.2546   42.7905    6.6410 C   0  0  0  0  0  0  0  0  0  0  0  0
   15.9782   42.5069    8.0493 C   0  0  0  0  0  0  0  0  0  0  0  0
   15.4524   40.6868    9.6999 C   0  0  0  0  0  0  0  0  0  0  0  0
   14.4006   39.9597   10.4386 C   0  0  0  0  0  0  0  0  0  0  0  0
   13.0299   40.1559   10.3522 C   0  0  0  0  0  0  0  0  0  0  0  0
   12.2988   39.3270   11.2154 C   0  0  0  0  0  0  0  0  0  0  0  0
   13.0786   38.4774   11.9957 C   0  0  0  0  0  0  0  0  0  0  0  0
   13.0129   44.7940    3.5814 C   0  0  0  0  0  0  0  0  0  0  0  0
   13.4197   45.8058    2.6986 C   0  0  0  0  0  0  0  0  0  0  0  0
   12.5712   46.2323    1.6727 C   0  0  0  0  0  0  0  0  0  0  0  0
   11.3097   45.6503    1.5218 C   0  0  0  0  0  0  0  0  0  0  0  0
   10.8965   44.6420    2.3966 C   0  0  0  0  0  0  0  0  0  0  0  0
   11.7449   44.2155    3.4226 C   0  0  0  0  0  0  0  0  0  0  0  0
   13.4776   43.3090    5.5579 N   0  0  0  0  0  0  0  0  0  0  0  0
   15.5010   43.1979    6.9691 N   0  0  0  0  0  0  0  0  0  0  0  0
   15.1520   41.5675    8.5990 N   0  0  0  0  0  0  0  0  0  0  0  0
   13.7638   41.5892    7.6798 S   0  0  0  0  0  0  0  0  0  0  0  0
   14.6835   38.7761   11.5942 S   0  0  0  0  0  0  0  0  0  0  0  0
  4 18  1  0
  4 12  1  0
  5 21  1  0
  6 19  1  0
  6 20  1  0
  7  8  1  0
  8 22  1  0
  9 10  1  0
 11 22  1  0
 13 14  2  0
 15 16  2  0
 17 12  2  0
 18  5  1  0
 20 21  1  0
 20  7  1  0
  4  1  2  0
  5 19  2  0
  6  2  2  0
  7  3  2  0
  8  9  2  0
 10 11  2  0
 12 13  1  0
 14 15  1  0
 16 17  1  0
M  END
>  <rmsd>  (666) 
0.222310334

$$$$
MolPort-044-423-548 CSSS14880536645 MCULE-6906365711 ZINC000675028112
     RDKit          3D

 23 24  0  0  0  0  0  0  0  0999 V2000
   12.9460   43.4340    2.5213 C   0  0  0  0  0  0  0  0  0  0  0  0
   13.0694   44.6314    3.4431 C   0  0  0  0  0  0  0  0  0  0  0  0
   13.5880   45.8221    2.6530 C   0  0  0  0  0  0  0  0  0  0  0  0
   13.9446   44.2914    4.6137 C   0  0  0  0  0  0  0  0  0  0  0  0
   14.3138   42.6794    6.5450 C   0  0  0  0  0  0  0  0  0  0  0  0
   13.8517   42.2800    7.7837 C   0  0  0  0  0  0  0  0  0  0  0  0
   14.9704   41.6662    8.3334 C   0  0  0  0  0  0  0  0  0  0  0  0
   16.3968   42.3833    5.1699 C   0  0  0  0  0  0  0  0  0  0  0  0
   15.0306   41.0547    9.6652 C   0  0  0  0  0  0  0  0  0  0  0  0
   13.8600   40.4599   11.8331 C   0  0  0  0  0  0  0  0  0  0  0  0
   13.8169   38.9415   11.7116 C   0  0  0  0  0  0  0  0  0  0  0  0
   12.4910   38.4683   11.1289 C   0  0  0  0  0  0  0  0  0  0  0  0
   11.3808   38.6242   12.1135 C   0  0  0  0  0  0  0  0  0  0  0  0
   11.2645   37.9548   13.3206 C   0  0  0  0  0  0  0  0  0  0  0  0
   10.0995   38.3041   14.0187 C   0  0  0  0  0  0  0  0  0  0  0  0
    9.2966   39.2393   13.3682 C   0  0  0  0  0  0  0  0  0  0  0  0
   15.0338   44.8999    4.8037 O   0  0  0  0  0  0  0  0  0  0  0  0
   16.0984   40.5102   10.0564 O   0  0  0  0  0  0  0  0  0  0  0  0
   13.4953   43.3075    5.5510 N   0  0  0  0  0  0  0  0  0  0  0  0
   16.0053   41.6751    7.4690 N   0  0  0  0  0  0  0  0  0  0  0  0
   15.5958   42.2967    6.3792 N   0  0  0  0  0  0  0  0  0  0  0  0
   13.8805   41.0805   10.5153 N   0  0  0  0  0  0  0  0  0  0  0  0
   10.0540   39.6246   11.9157 S   0  0  0  0  0  0  0  0  0  0  0  0
  1  2  1  0
  2  3  1  0
  2  4  1  0
  4 19  1  0
  6  7  1  0
  7  9  1  0
  8 21  1  0
  9 22  1  0
 10 22  1  0
 10 11  1  0
 11 12  1  0
 12 13  1  0
 13 23  1  0
 14 15  1  0
 16 23  1  0
 19  5  1  0
 21 20  1  0
 21  5  1  0
  4 17  2  0
  5  6  2  0
  7 20  2  0
  9 18  2  0
 13 14  2  0
 15 16  2  0
M  END
>  <rmsd>  (667) 
0.221877307

$$$$
MolPort-019-854-921 57279312 CSSS03437773826 MCULE-8688354168 PubChem-52422320 ZINC000057279312 ZINC57279312
     RDKit          3D

 21 22  0  0  0  0  0  0  0  0999 V2000
   13.7840   43.5049   11.0303 C   0  0  0  0  0  0  0  0  0  0  0  0
   13.0127   42.2535   10.6503 C   0  0  0  0  0  0  0  0  0  0  0  0
   13.7623   40.1239   11.6944 C   0  0  0  0  0  0  0  0  0  0  0  0
   13.2340   38.8109   11.1465 C   0  0  0  0  0  0  0  0  0  0  0  0
   14.9595   40.9617    9.6491 C   0  0  0  0  0  0  0  0  0  0  0  0
   14.9109   41.6244    8.3302 C   0  0  0  0  0  0  0  0  0  0  0  0
   16.3856   42.3672    5.1911 C   0  0  0  0  0  0  0  0  0  0  0  0
   14.2856   42.6615    6.5390 C   0  0  0  0  0  0  0  0  0  0  0  0
   13.9506   44.2976    4.6216 C   0  0  0  0  0  0  0  0  0  0  0  0
   13.1253   44.6654    3.4661 C   0  0  0  0  0  0  0  0  0  0  0  0
   11.8975   44.1110    3.1398 C   0  0  0  0  0  0  0  0  0  0  0  0
   11.3454   44.6632    1.9747 C   0  0  0  0  0  0  0  0  0  0  0  0
   12.1275   45.6494    1.3772 C   0  0  0  0  0  0  0  0  0  0  0  0
   13.8037   42.2468    7.7642 C   0  0  0  0  0  0  0  0  0  0  0  0
   13.9017   41.0984   10.6204 N   0  0  0  0  0  0  0  0  0  0  0  0
   15.9548   41.6350    7.4755 N   0  0  0  0  0  0  0  0  0  0  0  0
   15.5669   42.2738    6.3881 N   0  0  0  0  0  0  0  0  0  0  0  0
   13.4841   43.3036    5.5402 N   0  0  0  0  0  0  0  0  0  0  0  0
   15.9587   40.2420    9.9215 O   0  0  0  0  0  0  0  0  0  0  0  0
   15.0428   44.8930    4.8245 O   0  0  0  0  0  0  0  0  0  0  0  0
   13.5120   45.8238    2.3168 S   0  0  0  0  0  0  0  0  0  0  0  0
  1  2  1  0
  2 15  1  0
  3 15  1  0
  3  4  1  0
  5  6  1  0
  7 17  1  0
  8 18  1  0
  9 10  1  0
 10 21  1  0
 11 12  1  0
 13 21  1  0
 14  6  1  0
 15  5  1  0
 17 16  1  0
 17  8  1  0
 18  9  1  0
  5 19  2  0
  6 16  2  0
  8 14  2  0
  9 20  2  0
 10 11  2  0
 12 13  2  0
M  END
>  <rmsd>  (668) 
0.221653759

$$$$
MolPort-007-955-792 ChemDiv-L068-0667 MCULE-2924407057 PubChem-46376133
     RDKit          3D

 30 32  0  0  0  0  0  0  0  0999 V2000
   14.3279   42.7139    6.5663 C   0  0  0  0  0  0  0  0  0  0  0  0
   13.9140   44.3178    4.6529 C   0  0  0  0  0  0  0  0  0  0  0  0
   13.0110   44.7344    3.5492 C   0  0  0  0  0  0  0  0  0  0  0  0
   15.3022   41.8702    8.6879 C   0  0  0  0  0  0  0  0  0  0  0  0
   16.1753   41.7650    7.6113 C   0  0  0  0  0  0  0  0  0  0  0  0
   17.4393   41.2020    7.7978 C   0  0  0  0  0  0  0  0  0  0  0  0
   17.8124   40.7755    9.0789 C   0  0  0  0  0  0  0  0  0  0  0  0
   16.9292   40.8865   10.1678 C   0  0  0  0  0  0  0  0  0  0  0  0
   15.6316   41.4297    9.9720 C   0  0  0  0  0  0  0  0  0  0  0  0
   14.5277   40.6568   12.0789 C   0  0  2  0  0  0  0  0  0  0  0  0
   13.9935   39.2992   11.6162 C   0  0  0  0  0  0  0  0  0  0  0  0
   12.7191   39.4274   10.7962 C   0  0  0  0  0  0  0  0  0  0  0  0
   13.6676   41.2640   13.1483 C   0  0  0  0  0  0  0  0  0  0  0  0
   15.4442   40.8192   14.8743 C   0  0  0  0  0  0  0  0  0  0  0  0
   16.0567   41.6299   16.0161 C   0  0  0  0  0  0  0  0  0  0  0  0
   14.1292   42.6297   16.6058 C   0  0  0  0  0  0  0  0  0  0  0  0
   13.2856   41.9395   15.5339 C   0  0  0  0  0  0  0  0  0  0  0  0
   15.6359   42.2279    6.3940 C   0  0  0  0  0  0  0  0  0  0  0  0
   16.3288   42.1080    5.0918 C   0  0  0  0  0  0  0  0  0  0  0  0
   18.4313   41.9142    3.8250 C   0  0  0  0  0  0  0  0  0  0  0  0
   13.4883   43.3050    5.5684 N   0  0  0  0  0  0  0  0  0  0  0  0
   14.1619   41.4103   14.4880 N   0  0  0  0  0  0  0  0  0  0  0  0
   15.0306   44.8846    4.7906 O   0  0  0  0  0  0  0  0  0  0  0  0
   14.6725   41.5595   10.9871 O   0  0  0  0  0  0  0  0  0  0  0  0
   12.5082   41.6672   12.8567 O   0  0  0  0  0  0  0  0  0  0  0  0
   15.1284   41.7538   17.0643 O   0  0  0  0  0  0  0  0  0  0  0  0
   17.7228   42.0397    5.0486 O   0  0  0  0  0  0  0  0  0  0  0  0
   15.6603   42.0420    4.0241 O   0  0  0  0  0  0  0  0  0  0  0  0
   13.8474   42.5311    8.1719 S   0  0  0  0  0  0  0  0  0  0  0  0
   17.6176   40.3707   11.8783 Br  0  0  0  0  0  0  0  0  0  0  0  0
  1 21  1  0
  1 29  1  0
  3  2  1  0
  4 29  1  0
  5  6  2  0
  5 18  1  0
  7  8  2  0
  8 30  1  0
  9 24  1  0
  9  4  2  0
 10 24  1  0
 10 11  1  6
 10 13  1  0
 11 12  1  0
 13 22  1  0
 14 22  1  0
 14 15  1  0
 15 26  1  0
 16 26  1  0
 16 17  1  0
 17 22  1  0
 18 19  1  0
 19 27  1  0
 20 27  1  0
 21  2  1  0
  2 23  2  0
  4  5  1  0
  6  7  1  0
  8  9  1  0
 13 25  2  0
 18  1  2  0
 19 28  2  0
M  END
>  <rmsd>  (669) 
0.221173137

$$$$
MolPort-005-135-936 CSSS00159791909 MCULE-2900330182 PubChem-45238205
     RDKit          3D

 33 36  0  0  0  0  0  0  0  0999 V2000
   13.5686   44.8965    1.4314 C   0  0  0  0  0  0  0  0  0  0  0  0
   12.9692   44.7019    3.5559 C   0  0  1  0  0  0  0  0  0  0  0  0
   13.9086   44.3139    4.6605 C   0  0  0  0  0  0  0  0  0  0  0  0
   14.2772   42.8387    6.7063 C   0  0  0  0  0  0  0  0  0  0  0  0
   15.5419   43.2633    7.0683 C   0  0  0  0  0  0  0  0  0  0  0  0
   15.8198   42.5125    8.2059 C   0  0  0  0  0  0  0  0  0  0  0  0
   12.5554   41.2336    7.5321 C   0  0  0  0  0  0  0  0  0  0  0  0
   11.7536   41.5886    8.7752 C   0  0  0  0  0  0  0  0  0  0  0  0
   10.4135   40.8547    8.7749 C   0  0  0  0  0  0  0  0  0  0  0  0
   10.8337   38.6675    9.8482 C   0  0  0  0  0  0  0  0  0  0  0  0
   12.1719   38.9559   10.4612 C   0  0  0  0  0  0  0  0  0  0  0  0
   12.3023   39.9702   11.4152 C   0  0  0  0  0  0  0  0  0  0  0  0
   13.5419   40.2268   12.0074 C   0  0  0  0  0  0  0  0  0  0  0  0
   13.6545   41.3266   13.0052 C   0  0  0  0  0  0  0  0  0  0  0  0
   14.6596   39.4516   11.6584 C   0  0  0  0  0  0  0  0  0  0  0  0
   14.5210   38.4130   10.7235 C   0  0  0  0  0  0  0  0  0  0  0  0
   15.6850   37.5654   10.3430 C   0  0  0  0  0  0  0  0  0  0  0  0
   13.2776   38.1637   10.1365 C   0  0  0  0  0  0  0  0  0  0  0  0
   11.4092   39.0066    7.4679 C   0  0  0  0  0  0  0  0  0  0  0  0
   12.7565   39.7274    7.4581 C   0  0  0  0  0  0  0  0  0  0  0  0
   11.7191   45.3165    4.1066 C   0  0  0  0  0  0  0  0  0  0  0  0
   10.5024   44.6411    3.9616 C   0  0  0  0  0  0  0  0  0  0  0  0
    9.3258   45.1946    4.4754 C   0  0  0  0  0  0  0  0  0  0  0  0
    9.3626   46.4258    5.1367 C   0  0  0  0  0  0  0  0  0  0  0  0
   10.5757   47.1045    5.2846 C   0  0  0  0  0  0  0  0  0  0  0  0
   11.7528   46.5519    4.7711 C   0  0  0  0  0  0  0  0  0  0  0  0
   13.5812   45.5762    2.6505 O   0  0  0  0  0  0  0  0  0  0  0  0
   15.0343   44.8731    4.7631 O   0  0  0  0  0  0  0  0  0  0  0  0
   15.8980   39.7083   12.2402 O   0  0  0  0  0  0  0  0  0  0  0  0
   13.5047   43.3038    5.5923 N   0  0  0  0  0  0  0  0  0  0  0  0
   14.7760   41.7029    8.4847 N   0  0  0  0  0  0  0  0  0  0  0  0
   13.8473   41.9073    7.5675 N   0  0  0  0  0  0  0  0  0  0  0  0
   10.5593   39.4012    8.6018 N   0  0  0  0  0  0  0  0  0  0  0  0
  1 27  1  0
  2 27  1  6
  2  3  1  0
  2 21  1  0
  3 30  1  0
  5  6  1  0
  7 32  1  0
  7  8  1  0
  8  9  1  0
  9 33  1  0
 10 33  1  0
 10 11  1  0
 12 13  2  0
 14 13  1  0
 15 29  1  0
 15 16  2  0
 17 16  1  0
 18 11  2  0
 19 33  1  0
 19 20  1  0
 20  7  1  0
 22 23  2  0
 24 25  2  0
 26 21  2  0
 30  4  1  0
 32 31  1  0
 32  4  1  0
  3 28  2  0
  4  5  2  0
  6 31  2  0
 11 12  1  0
 13 15  1  0
 16 18  1  0
 21 22  1  0
 23 24  1  0
 25 26  1  0
M  END
>  <rmsd>  (670) 
0.220539853

$$$$
MolPort-003-061-890 9347616 CSSS03437154845 LN01433103 MCULE-6650959518 PubChem-3622284 ZINC000009347616
     RDKit          3D

 33 36  0  0  0  0  0  0  0  0999 V2000
   14.2510   42.6933    6.5635 C   0  0  0  0  0  0  0  0  0  0  0  0
   13.8521   44.4877    4.8045 C   0  0  0  0  0  0  0  0  0  0  0  0
   12.8509   45.2053    3.9966 C   0  0  0  0  0  0  0  0  0  0  0  0
   11.5229   44.7612    3.9569 C   0  0  0  0  0  0  0  0  0  0  0  0
   10.5722   45.4440    3.1937 C   0  0  0  0  0  0  0  0  0  0  0  0
   10.9288   46.5869    2.4620 C   0  0  0  0  0  0  0  0  0  0  0  0
   12.2626   47.0210    2.4962 C   0  0  0  0  0  0  0  0  0  0  0  0
   13.2146   46.3397    3.2589 C   0  0  0  0  0  0  0  0  0  0  0  0
    9.9043   47.2771    1.6381 C   0  0  0  0  0  0  0  0  0  0  0  0
   10.0688   48.6573    1.1153 C   0  0  0  0  0  0  0  0  0  0  0  0
    9.2368   49.1076    0.0777 C   0  0  0  0  0  0  0  0  0  0  0  0
    9.3535   50.4107   -0.4147 C   0  0  0  0  0  0  0  0  0  0  0  0
   10.2996   51.2812    0.1311 C   0  0  0  0  0  0  0  0  0  0  0  0
   11.1262   50.8496    1.1709 C   0  0  0  0  0  0  0  0  0  0  0  0
   11.0081   49.5463    1.6621 C   0  0  0  0  0  0  0  0  0  0  0  0
   15.2464   41.1067    8.1970 C   0  0  0  0  0  0  0  0  0  0  0  0
   15.5769   42.4308    8.4614 C   0  0  0  0  0  0  0  0  0  0  0  0
   16.3657   42.8160    9.6819 C   0  0  0  0  0  0  0  0  0  0  0  0
   17.1935   41.6294   10.1840 C   0  0  0  0  0  0  0  0  0  0  0  0
   16.3028   39.6514   11.4466 C   0  0  0  0  0  0  0  0  0  0  0  0
   13.9789   38.8344   11.0626 C   0  0  0  0  0  0  0  0  0  0  0  0
   13.1903   40.0572   11.4935 C   0  0  0  0  0  0  0  0  0  0  0  0
   15.7493   39.9456    8.9951 C   0  0  0  0  0  0  0  0  0  0  0  0
   14.9953   43.3357    7.5598 C   0  0  0  0  0  0  0  0  0  0  0  0
   15.0699   44.7653    7.7281 C   0  0  0  0  0  0  0  0  0  0  0  0
   13.4743   43.3122    5.5312 N   0  0  0  0  0  0  0  0  0  0  0  0
   16.3601   40.4261   10.2369 N   0  0  0  0  0  0  0  0  0  0  0  0
   15.1295   45.9130    7.8655 N   0  0  0  0  0  0  0  0  0  0  0  0
   15.0499   44.8834    4.8181 O   0  0  0  0  0  0  0  0  0  0  0  0
    8.8376   46.6584    1.3678 O   0  0  0  0  0  0  0  0  0  0  0  0
   15.2315   38.7949   11.7353 O   0  0  0  0  0  0  0  0  0  0  0  0
   17.2390   39.7419   12.2849 O   0  0  0  0  0  0  0  0  0  0  0  0
   14.2654   41.0314    6.8362 S   0  0  0  0  0  0  0  0  0  0  0  0
  1 26  1  0
  1 33  1  0
  2  3  1  0
  4  5  2  0
  6  7  2  0
  6  9  1  0
  8  3  2  0
  9 10  1  0
 11 12  2  0
 13 14  2  0
 15 10  2  0
 16 33  1  0
 17 24  1  0
 18 17  1  0
 18 19  1  0
 19 27  1  0
 20 31  1  0
 21 31  1  0
 21 22  1  0
 23 27  1  0
 23 16  1  0
 24 25  1  0
 26  2  1  0
 27 20  1  0
  2 29  2  0
  3  4  1  0
  5  6  1  0
  7  8  1  0
  9 30  2  0
 10 11  1  0
 12 13  1  0
 14 15  1  0
 16 17  2  0
 20 32  2  0
 24  1  2  0
 25 28  3  0
M  END
>  <rmsd>  (671) 
0.219988793

$$$$
MolPort-002-761-906 2730088 CSSS00132538522 MCULE-7263961932 PubChem-17024138 ZINC000002730088 ZINC02730088
     RDKit          3D

 28 31  0  0  0  0  0  0  0  0999 V2000
   13.4063   39.4295   11.2184 C   0  0  0  0  0  0  0  0  0  0  0  0
   14.2652   40.6125   11.5118 C   0  0  0  0  0  0  0  0  0  0  0  0
   14.1563   41.4134   12.6331 C   0  0  0  0  0  0  0  0  0  0  0  0
   15.1669   42.3455   12.4303 C   0  0  0  0  0  0  0  0  0  0  0  0
   15.6811   40.4868    9.4505 C   0  0  0  0  0  0  0  0  0  0  0  0
   15.2968   41.3875    8.3289 C   0  0  0  0  0  0  0  0  0  0  0  0
   14.2770   42.6723    6.5923 C   0  0  0  0  0  0  0  0  0  0  0  0
   13.8617   44.3389    4.7340 C   0  0  0  0  0  0  0  0  0  0  0  0
   16.2048   46.6999    3.5330 C   0  0  0  0  0  0  0  0  0  0  0  0
   17.2242   45.9291    2.7655 C   0  0  0  0  0  0  0  0  0  0  0  0
   17.1679   45.8881    1.3676 C   0  0  0  0  0  0  0  0  0  0  0  0
   18.1057   45.1374    0.6523 C   0  0  0  0  0  0  0  0  0  0  0  0
   19.0963   44.4221    1.3336 C   0  0  0  0  0  0  0  0  0  0  0  0
   19.1488   44.4567    2.7305 C   0  0  0  0  0  0  0  0  0  0  0  0
   18.2116   45.2073    3.4462 C   0  0  0  0  0  0  0  0  0  0  0  0
   13.8875   45.8670    3.1886 C   0  0  0  0  0  0  0  0  0  0  0  0
   13.0708   44.8932    3.7450 C   0  0  0  0  0  0  0  0  0  0  0  0
   15.4472   43.5000   13.3296 C   0  0  0  0  0  0  0  0  0  0  0  0
   15.8145   42.1261   11.2670 N   0  0  0  0  0  0  0  0  0  0  0  0
   15.2600   41.0599   10.7206 N   0  0  0  0  0  0  0  0  0  0  0  0
   16.1025   42.3572    7.8454 N   0  0  0  0  0  0  0  0  0  0  0  0
   15.5377   43.0695    6.8731 N   0  0  0  0  0  0  0  0  0  0  0  0
   13.4531   43.2645    5.5851 N   0  0  0  0  0  0  0  0  0  0  0  0
   15.0684   44.9263    4.7798 N   0  0  0  0  0  0  0  0  0  0  0  0
   15.0643   45.8528    3.8408 N   0  0  0  0  0  0  0  0  0  0  0  0
   13.7954   41.3874    7.5646 S   0  0  0  0  0  0  0  0  0  0  0  0
   16.7757   43.8766   13.2267 F   0  0  0  0  0  0  0  0  0  0  0  0
   14.6343   44.5689   12.9919 F   0  0  0  0  0  0  0  0  0  0  0  0
  1  2  1  0
  3  4  1  0
  5 20  1  0
  5  6  1  0
  6 26  1  0
  7 23  1  0
  7 26  1  0
  9 25  1  0
  9 10  1  0
 11 12  2  0
 13 14  2  0
 15 10  2  0
 17  8  1  0
 18  4  1  0
 18 27  1  0
 18 28  1  0
 20 19  1  0
 20  2  1  0
 21 22  1  0
 23  8  1  0
 25 24  1  0
 25 16  1  0
  2  3  2  0
  4 19  2  0
  6 21  2  0
  7 22  2  0
  8 24  2  0
 10 11  1  0
 12 13  1  0
 14 15  1  0
 16 17  2  0
M  END
>  <rmsd>  (672) 
0.219517484

$$$$
MolPort-005-125-726 20119861 CSSS00159545606 PubChem-28642449 ZINC000020119861
     RDKit          3D

 31 34  0  0  0  0  0  0  0  0999 V2000
   17.7530   37.4550   11.0628 C   0  0  0  0  0  0  0  0  0  0  0  0
   16.7550   39.4889   12.0704 C   0  0  0  0  0  0  0  0  0  0  0  0
   15.6111   40.2839   12.3297 C   0  0  0  0  0  0  0  0  0  0  0  0
   14.2472   39.9393   11.8846 C   0  0  0  0  0  0  0  0  0  0  0  0
   13.9271   38.8268   11.2325 C   0  0  0  0  0  0  0  0  0  0  0  0
   12.5137   38.5598   10.7876 C   0  0  0  0  0  0  0  0  0  0  0  0
   13.0836   39.0197    8.4974 C   0  0  0  0  0  0  0  0  0  0  0  0
   12.6483   39.7070    7.2046 C   0  0  0  0  0  0  0  0  0  0  0  0
   12.4674   41.2114    7.4203 C   0  0  0  0  0  0  0  0  0  0  0  0
   11.5778   41.4944    8.6331 C   0  0  0  0  0  0  0  0  0  0  0  0
   12.0664   40.7230    9.8575 C   0  0  0  0  0  0  0  0  0  0  0  0
   15.7038   42.4996    8.2410 C   0  0  0  0  0  0  0  0  0  0  0  0
   15.4637   43.2637    7.1042 C   0  0  0  0  0  0  0  0  0  0  0  0
   14.2135   42.8407    6.6927 C   0  0  0  0  0  0  0  0  0  0  0  0
   13.9308   44.3185    4.6325 C   0  0  0  0  0  0  0  0  0  0  0  0
   13.0714   44.7074    3.5010 C   0  0  0  0  0  0  0  0  0  0  0  0
   13.4873   45.6868    2.5893 C   0  0  0  0  0  0  0  0  0  0  0  0
   11.4709   45.4617    1.3560 C   0  0  0  0  0  0  0  0  0  0  0  0
   11.0150   44.4812    2.2390 C   0  0  0  0  0  0  0  0  0  0  0  0
   11.8212   44.1054    3.3144 C   0  0  0  0  0  0  0  0  0  0  0  0
   15.7552   41.4826   13.0381 C   0  0  0  0  0  0  0  0  0  0  0  0
   17.0072   41.8984   13.4940 C   0  0  0  0  0  0  0  0  0  0  0  0
   18.1344   41.1170   13.2437 C   0  0  0  0  0  0  0  0  0  0  0  0
   18.0092   39.9207   12.5363 C   0  0  0  0  0  0  0  0  0  0  0  0
   16.6407   38.2896   11.3567 O   0  0  0  0  0  0  0  0  0  0  0  0
   15.0541   44.8712    4.7855 O   0  0  0  0  0  0  0  0  0  0  0  0
   12.1206   39.2866    9.5718 N   0  0  0  0  0  0  0  0  0  0  0  0
   13.7545   41.8979    7.5269 N   0  0  0  0  0  0  0  0  0  0  0  0
   14.6536   41.6838    8.4715 N   0  0  0  0  0  0  0  0  0  0  0  0
   13.4838   43.3136    5.5530 N   0  0  0  0  0  0  0  0  0  0  0  0
   12.6870   46.0394    1.5473 N   0  0  0  0  0  0  0  0  0  0  0  0
  1 25  1  0
  2 25  1  0
  3  4  1  0
  3 21  2  0
  6  5  1  0
  6 27  1  0
  7 27  1  0
  7  8  1  0
  8  9  1  0
  9 10  1  0
  9 28  1  0
 10 11  1  0
 11 27  1  0
 12 13  1  0
 14 30  1  0
 14 28  1  0
 15 16  1  0
 17 31  2  0
 18 19  2  0
 20 16  2  0
 22 23  2  0
 24  2  2  0
 28 29  1  0
 30 15  1  0
  2  3  1  0
  4  5  2  0
 12 29  2  0
 13 14  2  0
 15 26  2  0
 16 17  1  0
 18 31  1  0
 19 20  1  0
 21 22  1  0
 23 24  1  0
M  END
>  <rmsd>  (673) 
0.219435647

$$$$
MolPort-002-865-768 5540787 CHEMBL1340266 CSSS00138423847 MCULE-5341935088 PubChem-3721638 ZINC000005540787 ZINC05540787
     RDKit          3D

 25 27  0  0  0  0  0  0  0  0999 V2000
   10.3352   46.0886    0.4856 C   0  0  0  0  0  0  0  0  0  0  0  0
   11.2540   45.6389    1.5635 C   0  0  0  0  0  0  0  0  0  0  0  0
   10.8564   44.6298    2.4447 C   0  0  0  0  0  0  0  0  0  0  0  0
   11.7208   44.2067    3.4588 C   0  0  0  0  0  0  0  0  0  0  0  0
   12.9888   44.7894    3.5992 C   0  0  0  0  0  0  0  0  0  0  0  0
   13.3800   45.8019    2.7101 C   0  0  0  0  0  0  0  0  0  0  0  0
   12.5157   46.2250    1.6960 C   0  0  0  0  0  0  0  0  0  0  0  0
   13.8991   44.3427    4.6684 C   0  0  0  0  0  0  0  0  0  0  0  0
   14.2801   42.7919    6.6421 C   0  0  0  0  0  0  0  0  0  0  0  0
   16.0250   42.5149    8.0252 C   0  0  0  0  0  0  0  0  0  0  0  0
   15.5161   40.6906    9.6799 C   0  0  0  0  0  0  0  0  0  0  0  0
   14.4502   39.9571   10.3992 C   0  0  0  0  0  0  0  0  0  0  0  0
   14.6154   38.6204   10.8301 C   0  0  0  0  0  0  0  0  0  0  0  0
   13.5880   37.9839   11.5344 C   0  0  0  0  0  0  0  0  0  0  0  0
   12.4018   38.6609   11.8230 C   0  0  0  0  0  0  0  0  0  0  0  0
   12.2339   39.9811   11.4047 C   0  0  0  0  0  0  0  0  0  0  0  0
   13.2530   40.6240   10.6994 C   0  0  0  0  0  0  0  0  0  0  0  0
   15.0374   44.8736    4.7860 O   0  0  0  0  0  0  0  0  0  0  0  0
   17.1802   42.7499    8.4693 O   0  0  0  0  0  0  0  0  0  0  0  0
   16.7142   40.5501   10.0471 O   0  0  0  0  0  0  0  0  0  0  0  0
   13.4863   43.3073    5.5697 N   0  0  0  0  0  0  0  0  0  0  0  0
   15.5303   43.2037    6.9518 N   0  0  0  0  0  0  0  0  0  0  0  0
   15.2085   41.5748    8.5859 N   0  0  0  0  0  0  0  0  0  0  0  0
   13.8065   41.5890    7.6883 S   0  0  0  0  0  0  0  0  0  0  0  0
   16.0581   37.6831   10.4664 Cl  0  0  0  0  0  0  0  0  0  0  0  0
  1  2  1  0
  3  4  2  0
  5  6  2  0
  5  8  1  0
  7  2  2  0
  8 21  1  0
  9 24  1  0
 10 22  1  0
 10 23  1  0
 11 12  1  0
 13 25  1  0
 13 14  2  0
 15 16  2  0
 17 12  2  0
 21  9  1  0
 23 24  1  0
 23 11  1  0
  2  3  1  0
  4  5  1  0
  6  7  1  0
  8 18  2  0
  9 22  2  0
 10 19  2  0
 11 20  2  0
 12 13  1  0
 14 15  1  0
 16 17  1  0
M  END
>  <rmsd>  (674) 
0.219226643

$$$$
MolPort-007-713-437 ChemDiv-E002-0307 MCULE-4157698301 PubChem-22509881 ZINC000006768038 ZINC06768038
     RDKit          3D

 24 25  0  0  0  0  0  0  0  0999 V2000
   13.0692   38.7387   11.7019 C   0  0  0  0  0  0  0  0  0  0  0  0
   14.0537   39.8096   11.2831 C   0  0  0  0  0  0  0  0  0  0  0  0
   14.5322   39.5306    9.8706 C   0  0  0  0  0  0  0  0  0  0  0  0
   16.7975   40.6174   10.0717 C   0  0  0  0  0  0  0  0  0  0  0  0
   17.6786   39.4731    9.5930 C   0  0  0  0  0  0  0  0  0  0  0  0
   18.1211   39.7057    8.1612 C   0  0  0  0  0  0  0  0  0  0  0  0
   15.1530   41.4425    8.3686 C   0  0  0  0  0  0  0  0  0  0  0  0
   14.2359   42.7176    6.5639 C   0  0  0  0  0  0  0  0  0  0  0  0
   13.8984   44.4004    4.6938 C   0  0  0  0  0  0  0  0  0  0  0  0
   13.1956   46.1225    2.9558 C   0  0  0  0  0  0  0  0  0  0  0  0
   13.6187   47.3158    3.5822 C   0  0  0  0  0  0  0  0  0  0  0  0
   14.2761   48.5073    5.6532 C   0  0  0  0  0  0  0  0  0  0  0  0
   13.7661   48.4811    2.8102 C   0  0  0  0  0  0  0  0  0  0  0  0
   13.4727   48.4716    1.4454 C   0  0  0  0  0  0  0  0  0  0  0  0
   13.0201   47.2997    0.8386 C   0  0  0  0  0  0  0  0  0  0  0  0
   12.8767   46.1338    1.5933 C   0  0  0  0  0  0  0  0  0  0  0  0
   15.4797   40.5546    9.4466 N   0  0  0  0  0  0  0  0  0  0  0  0
   15.9903   42.4047    7.9179 N   0  0  0  0  0  0  0  0  0  0  0  0
   15.4800   43.1144    6.9132 N   0  0  0  0  0  0  0  0  0  0  0  0
   13.4629   43.3156    5.5189 N   0  0  0  0  0  0  0  0  0  0  0  0
   13.0175   44.8999    3.6830 N   0  0  0  0  0  0  0  0  0  0  0  0
   15.0574   44.8803    4.8228 O   0  0  0  0  0  0  0  0  0  0  0  0
   13.8548   47.3395    4.9616 O   0  0  0  0  0  0  0  0  0  0  0  0
   13.6969   41.4362    7.5113 S   0  0  0  0  0  0  0  0  0  0  0  0
  1  2  1  0
  2  3  1  0
  3 17  1  0
  4 17  1  0
  4  5  1  0
  5  6  1  0
  7 24  1  0
  8 20  1  0
  8 24  1  0
  9 21  1  0
 11 23  1  0
 11 13  2  0
 12 23  1  0
 14 15  2  0
 16 10  2  0
 17  7  1  0
 18 19  1  0
 20  9  1  0
 21 10  1  0
  7 18  2  0
  8 19  2  0
  9 22  2  0
 10 11  1  0
 13 14  1  0
 15 16  1  0
M  END
>  <rmsd>  (675) 
0.219050482

$$$$
MolPort-008-194-460 40745731 CSSS03437773488 MCULE-4252058049 PubChem-51998987 ZINC000040745731 ZINC40745731
     RDKit          3D

 22 23  0  0  0  0  0  0  0  0999 V2000
   11.4280   36.6638   10.4321 C   0  0  0  0  0  0  0  0  0  0  0  0
   12.5592   38.4187   11.1399 C   0  0  0  0  0  0  0  0  0  0  0  0
   13.8568   38.9503   11.7182 C   0  0  0  0  0  0  0  0  0  0  0  0
   13.7999   40.4653   11.8372 C   0  0  0  0  0  0  0  0  0  0  0  0
   14.9960   41.0646    9.6807 C   0  0  0  0  0  0  0  0  0  0  0  0
   14.9463   41.6741    8.3472 C   0  0  0  0  0  0  0  0  0  0  0  0
   16.4002   42.3893    5.1959 C   0  0  0  0  0  0  0  0  0  0  0  0
   14.3040   42.6828    6.5512 C   0  0  0  0  0  0  0  0  0  0  0  0
   13.9472   44.2932    4.6163 C   0  0  0  0  0  0  0  0  0  0  0  0
   13.1077   44.6373    3.4645 C   0  0  0  0  0  0  0  0  0  0  0  0
   13.4099   45.5805    2.5047 C   0  0  0  0  0  0  0  0  0  0  0  0
   12.3359   45.5529    1.6321 C   0  0  0  0  0  0  0  0  0  0  0  0
   11.4564   44.5997    2.1166 C   0  0  0  0  0  0  0  0  0  0  0  0
   13.8314   42.2844    7.7863 C   0  0  0  0  0  0  0  0  0  0  0  0
   12.6352   37.0318   11.0242 O   0  0  0  0  0  0  0  0  0  0  0  0
   16.0621   40.5247   10.0825 O   0  0  0  0  0  0  0  0  0  0  0  0
   15.0367   44.8990    4.8038 O   0  0  0  0  0  0  0  0  0  0  0  0
   11.9531   44.0760    3.2112 O   0  0  0  0  0  0  0  0  0  0  0  0
   13.8380   41.0893   10.5207 N   0  0  0  0  0  0  0  0  0  0  0  0
   15.9892   41.6841    7.4923 N   0  0  0  0  0  0  0  0  0  0  0  0
   15.5883   42.3030    6.3979 N   0  0  0  0  0  0  0  0  0  0  0  0
   13.4929   43.3078    5.5491 N   0  0  0  0  0  0  0  0  0  0  0  0
  1 15  1  0
  2 15  1  0
  2  3  1  0
  3  4  1  0
  4 19  1  0
  5  6  1  0
  7 21  1  0
  8 22  1  0
  9 10  1  0
 10 18  1  0
 11 12  1  0
 13 18  1  0
 14  6  1  0
 19  5  1  0
 21 20  1  0
 21  8  1  0
 22  9  1  0
  5 16  2  0
  6 20  2  0
  8 14  2  0
  9 17  2  0
 10 11  2  0
 12 13  2  0
M  END
>  <rmsd>  (676) 
0.218919396

$$$$
MolPort-007-789-507 ChemDiv-F223-0585 MCULE-9315983738 PubChem-46289723 ZINC000032959596 ZINC32959596
     RDKit          3D

 28 30  0  0  0  0  0  0  0  0999 V2000
   10.7550   41.6729   10.6248 C   0  0  0  0  0  0  0  0  0  0  0  0
   12.2853   39.7399   10.8231 C   0  0  0  0  0  0  0  0  0  0  0  0
   12.6663   38.4801   10.3560 C   0  0  0  0  0  0  0  0  0  0  0  0
   13.7546   37.7971   10.9122 C   0  0  0  0  0  0  0  0  0  0  0  0
   14.7235   35.5036   11.1103 C   0  0  0  0  0  0  0  0  0  0  0  0
   14.5051   38.4229   11.9426 C   0  0  0  0  0  0  0  0  0  0  0  0
   15.7488   37.8345   12.5331 C   0  0  0  0  0  0  0  0  0  0  0  0
   17.5474   38.8416   11.0158 C   0  0  0  0  0  0  0  0  0  0  0  0
   17.2232   40.2477   11.4124 C   0  0  0  0  0  0  0  0  0  0  0  0
   16.7916   41.0495   10.2289 C   0  0  0  0  0  0  0  0  0  0  0  0
   17.6707   42.0000    9.6713 C   0  0  0  0  0  0  0  0  0  0  0  0
   17.2873   42.7611    8.5539 C   0  0  0  0  0  0  0  0  0  0  0  0
   16.0199   42.5533    8.0092 C   0  0  0  0  0  0  0  0  0  0  0  0
   14.2733   42.7991    6.6446 C   0  0  0  0  0  0  0  0  0  0  0  0
   13.9105   44.3391    4.6599 C   0  0  0  0  0  0  0  0  0  0  0  0
   12.9978   44.7714    3.5701 C   0  0  0  0  0  0  0  0  0  0  0  0
   15.1641   41.6131    8.5610 C   0  0  0  0  0  0  0  0  0  0  0  0
   15.5206   40.8473    9.6649 C   0  0  0  0  0  0  0  0  0  0  0  0
   14.1055   39.6754   12.4217 C   0  0  0  0  0  0  0  0  0  0  0  0
   13.0034   40.3298   11.8714 C   0  0  0  0  0  0  0  0  0  0  0  0
   11.1934   40.3799   10.2306 O   0  0  0  0  0  0  0  0  0  0  0  0
   14.0348   36.5223   10.3995 O   0  0  0  0  0  0  0  0  0  0  0  0
   18.4945   38.6278   10.2141 O   0  0  0  0  0  0  0  0  0  0  0  0
   15.0408   44.8831    4.7736 O   0  0  0  0  0  0  0  0  0  0  0  0
   16.8113   37.7316   11.5376 N   0  0  0  0  0  0  0  0  0  0  0  0
   15.5294   43.2209    6.9352 N   0  0  0  0  0  0  0  0  0  0  0  0
   13.4890   43.3129    5.5636 N   0  0  0  0  0  0  0  0  0  0  0  0
   13.7265   41.5914    7.6965 S   0  0  0  0  0  0  0  0  0  0  0  0
  1 21  1  0
  2 21  1  0
  3  4  2  0
  4 22  1  0
  5 22  1  0
  6 19  2  0
  7  6  1  0
  7 25  1  0
  9  8  1  0
  9 10  1  0
 11 12  2  0
 13 26  1  0
 14 27  1  0
 14 28  1  0
 16 15  1  0
 17 28  1  0
 17 13  2  0
 18 10  2  0
 20  2  2  0
 25  8  1  0
 27 15  1  0
  2  3  1  0
  4  6  1  0
  8 23  2  0
 10 11  1  0
 12 13  1  0
 14 26  2  0
 15 24  2  0
 17 18  1  0
 19 20  1  0
M  END
>  <rmsd>  (677) 
0.2187251

$$$$
MolPort-002-849-478 8715568 LN01251847 MCULE-7792707188 PubChem-11842435 ZINC000008715568 ZINC08715568
     RDKit          3D

 28 31  0  0  0  0  0  0  0  0999 V2000
   15.0525   44.8810    4.8287 O   0  0  0  0  0  0  0  0  0  0  0  0
   16.5848   39.6997    9.3017 O   0  0  0  0  0  0  0  0  0  0  0  0
   13.8980   44.3915    4.6910 C   0  0  0  0  0  0  0  0  0  0  0  0
   14.2520   42.6984    6.5527 C   0  0  0  0  0  0  0  0  0  0  0  0
   16.0340   42.3182    7.8759 C   0  0  0  0  0  0  0  0  0  0  0  0
   15.1575   41.3381    8.3784 C   0  0  0  0  0  0  0  0  0  0  0  0
   15.4621   40.2717    9.3555 C   0  0  0  0  0  0  0  0  0  0  0  0
   14.4774   39.8350   10.3698 C   0  0  0  0  0  0  0  0  0  0  0  0
   13.3081   40.5681   10.6169 C   0  0  0  0  0  0  0  0  0  0  0  0
   12.6439   39.0394   12.3071 C   0  0  0  0  0  0  0  0  0  0  0  0
   13.7971   38.2805   12.1034 C   0  0  0  0  0  0  0  0  0  0  0  0
   14.7150   38.6845   11.1330 C   0  0  0  0  0  0  0  0  0  0  0  0
   17.3904   42.6048    8.3931 C   0  0  0  0  0  0  0  0  0  0  0  0
   17.7378   42.3324    9.7253 C   0  0  0  0  0  0  0  0  0  0  0  0
   19.0123   42.6466   10.2053 C   0  0  0  0  0  0  0  0  0  0  0  0
   19.9482   43.2473    9.3599 C   0  0  0  0  0  0  0  0  0  0  0  0
   19.6078   43.5379    8.0365 C   0  0  0  0  0  0  0  0  0  0  0  0
   18.3328   43.2228    7.5576 C   0  0  0  0  0  0  0  0  0  0  0  0
   12.9893   44.9348    3.6661 C   0  0  0  0  0  0  0  0  0  0  0  0
   13.3999   45.9933    2.8417 C   0  0  0  0  0  0  0  0  0  0  0  0
   12.5370   46.5080    1.8695 C   0  0  0  0  0  0  0  0  0  0  0  0
   11.2574   45.9682    1.7145 C   0  0  0  0  0  0  0  0  0  0  0  0
   10.8404   44.9139    2.5314 C   0  0  0  0  0  0  0  0  0  0  0  0
   11.7032   44.3991    3.5035 C   0  0  0  0  0  0  0  0  0  0  0  0
   13.4649   43.3097    5.5264 N   0  0  0  0  0  0  0  0  0  0  0  0
   15.5140   43.0644    6.8609 N   0  0  0  0  0  0  0  0  0  0  0  0
   12.4252   40.1586   11.5669 N   0  0  0  0  0  0  0  0  0  0  0  0
   13.7150   41.4326    7.5084 S   0  0  0  0  0  0  0  0  0  0  0  0
  3 25  1  0
  3 19  1  0
  4 28  1  0
  5 26  1  0
  5 13  1  0
  6 28  1  0
  6  7  1  0
  7  8  1  0
  9 27  2  0
 10 11  2  0
 12  8  2  0
 14 15  2  0
 16 17  2  0
 18 13  2  0
 20 21  2  0
 22 23  2  0
 24 19  2  0
 25  4  1  0
  3  1  2  0
  4 26  2  0
  5  6  2  0
  7  2  2  0
  8  9  1  0
 10 27  1  0
 11 12  1  0
 13 14  1  0
 15 16  1  0
 17 18  1  0
 19 20  1  0
 21 22  1  0
 23 24  1  0
M  END
>  <rmsd>  (678) 
0.218648627

$$$$
MolPort-009-692-502 9122423 CSSS00106925912 GURPVROGVCIAHM-UHFFFAOYSA-N MCULE-7597087955 PubChem-16952737 ZINC000009122423 ZINC09122423
     RDKit          3D

 29 32  0  0  0  0  0  0  0  0999 V2000
   10.9980   43.4700    4.0437 C   0  0  0  0  0  0  0  0  0  0  0  0
   12.1874   46.1409    2.0461 C   0  0  0  0  0  0  0  0  0  0  0  0
   12.0095   47.1424    0.9624 C   0  0  0  0  0  0  0  0  0  0  0  0
   13.3331   45.9907    2.8091 C   0  0  0  0  0  0  0  0  0  0  0  0
   12.9994   44.9477    3.6593 C   0  0  0  0  0  0  0  0  0  0  0  0
   13.8984   44.3919    4.6903 C   0  0  0  0  0  0  0  0  0  0  0  0
   14.2535   42.6986    6.5509 C   0  0  0  0  0  0  0  0  0  0  0  0
   16.0348   42.3169    7.8746 C   0  0  0  0  0  0  0  0  0  0  0  0
   15.1577   41.3369    8.3761 C   0  0  0  0  0  0  0  0  0  0  0  0
   15.4612   40.2699    9.3529 C   0  0  0  0  0  0  0  0  0  0  0  0
   14.4768   39.8354   10.3689 C   0  0  0  0  0  0  0  0  0  0  0  0
   13.3132   40.5803   10.6171 C   0  0  0  0  0  0  0  0  0  0  0  0
   12.4006   40.1686   11.5925 C   0  0  0  0  0  0  0  0  0  0  0  0
   12.6459   39.0100   12.3334 C   0  0  0  0  0  0  0  0  0  0  0  0
   13.8044   38.2649   12.1006 C   0  0  0  0  0  0  0  0  0  0  0  0
   14.7165   38.6774   11.1248 C   0  0  0  0  0  0  0  0  0  0  0  0
   17.3911   42.6026    8.3926 C   0  0  0  0  0  0  0  0  0  0  0  0
   18.3336   43.2222    7.5584 C   0  0  0  0  0  0  0  0  0  0  0  0
   19.6085   43.5363    8.0381 C   0  0  0  0  0  0  0  0  0  0  0  0
   19.9489   43.2431    9.3610 C   0  0  0  0  0  0  0  0  0  0  0  0
   19.0129   42.6406   10.2051 C   0  0  0  0  0  0  0  0  0  0  0  0
   17.7384   42.3274    9.7242 C   0  0  0  0  0  0  0  0  0  0  0  0
   11.7411   44.5354    3.3910 N   0  0  0  0  0  0  0  0  0  0  0  0
   11.2388   45.2586    2.4078 N   0  0  0  0  0  0  0  0  0  0  0  0
   13.4667   43.3108    5.5249 N   0  0  0  0  0  0  0  0  0  0  0  0
   15.5155   43.0639    6.8599 N   0  0  0  0  0  0  0  0  0  0  0  0
   15.0528   44.8799    4.8287 O   0  0  0  0  0  0  0  0  0  0  0  0
   16.5827   39.6957    9.2973 O   0  0  0  0  0  0  0  0  0  0  0  0
   13.7154   41.4325    7.5056 S   0  0  0  0  0  0  0  0  0  0  0  0
  1 23  1  0
  2  4  1  0
  3  2  1  0
  5  6  1  0
  5 23  1  0
  6 25  1  0
  7 29  1  0
  8 26  1  0
  8 17  1  0
  9 29  1  0
  9 10  1  0
 10 11  1  0
 12 13  2  0
 14 15  2  0
 16 11  2  0
 18 19  2  0
 20 21  2  0
 22 17  2  0
 23 24  1  0
 25  7  1  0
  2 24  2  0
  4  5  2  0
  6 27  2  0
  7 26  2  0
  8  9  2  0
 10 28  2  0
 11 12  1  0
 13 14  1  0
 15 16  1  0
 17 18  1  0
 19 20  1  0
 21 22  1  0
M  END
>  <rmsd>  (679) 
0.217482701

$$$$
MolPort-005-296-499 11695057 CSSS00106588480 MCULE-9651725630 PKTADVUQVLQCER-UHFFFAOYSA-N PubChem-42110475 ZINC000011695057 ZINC11695057
     RDKit          3D

 28 31  0  0  0  0  0  0  0  0999 V2000
   10.9962   43.4740    4.0397 C   0  0  0  0  0  0  0  0  0  0  0  0
   12.1876   46.1566    2.0310 C   0  0  0  0  0  0  0  0  0  0  0  0
   13.3257   45.9873    2.8086 C   0  0  0  0  0  0  0  0  0  0  0  0
   12.9987   44.9471    3.6600 C   0  0  0  0  0  0  0  0  0  0  0  0
   13.8979   44.3915    4.6907 C   0  0  0  0  0  0  0  0  0  0  0  0
   14.2529   42.6985    6.5514 C   0  0  0  0  0  0  0  0  0  0  0  0
   16.0344   42.3167    7.8750 C   0  0  0  0  0  0  0  0  0  0  0  0
   15.1571   41.3368    8.3767 C   0  0  0  0  0  0  0  0  0  0  0  0
   15.4608   40.2698    9.3534 C   0  0  0  0  0  0  0  0  0  0  0  0
   14.4765   39.8355   10.3696 C   0  0  0  0  0  0  0  0  0  0  0  0
   14.7161   38.6775   11.1256 C   0  0  0  0  0  0  0  0  0  0  0  0
   13.8041   38.2653   12.1016 C   0  0  0  0  0  0  0  0  0  0  0  0
   12.6457   39.0106   12.3345 C   0  0  0  0  0  0  0  0  0  0  0  0
   12.4004   40.1691   11.5935 C   0  0  0  0  0  0  0  0  0  0  0  0
   13.3129   40.5806   10.6179 C   0  0  0  0  0  0  0  0  0  0  0  0
   17.3907   42.6022    8.3927 C   0  0  0  0  0  0  0  0  0  0  0  0
   17.7382   42.3272    9.7243 C   0  0  0  0  0  0  0  0  0  0  0  0
   19.0128   42.6402   10.2049 C   0  0  0  0  0  0  0  0  0  0  0  0
   19.9488   43.2424    9.3606 C   0  0  0  0  0  0  0  0  0  0  0  0
   19.6082   43.5356    8.0378 C   0  0  0  0  0  0  0  0  0  0  0  0
   18.3333   43.2216    7.5583 C   0  0  0  0  0  0  0  0  0  0  0  0
   11.7438   44.5382    3.3903 N   0  0  0  0  0  0  0  0  0  0  0  0
   11.2484   45.2652    2.4071 N   0  0  0  0  0  0  0  0  0  0  0  0
   13.4661   43.3106    5.5255 N   0  0  0  0  0  0  0  0  0  0  0  0
   15.5151   43.0637    6.8603 N   0  0  0  0  0  0  0  0  0  0  0  0
   15.0523   44.8796    4.8287 O   0  0  0  0  0  0  0  0  0  0  0  0
   16.5821   39.6956    9.2977 O   0  0  0  0  0  0  0  0  0  0  0  0
   13.7148   41.4324    7.5063 S   0  0  0  0  0  0  0  0  0  0  0  0
  1 22  1  0
  2  3  1  0
  4  5  1  0
  4 22  1  0
  5 24  1  0
  6 28  1  0
  7 25  1  0
  7 16  1  0
  8 28  1  0
  8  9  1  0
  9 10  1  0
 11 12  2  0
 13 14  2  0
 15 10  2  0
 17 18  2  0
 19 20  2  0
 21 16  2  0
 22 23  1  0
 24  6  1  0
  2 23  2  0
  3  4  2  0
  5 26  2  0
  6 25  2  0
  7  8  2  0
  9 27  2  0
 10 11  1  0
 12 13  1  0
 14 15  1  0
 16 17  1  0
 18 19  1  0
 20 21  1  0
M  END
>  <rmsd>  (680) 
0.217482209

$$$$
MolPort-002-455-713 1423179 CSC026731286 CSSS00026731286 MCULE-9058263817 PubChem-1504069 Z57169730 ZINC000001423179 ZINC01423179
     RDKit          3D

 26 27  0  0  0  0  0  0  0  0999 V2000
   12.7611   39.1845   11.7781 C   0  0  0  0  0  0  0  0  0  0  0  0
   13.9371   38.9109   10.8640 C   0  0  0  0  0  0  0  0  0  0  0  0
   15.0014   40.7102    9.5615 C   0  0  0  0  0  0  0  0  0  0  0  0
   14.9428   41.6662    8.4368 C   0  0  0  0  0  0  0  0  0  0  0  0
   15.9103   42.5912    8.0620 C   0  0  0  0  0  0  0  0  0  0  0  0
   17.2243   42.8077    8.7302 C   0  0  0  0  0  0  0  0  0  0  0  0
   14.2965   42.8284    6.6720 C   0  0  0  0  0  0  0  0  0  0  0  0
   13.8952   44.3426    4.6730 C   0  0  0  0  0  0  0  0  0  0  0  0
   13.1273   45.8916    2.8047 C   0  0  0  0  0  0  0  0  0  0  0  0
   12.8128   45.7820    1.4461 C   0  0  0  0  0  0  0  0  0  0  0  0
   12.9092   46.8912    0.5927 C   0  0  0  0  0  0  0  0  0  0  0  0
   12.1956   45.5836   -1.3819 C   0  0  0  0  0  0  0  0  0  0  0  0
   13.3124   48.1221    1.1129 C   0  0  0  0  0  0  0  0  0  0  0  0
   13.6005   48.2512    2.4725 C   0  0  0  0  0  0  0  0  0  0  0  0
   13.4987   47.1464    3.3342 C   0  0  0  0  0  0  0  0  0  0  0  0
   14.0999   48.5245    5.3042 C   0  0  0  0  0  0  0  0  0  0  0  0
   13.9065   41.8272    7.5350 C   0  0  0  0  0  0  0  0  0  0  0  0
   12.6162   41.0809    7.4877 C   0  0  0  0  0  0  0  0  0  0  0  0
   13.9317   39.8428    9.7930 O   0  0  0  0  0  0  0  0  0  0  0  0
   16.0153   40.6780   10.3113 O   0  0  0  0  0  0  0  0  0  0  0  0
   15.0332   44.8785    4.7630 O   0  0  0  0  0  0  0  0  0  0  0  0
   12.6123   46.7964   -0.7696 O   0  0  0  0  0  0  0  0  0  0  0  0
   13.7290   47.2890    4.7075 O   0  0  0  0  0  0  0  0  0  0  0  0
   15.5192   43.3027    6.9852 N   0  0  0  0  0  0  0  0  0  0  0  0
   13.5022   43.3097    5.5816 N   0  0  0  0  0  0  0  0  0  0  0  0
   12.9972   44.7241    3.6263 N   0  0  0  0  0  0  0  0  0  0  0  0
  1  2  1  0
  2 19  1  0
  3 19  1  0
  3  4  1  0
  5 24  1  0
  6  5  1  0
  7 25  1  0
  8 26  1  0
 10 11  2  0
 11 22  1  0
 12 22  1  0
 13 14  2  0
 15 23  1  0
 15  9  2  0
 16 23  1  0
 17  4  1  0
 18 17  1  0
 24  7  1  0
 25  8  1  0
 26  9  1  0
  3 20  2  0
  4  5  2  0
  7 17  2  0
  8 21  2  0
  9 10  1  0
 11 13  1  0
 14 15  1  0
M  END
>  <rmsd>  (681) 
0.217144489

$$$$
MolPort-005-164-924 11753617 CSSS00159809594 MCULE-5538880029 PubChem-42147430 ZINC000011753617
     RDKit          3D

 28 31  0  0  0  0  0  0  0  0999 V2000
   15.0631   44.8743    4.8100 O   0  0  0  0  0  0  0  0  0  0  0  0
   13.9283   44.3491    4.6444 C   0  0  0  0  0  0  0  0  0  0  0  0
   14.1993   42.7837    6.6404 C   0  0  0  0  0  0  0  0  0  0  0  0
   15.4582   43.1697    7.0612 C   0  0  0  0  0  0  0  0  0  0  0  0
   15.6883   42.3625    8.1698 C   0  0  0  0  0  0  0  0  0  0  0  0
   12.4178   41.1807    7.3359 C   0  0  0  0  0  0  0  0  0  0  0  0
   12.5404   39.6485    7.3347 C   0  0  0  0  0  0  0  0  0  0  0  0
   12.1918   39.0270    8.6888 C   0  0  0  0  0  0  0  0  0  0  0  0
   12.4165   39.2144   11.0197 C   0  0  0  0  0  0  0  0  0  0  0  0
   13.7434   38.6204   11.4761 C   0  0  0  0  0  0  0  0  0  0  0  0
   14.7646   39.7095   11.7844 C   0  0  0  0  0  0  0  0  0  0  0  0
   14.0652   41.8145   12.8973 C   0  0  0  0  0  0  0  0  0  0  0  0
   13.7205   42.1999   14.1808 C   0  0  0  0  0  0  0  0  0  0  0  0
   13.8217   41.0449   14.9431 C   0  0  0  0  0  0  0  0  0  0  0  0
   11.6557   41.0603    9.7923 C   0  0  0  0  0  0  0  0  0  0  0  0
   11.4596   41.7123    8.4107 C   0  0  0  0  0  0  0  0  0  0  0  0
   13.0672   44.8003    3.5376 C   0  0  0  0  0  0  0  0  0  0  0  0
   13.4942   45.8085    2.6632 C   0  0  0  0  0  0  0  0  0  0  0  0
   11.4637   45.6723    1.4402 C   0  0  0  0  0  0  0  0  0  0  0  0
   10.9964   44.6650    2.2862 C   0  0  0  0  0  0  0  0  0  0  0  0
   11.8044   44.2301    3.3378 C   0  0  0  0  0  0  0  0  0  0  0  0
   13.4702   43.3153    5.5265 N   0  0  0  0  0  0  0  0  0  0  0  0
   14.6240   41.5585    8.3767 N   0  0  0  0  0  0  0  0  0  0  0  0
   13.7285   41.8174    7.4406 N   0  0  0  0  0  0  0  0  0  0  0  0
   12.5861   39.9293    9.7653 N   0  0  0  0  0  0  0  0  0  0  0  0
   14.3444   40.5029   12.9289 N   0  0  0  0  0  0  0  0  0  0  0  0
   14.2067   40.0270   14.1518 N   0  0  0  0  0  0  0  0  0  0  0  0
   12.6922   46.2189    1.6439 N   0  0  0  0  0  0  0  0  0  0  0  0
  2 22  1  0
  2 17  1  0
  4  5  1  0
  6 24  1  0
  6  7  1  0
  7  8  1  0
  8 25  1  0
  9 25  1  0
  9 10  1  0
 10 11  1  0
 11 26  1  0
 13 14  1  0
 15 25  1  0
 15 16  1  0
 16  6  1  0
 18 28  2  0
 19 20  2  0
 21 17  2  0
 22  3  1  0
 24 23  1  0
 24  3  1  0
 26 12  1  0
 26 27  1  0
  2  1  2  0
  3  4  2  0
  5 23  2  0
 12 13  2  0
 14 27  2  0
 17 18  1  0
 19 28  1  0
 20 21  1  0
M  END
>  <rmsd>  (682) 
0.217109933

$$$$
MolPort-009-692-461 9001749 CSSS00106926447 MCULE-7088930081 PubChem-16952129 VPBKKCCBLFWVNP-UHFFFAOYSA-N ZINC000009001749 ZINC09001749
     RDKit          3D

 29 32  0  0  0  0  0  0  0  0999 V2000
   12.2364   47.1855    1.0421 C   0  0  0  0  0  0  0  0  0  0  0  0
   12.9960   44.9319    3.6735 C   0  0  0  0  0  0  0  0  0  0  0  0
   11.7051   44.4808    3.4245 C   0  0  0  0  0  0  0  0  0  0  0  0
   11.2952   45.3036    2.3926 C   0  0  0  0  0  0  0  0  0  0  0  0
    9.9616   45.2487    1.7301 C   0  0  0  0  0  0  0  0  0  0  0  0
   13.9002   44.3901    4.6938 C   0  0  0  0  0  0  0  0  0  0  0  0
   14.2515   42.6963    6.5530 C   0  0  0  0  0  0  0  0  0  0  0  0
   16.0328   42.3147    7.8768 C   0  0  0  0  0  0  0  0  0  0  0  0
   15.1556   41.3346    8.3783 C   0  0  0  0  0  0  0  0  0  0  0  0
   15.4593   40.2675    9.3549 C   0  0  0  0  0  0  0  0  0  0  0  0
   14.4750   39.8331   10.3711 C   0  0  0  0  0  0  0  0  0  0  0  0
   13.3114   40.5780   10.6194 C   0  0  0  0  0  0  0  0  0  0  0  0
   12.3990   40.1663   11.5950 C   0  0  0  0  0  0  0  0  0  0  0  0
   12.6444   39.0078   12.3360 C   0  0  0  0  0  0  0  0  0  0  0  0
   13.8029   38.2627   12.1030 C   0  0  0  0  0  0  0  0  0  0  0  0
   14.7148   38.6751   11.1270 C   0  0  0  0  0  0  0  0  0  0  0  0
   17.3889   42.6003    8.3948 C   0  0  0  0  0  0  0  0  0  0  0  0
   17.7362   42.3252    9.7265 C   0  0  0  0  0  0  0  0  0  0  0  0
   19.0108   42.6383   10.2073 C   0  0  0  0  0  0  0  0  0  0  0  0
   19.9468   43.2408    9.3632 C   0  0  0  0  0  0  0  0  0  0  0  0
   19.6064   43.5342    8.0405 C   0  0  0  0  0  0  0  0  0  0  0  0
   18.3315   43.2200    7.5608 C   0  0  0  0  0  0  0  0  0  0  0  0
   12.2784   46.1627    2.0735 N   0  0  0  0  0  0  0  0  0  0  0  0
   13.3240   45.9468    2.8486 N   0  0  0  0  0  0  0  0  0  0  0  0
   13.4650   43.3087    5.5268 N   0  0  0  0  0  0  0  0  0  0  0  0
   15.5135   43.0617    6.8621 N   0  0  0  0  0  0  0  0  0  0  0  0
   15.0529   44.8824    4.8280 O   0  0  0  0  0  0  0  0  0  0  0  0
   16.5807   39.6934    9.2991 O   0  0  0  0  0  0  0  0  0  0  0  0
   13.7134   41.4301    7.5077 S   0  0  0  0  0  0  0  0  0  0  0  0
  1 23  1  0
  2  3  1  0
  2  6  1  0
  4 23  1  0
  5  4  1  0
  6 25  1  0
  7 29  1  0
  8 26  1  0
  8 17  1  0
  9 29  1  0
  9 10  1  0
 10 11  1  0
 12 13  2  0
 14 15  2  0
 16 11  2  0
 18 19  2  0
 20 21  2  0
 22 17  2  0
 23 24  1  0
 25  7  1  0
  2 24  2  0
  3  4  2  0
  6 27  2  0
  7 26  2  0
  8  9  2  0
 10 28  2  0
 11 12  1  0
 13 14  1  0
 15 16  1  0
 17 18  1  0
 19 20  1  0
 21 22  1  0
M  END
>  <rmsd>  (683) 
0.217031762

$$$$
MolPort-001-657-850 8782554 CSSS00160412166 PubChem-19584611 ZINC000008782554 ZINC08782554
     RDKit          3D

 24 25  0  0  0  0  0  0  0  0999 V2000
   13.0392   39.4613   12.0114 C   0  0  0  0  0  0  0  0  0  0  0  0
   14.0652   39.3481   10.9034 C   0  0  0  0  0  0  0  0  0  0  0  0
   14.9288   40.2349    9.0770 C   0  0  0  0  0  0  0  0  0  0  0  0
   13.8635   41.5913    7.2864 C   0  0  0  0  0  0  0  0  0  0  0  0
   14.2659   42.6698    6.5321 C   0  0  0  0  0  0  0  0  0  0  0  0
   13.8837   44.4230    4.7287 C   0  0  0  0  0  0  0  0  0  0  0  0
   12.9428   44.9573    3.7311 C   0  0  0  0  0  0  0  0  0  0  0  0
   12.9580   46.1724    3.1665 C   0  0  0  0  0  0  0  0  0  0  0  0
   13.8237   47.3152    3.5068 C   0  0  0  0  0  0  0  0  0  0  0  0
   14.1396   48.2342    2.5010 C   0  0  0  0  0  0  0  0  0  0  0  0
   14.9030   49.3679    2.7938 C   0  0  0  0  0  0  0  0  0  0  0  0
   15.3441   49.6047    4.1056 C   0  0  0  0  0  0  0  0  0  0  0  0
   16.4832   51.7169    3.4794 C   0  0  0  0  0  0  0  0  0  0  0  0
   15.0042   48.7007    5.1165 C   0  0  0  0  0  0  0  0  0  0  0  0
   14.2405   47.5679    4.8218 C   0  0  0  0  0  0  0  0  0  0  0  0
   15.5479   43.0074    6.9270 C   0  0  0  0  0  0  0  0  0  0  0  0
   13.9543   40.4471   10.0530 O   0  0  0  0  0  0  0  0  0  0  0  0
   15.0513   44.8862    4.8298 O   0  0  0  0  0  0  0  0  0  0  0  0
   16.1153   50.7251    4.4306 O   0  0  0  0  0  0  0  0  0  0  0  0
   14.8946   41.3131    8.1040 N   0  0  0  0  0  0  0  0  0  0  0  0
   13.4715   43.3084    5.5268 N   0  0  0  0  0  0  0  0  0  0  0  0
   15.9034   42.1448    7.8989 N   0  0  0  0  0  0  0  0  0  0  0  0
   17.4181   52.5653    4.0402 F   0  0  0  0  0  0  0  0  0  0  0  0
   15.3688   52.4473    3.1093 F   0  0  0  0  0  0  0  0  0  0  0  0
  1  2  1  0
  2 17  1  0
  3 17  1  0
  3 20  1  0
  5 21  1  0
  5 16  1  0
  6  7  1  0
  8  9  1  0
 10 11  2  0
 12 19  1  0
 12 14  2  0
 13 19  1  0
 13 23  1  0
 13 24  1  0
 15  9  2  0
 20  4  1  0
 20 22  1  0
 21  6  1  0
  4  5  2  0
  6 18  2  0
  7  8  2  0
  9 10  1  0
 11 12  1  0
 14 15  1  0
 16 22  2  0
M  END
>  <rmsd>  (684) 
0.216989145

$$$$
MolPort-009-692-523 9203998 CSSS00106609010 MCULE-8697503382 PubChem-16953668 UXYJRMSYGVHNHR-UHFFFAOYSA-N ZINC000009203998 ZINC09203998
     RDKit          3D

 28 31  0  0  0  0  0  0  0  0999 V2000
   11.8535   47.0322    0.9850 C   0  0  0  0  0  0  0  0  0  0  0  0
   12.1130   46.0632    2.0818 C   0  0  0  0  0  0  0  0  0  0  0  0
   13.2846   45.9676    2.8060 C   0  0  0  0  0  0  0  0  0  0  0  0
   12.9925   44.9285    3.6750 C   0  0  0  0  0  0  0  0  0  0  0  0
   13.9004   44.3903    4.6939 C   0  0  0  0  0  0  0  0  0  0  0  0
   14.2510   42.6975    6.5535 C   0  0  0  0  0  0  0  0  0  0  0  0
   16.0322   42.3165    7.8780 C   0  0  0  0  0  0  0  0  0  0  0  0
   15.1553   41.3360    8.3790 C   0  0  0  0  0  0  0  0  0  0  0  0
   15.4593   40.2688    9.3554 C   0  0  0  0  0  0  0  0  0  0  0  0
   14.4752   39.8335   10.3713 C   0  0  0  0  0  0  0  0  0  0  0  0
   14.7158   38.6758   11.1274 C   0  0  0  0  0  0  0  0  0  0  0  0
   13.8041   38.2627   12.1034 C   0  0  0  0  0  0  0  0  0  0  0  0
   12.6451   39.0069   12.3361 C   0  0  0  0  0  0  0  0  0  0  0  0
   12.3989   40.1652   11.5950 C   0  0  0  0  0  0  0  0  0  0  0  0
   13.3110   40.5776   10.6196 C   0  0  0  0  0  0  0  0  0  0  0  0
   17.3882   42.6026    8.3962 C   0  0  0  0  0  0  0  0  0  0  0  0
   18.3308   43.2222    7.5621 C   0  0  0  0  0  0  0  0  0  0  0  0
   19.6054   43.5369    8.0422 C   0  0  0  0  0  0  0  0  0  0  0  0
   19.9454   43.2441    9.3652 C   0  0  0  0  0  0  0  0  0  0  0  0
   19.0095   42.6413   10.2091 C   0  0  0  0  0  0  0  0  0  0  0  0
   17.7353   42.3276    9.7279 C   0  0  0  0  0  0  0  0  0  0  0  0
   11.7462   44.4634    3.4647 N   0  0  0  0  0  0  0  0  0  0  0  0
   13.4649   43.3096    5.5270 N   0  0  0  0  0  0  0  0  0  0  0  0
   15.5129   43.0633    6.8632 N   0  0  0  0  0  0  0  0  0  0  0  0
   11.2479   45.1716    2.4974 O   0  0  0  0  0  0  0  0  0  0  0  0
   15.0537   44.8820    4.8277 O   0  0  0  0  0  0  0  0  0  0  0  0
   16.5811   39.6952    9.2996 O   0  0  0  0  0  0  0  0  0  0  0  0
   13.7133   41.4309    7.5080 S   0  0  0  0  0  0  0  0  0  0  0  0
  1  2  1  0
  2 25  1  0
  3  4  1  0
  4  5  1  0
  5 23  1  0
  6 28  1  0
  7 24  1  0
  7 16  1  0
  8 28  1  0
  8  9  1  0
  9 10  1  0
 11 12  2  0
 13 14  2  0
 15 10  2  0
 17 18  2  0
 19 20  2  0
 21 16  2  0
 22 25  1  0
 23  6  1  0
  2  3  2  0
  4 22  2  0
  5 26  2  0
  6 24  2  0
  7  8  2  0
  9 27  2  0
 10 11  1  0
 12 13  1  0
 14 15  1  0
 16 17  1  0
 18 19  1  0
 20 21  1  0
M  END
>  <rmsd>  (685) 
0.216876775

$$$$
MolPort-005-291-842 12422387 CSSS00106609014 MCULE-9814528495 PubChem-16879787 ZINC000012422387 ZINC12422387
     RDKit          3D

 28 31  0  0  0  0  0  0  0  0999 V2000
   10.0155   45.3076    1.6999 C   0  0  0  0  0  0  0  0  0  0  0  0
   11.3350   45.3333    2.3837 C   0  0  0  0  0  0  0  0  0  0  0  0
   12.9992   44.9320    3.6740 C   0  0  0  0  0  0  0  0  0  0  0  0
   11.7125   44.4939    3.4148 C   0  0  0  0  0  0  0  0  0  0  0  0
   13.9013   44.3895    4.6941 C   0  0  0  0  0  0  0  0  0  0  0  0
   14.2519   42.6959    6.5532 C   0  0  0  0  0  0  0  0  0  0  0  0
   16.0331   42.3141    7.8771 C   0  0  0  0  0  0  0  0  0  0  0  0
   15.1558   41.3342    8.3786 C   0  0  0  0  0  0  0  0  0  0  0  0
   15.4592   40.2672    9.3554 C   0  0  0  0  0  0  0  0  0  0  0  0
   14.4749   39.8329   10.3716 C   0  0  0  0  0  0  0  0  0  0  0  0
   14.7145   38.6750   11.1276 C   0  0  0  0  0  0  0  0  0  0  0  0
   13.8025   38.2628   12.1036 C   0  0  0  0  0  0  0  0  0  0  0  0
   12.6441   39.0081   12.3365 C   0  0  0  0  0  0  0  0  0  0  0  0
   12.3988   40.1666   11.5953 C   0  0  0  0  0  0  0  0  0  0  0  0
   13.3114   40.5781   10.6198 C   0  0  0  0  0  0  0  0  0  0  0  0
   17.3894   42.5996    8.3951 C   0  0  0  0  0  0  0  0  0  0  0  0
   18.3321   43.2190    7.5609 C   0  0  0  0  0  0  0  0  0  0  0  0
   19.6070   43.5329    8.0407 C   0  0  0  0  0  0  0  0  0  0  0  0
   19.9473   43.2397    9.3636 C   0  0  0  0  0  0  0  0  0  0  0  0
   19.0112   42.6375   10.2076 C   0  0  0  0  0  0  0  0  0  0  0  0
   17.7366   42.3245    9.7267 C   0  0  0  0  0  0  0  0  0  0  0  0
   12.3221   46.1904    2.0683 N   0  0  0  0  0  0  0  0  0  0  0  0
   13.4657   43.3084    5.5270 N   0  0  0  0  0  0  0  0  0  0  0  0
   15.5140   43.0611    6.8623 N   0  0  0  0  0  0  0  0  0  0  0  0
   13.3090   45.9187    2.8669 O   0  0  0  0  0  0  0  0  0  0  0  0
   15.0536   44.8821    4.8274 O   0  0  0  0  0  0  0  0  0  0  0  0
   16.5807   39.6928    9.2997 O   0  0  0  0  0  0  0  0  0  0  0  0
   13.7136   41.4298    7.5080 S   0  0  0  0  0  0  0  0  0  0  0  0
  1  2  1  0
  3 25  1  0
  3  5  1  0
  4  2  1  0
  5 23  1  0
  6 28  1  0
  7 24  1  0
  7 16  1  0
  8 28  1  0
  8  9  1  0
  9 10  1  0
 11 12  2  0
 13 14  2  0
 15 10  2  0
 17 18  2  0
 19 20  2  0
 21 16  2  0
 22 25  1  0
 23  6  1  0
  2 22  2  0
  3  4  2  0
  5 26  2  0
  6 24  2  0
  7  8  2  0
  9 27  2  0
 10 11  1  0
 12 13  1  0
 14 15  1  0
 16 17  1  0
 18 19  1  0
 20 21  1  0
M  END
>  <rmsd>  (686) 
0.216825217

$$$$
MolPort-003-172-299 10253880 CSSS03437139166 MCULE-1331929296 PubChem-18587237 SRKPZIIQFUHGMN-UHFFFAOYSA-N ZINC000010253880 ZINC10253880
     RDKit          3D

 27 30  0  0  0  0  0  0  0  0999 V2000
   15.0536   44.8824    4.8272 O   0  0  0  0  0  0  0  0  0  0  0  0
   16.5794   39.6921    9.2988 O   0  0  0  0  0  0  0  0  0  0  0  0
   13.3043   45.9164    2.8674 O   0  0  0  0  0  0  0  0  0  0  0  0
   13.9012   44.3901    4.6939 C   0  0  0  0  0  0  0  0  0  0  0  0
   14.2514   42.6962    6.5527 C   0  0  0  0  0  0  0  0  0  0  0  0
   16.0326   42.3137    7.8766 C   0  0  0  0  0  0  0  0  0  0  0  0
   15.1551   41.3341    8.3780 C   0  0  0  0  0  0  0  0  0  0  0  0
   15.4582   40.2668    9.3547 C   0  0  0  0  0  0  0  0  0  0  0  0
   14.4738   39.8326   10.3708 C   0  0  0  0  0  0  0  0  0  0  0  0
   14.7132   38.6745   11.1266 C   0  0  0  0  0  0  0  0  0  0  0  0
   13.8012   38.2625   12.1026 C   0  0  0  0  0  0  0  0  0  0  0  0
   12.6430   39.0081   12.3357 C   0  0  0  0  0  0  0  0  0  0  0  0
   12.3980   40.1667   11.5947 C   0  0  0  0  0  0  0  0  0  0  0  0
   13.3105   40.5781   10.6192 C   0  0  0  0  0  0  0  0  0  0  0  0
   17.3890   42.5987    8.3946 C   0  0  0  0  0  0  0  0  0  0  0  0
   18.3318   43.2180    7.5603 C   0  0  0  0  0  0  0  0  0  0  0  0
   19.6069   43.5315    8.0401 C   0  0  0  0  0  0  0  0  0  0  0  0
   19.9471   43.2381    9.3629 C   0  0  0  0  0  0  0  0  0  0  0  0
   19.0108   42.6360   10.2070 C   0  0  0  0  0  0  0  0  0  0  0  0
   17.7362   42.3234    9.7261 C   0  0  0  0  0  0  0  0  0  0  0  0
   12.9992   44.9329    3.6740 C   0  0  0  0  0  0  0  0  0  0  0  0
   11.7146   44.5002    3.4110 C   0  0  0  0  0  0  0  0  0  0  0  0
   11.3120   45.3299    2.3762 C   0  0  0  0  0  0  0  0  0  0  0  0
   13.4653   43.3090    5.5266 N   0  0  0  0  0  0  0  0  0  0  0  0
   15.5137   43.0609    6.8618 N   0  0  0  0  0  0  0  0  0  0  0  0
   12.3126   46.1812    2.0735 N   0  0  0  0  0  0  0  0  0  0  0  0
   13.7128   41.4302    7.5074 S   0  0  0  0  0  0  0  0  0  0  0  0
  4 24  1  0
  4 21  1  0
  5 27  1  0
  6 25  1  0
  6 15  1  0
  7 27  1  0
  7  8  1  0
  8  9  1  0
 10 11  2  0
 12 13  2  0
 14  9  2  0
 16 17  2  0
 18 19  2  0
 20 15  2  0
 21  3  1  0
 22 23  1  0
 24  5  1  0
 26  3  1  0
  4  1  2  0
  5 25  2  0
  6  7  2  0
  8  2  2  0
  9 10  1  0
 11 12  1  0
 13 14  1  0
 15 16  1  0
 17 18  1  0
 19 20  1  0
 21 22  2  0
 23 26  2  0
M  END
>  <rmsd>  (687) 
0.21669811

$$$$
MolPort-051-561-905 CHEMBL5994056 CSSS06454646771 MCULE-8069612432 PubChem-135378781
     RDKit          3D

 34 37  0  0  0  0  0  0  0  0999 V2000
   16.5186   41.5095   11.4398 C   0  0  0  0  0  0  0  0  0  0  0  0
   16.4767   43.8175   12.3852 C   0  0  0  0  0  0  0  0  0  0  0  0
   17.0542   43.4806    9.9671 C   0  0  0  0  0  0  0  0  0  0  0  0
   17.2265   42.5927    8.7763 C   0  0  0  0  0  0  0  0  0  0  0  0
   15.6025   43.2107    7.0008 C   0  0  0  0  0  0  0  0  0  0  0  0
   14.3274   42.8000    6.6635 C   0  0  0  0  0  0  0  0  0  0  0  0
   13.9727   41.8100    7.5682 C   0  0  0  0  0  0  0  0  0  0  0  0
   12.6924   41.0572    7.6347 C   0  0  0  0  0  0  0  0  0  0  0  0
   12.4296   40.1180    8.6609 C   0  0  0  0  0  0  0  0  0  0  0  0
   11.2019   39.4332    8.6732 C   0  0  0  0  0  0  0  0  0  0  0  0
   10.2420   39.6709    7.6894 C   0  0  0  0  0  0  0  0  0  0  0  0
   10.4980   40.5965    6.6799 C   0  0  0  0  0  0  0  0  0  0  0  0
   11.7125   41.2815    6.6550 C   0  0  0  0  0  0  0  0  0  0  0  0
   13.1752   38.9786   10.7414 C   0  0  0  0  0  0  0  0  0  0  0  0
   13.8910   44.3344    4.6757 C   0  0  0  0  0  0  0  0  0  0  0  0
   12.9439   44.7478    3.6322 C   0  0  0  0  0  0  0  0  0  0  0  0
   13.1055   45.7043    2.6591 C   0  0  0  0  0  0  0  0  0  0  0  0
   14.0986   47.3897    1.3781 C   0  0  0  0  0  0  0  0  0  0  0  0
   12.9384   47.4663    0.5816 C   0  0  0  0  0  0  0  0  0  0  0  0
   11.8618   46.6172    0.8739 C   0  0  0  0  0  0  0  0  0  0  0  0
   11.6610   44.2432    3.4119 C   0  0  0  0  0  0  0  0  0  0  0  0
   16.6852   42.9408   11.2450 N   0  0  0  0  0  0  0  0  0  0  0  0
   15.9668   42.4673    8.0626 N   0  0  0  0  0  0  0  0  0  0  0  0
   15.0032   41.6318    8.4172 N   0  0  0  0  0  0  0  0  0  0  0  0
   13.5137   43.3059    5.5982 N   0  0  0  0  0  0  0  0  0  0  0  0
   14.1723   46.5048    2.4153 N   0  0  0  0  0  0  0  0  0  0  0  0
   11.9991   45.7629    1.9155 N   0  0  0  0  0  0  0  0  0  0  0  0
   11.1095   44.8884    2.3509 N   0  0  0  0  0  0  0  0  0  0  0  0
   17.2067   44.7235    9.8244 O   0  0  0  0  0  0  0  0  0  0  0  0
   13.3866   39.8721    9.6547 O   0  0  0  0  0  0  0  0  0  0  0  0
   15.0226   44.8841    4.7517 O   0  0  0  0  0  0  0  0  0  0  0  0
    9.2981   40.9007    5.4429 Cl  0  0  0  0  0  0  0  0  0  0  0  0
   14.3686   38.7769   11.4069 F   0  0  0  0  0  0  0  0  0  0  0  0
   12.2505   39.5177   11.6170 F   0  0  0  0  0  0  0  0  0  0  0  0
  1 22  1  0
  2 22  1  0
  4  3  1  0
  4 23  1  0
  6  7  1  0
  6 25  1  0
  7  8  1  0
  9 10  2  0
  9 30  1  0
 11 12  2  0
 12 32  1  0
 13  8  2  0
 14 30  1  0
 14 33  1  0
 14 34  1  0
 15 16  1  0
 17 26  1  0
 18 19  1  0
 20 27  1  0
 21 16  1  0
 22  3  1  0
 23  5  1  0
 23 24  1  0
 25 15  1  0
 27 28  1  0
 27 17  1  0
  3 29  2  0
  5  6  2  0
  7 24  2  0
  8  9  1  0
 10 11  1  0
 12 13  1  0
 15 31  2  0
 16 17  2  0
 18 26  2  0
 19 20  2  0
 21 28  2  0
M  END
>  <rmsd>  (688) 
0.216191873

$$$$
MolPort-003-009-719 1509443 BKPLWSSOYAGQPR-UHFFFAOYSA-N CSSS00104891008 LN01379873 MCULE-7706064655 PubChem-160276703 PubChem-3279893 ZINC000001509443 ZINC01509443
     RDKit          3D

 23 25  0  0  0  0  0  0  0  0999 V2000
   12.9835   44.9346    3.6658 C   0  0  0  0  0  0  0  0  0  0  0  0
   13.9028   44.3887    4.6975 C   0  0  0  0  0  0  0  0  0  0  0  0
   14.2506   42.6953    6.5544 C   0  0  0  0  0  0  0  0  0  0  0  0
   16.0316   42.3110    7.8780 C   0  0  0  0  0  0  0  0  0  0  0  0
   15.1533   41.3319    8.3793 C   0  0  0  0  0  0  0  0  0  0  0  0
   15.4559   40.2642    9.3556 C   0  0  0  0  0  0  0  0  0  0  0  0
   14.4715   39.8306   10.3718 C   0  0  0  0  0  0  0  0  0  0  0  0
   13.3087   40.5769   10.6206 C   0  0  0  0  0  0  0  0  0  0  0  0
   12.3960   40.1661   11.5963 C   0  0  0  0  0  0  0  0  0  0  0  0
   12.6402   39.0070   12.3370 C   0  0  0  0  0  0  0  0  0  0  0  0
   13.7978   38.2606   12.1036 C   0  0  0  0  0  0  0  0  0  0  0  0
   14.7100   38.6721   11.1275 C   0  0  0  0  0  0  0  0  0  0  0  0
   17.3883   42.5949    8.3960 C   0  0  0  0  0  0  0  0  0  0  0  0
   18.3317   43.2133    7.5619 C   0  0  0  0  0  0  0  0  0  0  0  0
   19.6071   43.5255    8.0416 C   0  0  0  0  0  0  0  0  0  0  0  0
   19.9471   43.2316    9.3644 C   0  0  0  0  0  0  0  0  0  0  0  0
   19.0102   42.6303   10.2084 C   0  0  0  0  0  0  0  0  0  0  0  0
   17.7353   42.3190    9.7276 C   0  0  0  0  0  0  0  0  0  0  0  0
   15.0536   44.8840    4.8261 O   0  0  0  0  0  0  0  0  0  0  0  0
   16.5766   39.6886    9.2994 O   0  0  0  0  0  0  0  0  0  0  0  0
   13.4651   43.3090    5.5282 N   0  0  0  0  0  0  0  0  0  0  0  0
   15.5133   43.0590    6.8635 N   0  0  0  0  0  0  0  0  0  0  0  0
   13.7112   41.4294    7.5089 S   0  0  0  0  0  0  0  0  0  0  0  0
  1  2  1  0
  2 21  1  0
  3 23  1  0
  4 22  1  0
  4 13  1  0
  5 23  1  0
  5  6  1  0
  6  7  1  0
  8  9  2  0
 10 11  2  0
 12  7  2  0
 14 15  2  0
 16 17  2  0
 18 13  2  0
 21  3  1  0
  2 19  2  0
  3 22  2  0
  4  5  2  0
  6 20  2  0
  7  8  1  0
  9 10  1  0
 11 12  1  0
 13 14  1  0
 15 16  1  0
 17 18  1  0
M  END
>  <rmsd>  (689) 
0.215586141

$$$$
MolPort-007-723-652 CHEMBL1533885 ChemDiv-E157-7157 MCULE-1767363288 PubChem-16017540 ZINC000008588143 ZINC08588143
     RDKit          3D

 29 31  0  0  0  0  0  0  0  0999 V2000
   13.6738   38.4664   11.5181 C   0  0  0  0  0  0  0  0  0  0  0  0
   13.1836   39.8086   11.0057 C   0  0  0  0  0  0  0  0  0  0  0  0
   14.0223   41.9933   11.9057 C   0  0  0  0  0  0  0  0  0  0  0  0
   13.5763   41.9188   13.2463 C   0  0  0  0  0  0  0  0  0  0  0  0
   13.3637   40.6177   13.9403 C   0  0  0  0  0  0  0  0  0  0  0  0
   13.3692   43.0920   13.9793 C   0  0  0  0  0  0  0  0  0  0  0  0
   13.5983   44.3401   13.3980 C   0  0  0  0  0  0  0  0  0  0  0  0
   13.3733   45.5797   14.1859 C   0  0  0  0  0  0  0  0  0  0  0  0
   14.0477   44.4229   12.0802 C   0  0  0  0  0  0  0  0  0  0  0  0
   14.2586   43.2574   11.3414 C   0  0  0  0  0  0  0  0  0  0  0  0
   15.1779   41.7125    8.5676 C   0  0  0  0  0  0  0  0  0  0  0  0
   14.2595   42.8159    6.6601 C   0  0  0  0  0  0  0  0  0  0  0  0
   13.9087   44.3342    4.6522 C   0  0  0  0  0  0  0  0  0  0  0  0
   13.0142   44.7585    3.5609 C   0  0  0  0  0  0  0  0  0  0  0  0
   11.7512   44.1675    3.4095 C   0  0  0  0  0  0  0  0  0  0  0  0
   10.9017   44.5693    2.3745 C   0  0  0  0  0  0  0  0  0  0  0  0
   11.3092   45.5654    1.4831 C   0  0  0  0  0  0  0  0  0  0  0  0
   12.5657   46.1598    1.6264 C   0  0  0  0  0  0  0  0  0  0  0  0
   13.4152   45.7579    2.6614 C   0  0  0  0  0  0  0  0  0  0  0  0
   14.2371   40.8129   11.1088 N   0  0  0  0  0  0  0  0  0  0  0  0
   16.0095   42.6379    8.0417 N   0  0  0  0  0  0  0  0  0  0  0  0
   15.4985   43.2532    6.9772 N   0  0  0  0  0  0  0  0  0  0  0  0
   13.4855   43.3118    5.5639 N   0  0  0  0  0  0  0  0  0  0  0  0
   15.5620   40.7537    9.9821 S   0  0  0  0  0  0  0  0  0  0  0  0
   13.7296   41.6160    7.7134 S   0  0  0  0  0  0  0  0  0  0  0  0
   16.7953   41.3015   10.6439 O   0  0  0  0  0  0  0  0  0  0  0  0
   15.8302   39.3355    9.5632 O   0  0  0  0  0  0  0  0  0  0  0  0
   15.0423   44.8727    4.7793 O   0  0  0  0  0  0  0  0  0  0  0  0
   10.4861   45.9548    0.4804 F   0  0  0  0  0  0  0  0  0  0  0  0
  1  2  1  0
  2 20  1  0
  4  6  2  0
  5  4  1  0
  7  9  2  0
  8  7  1  0
 10  3  2  0
 11 25  1  0
 12 23  1  0
 12 25  1  0
 13 14  1  0
 15 16  2  0
 17 29  1  0
 17 18  2  0
 19 14  2  0
 20  3  1  0
 21 22  1  0
 23 13  1  0
 24 20  1  0
 24 11  1  0
  3  4  1  0
  6  7  1  0
  9 10  1  0
 11 21  2  0
 12 22  2  0
 13 28  2  0
 14 15  1  0
 16 17  1  0
 18 19  1  0
 24 26  2  0
 24 27  2  0
M  END
>  <rmsd>  (690) 
0.215511173

$$$$
MolPort-035-704-099 LN00427521 PubChem-86207152 ZINC000218305408
     RDKit          3D

 30 33  0  0  0  0  0  0  0  0999 V2000
   16.2594   37.1796   13.6697 C   0  0  0  0  0  0  0  0  0  0  0  0
   17.0294   39.3341   12.6559 C   0  0  0  0  0  0  0  0  0  0  0  0
   18.1102   40.2138   12.5196 C   0  0  0  0  0  0  0  0  0  0  0  0
   17.9914   41.3881   11.7740 C   0  0  0  0  0  0  0  0  0  0  0  0
   16.7816   41.7032   11.1550 C   0  0  0  0  0  0  0  0  0  0  0  0
   16.6688   42.9402   10.3309 C   0  0  0  0  0  0  0  0  0  0  0  0
   17.0034   42.6430    8.8766 C   0  0  0  0  0  0  0  0  0  0  0  0
   15.7590   42.5002    8.0675 C   0  0  0  0  0  0  0  0  0  0  0  0
   14.2659   42.8011    6.6457 C   0  0  0  0  0  0  0  0  0  0  0  0
   13.9056   44.3614    4.6771 C   0  0  0  0  0  0  0  0  0  0  0  0
   12.9749   44.8306    3.6121 C   0  0  0  0  0  0  0  0  0  0  0  0
   12.4385   46.1846    3.9395 C   0  0  0  0  0  0  0  0  0  0  0  0
   11.4183   46.4780    4.8379 C   0  0  0  0  0  0  0  0  0  0  0  0
   12.1175   48.3528    4.0508 C   0  0  0  0  0  0  0  0  0  0  0  0
   12.3080   49.7068    3.7781 C   0  0  0  0  0  0  0  0  0  0  0  0
   13.3161   50.0534    2.8602 C   0  0  0  0  0  0  0  0  0  0  0  0
   14.1001   49.0537    2.2444 C   0  0  0  0  0  0  0  0  0  0  0  0
   13.8857   47.6955    2.5386 C   0  0  0  0  0  0  0  0  0  0  0  0
   12.8804   47.3877    3.4524 C   0  0  0  0  0  0  0  0  0  0  0  0
   15.6946   40.8347   11.2766 C   0  0  0  0  0  0  0  0  0  0  0  0
   15.7996   39.6462   12.0199 C   0  0  0  0  0  0  0  0  0  0  0  0
   13.4533   39.0436   11.4968 C   0  0  0  0  0  0  0  0  0  0  0  0
   17.2390   38.1792   13.4251 O   0  0  0  0  0  0  0  0  0  0  0  0
   15.0471   44.8831    4.7821 O   0  0  0  0  0  0  0  0  0  0  0  0
   14.7018   38.7836   12.1232 O   0  0  0  0  0  0  0  0  0  0  0  0
   15.4491   43.3127    7.0390 N   0  0  0  0  0  0  0  0  0  0  0  0
   13.4907   43.3112    5.5566 N   0  0  0  0  0  0  0  0  0  0  0  0
   11.2217   47.8202    4.9016 N   0  0  0  0  0  0  0  0  0  0  0  0
   13.8787   41.7458    7.3827 N   0  0  0  0  0  0  0  0  0  0  0  0
   14.8282   41.5515    8.2809 N   0  0  0  0  0  0  0  0  0  0  0  0
  1 23  1  0
  2 23  1  0
  3  4  2  0
  5 20  2  0
  6  5  1  0
  6  7  1  0
  7  8  1  0
  9 26  1  0
  9 27  1  0
 11 10  1  0
 11 12  1  0
 13 28  1  0
 15 16  2  0
 17 18  2  0
 19 12  1  0
 19 14  2  0
 21 25  1  0
 21  2  2  0
 22 25  1  0
 27 10  1  0
 28 14  1  0
 30 29  1  0
 30  8  1  0
  2  3  1  0
  4  5  1  0
  8 26  2  0
  9 29  2  0
 10 24  2  0
 12 13  2  0
 14 15  1  0
 16 17  1  0
 18 19  1  0
 20 21  1  0
M  END
>  <rmsd>  (691) 
0.215330914

$$$$
Molport-047-895-750 PubChem-165931047
     RDKit          3D

 24 25  0  0  0  0  0  0  0  0999 V2000
   13.5158   39.5741   12.0958 C   0  0  0  0  0  0  0  0  0  0  0  0
   13.7187   38.8408   10.7825 C   0  0  0  0  0  0  0  0  0  0  0  0
   14.8603   40.6096    9.4790 C   0  0  0  0  0  0  0  0  0  0  0  0
   14.8248   41.5782    8.3646 C   0  0  0  0  0  0  0  0  0  0  0  0
   15.8154   42.4816    7.9954 C   0  0  0  0  0  0  0  0  0  0  0  0
   14.2211   42.7826    6.6167 C   0  0  0  0  0  0  0  0  0  0  0  0
   13.7933   41.7820    7.4625 C   0  0  0  0  0  0  0  0  0  0  0  0
   12.5254   41.1012    7.4037 C   0  0  0  0  0  0  0  0  0  0  0  0
   13.9233   44.3539    4.6562 C   0  0  0  0  0  0  0  0  0  0  0  0
   13.4858   45.8168    2.7267 C   0  0  0  0  0  0  0  0  0  0  0  0
   12.3998   46.0638    1.7410 C   0  0  0  0  0  0  0  0  0  0  0  0
   11.3961   46.9963    2.0244 C   0  0  0  0  0  0  0  0  0  0  0  0
   10.3615   47.2107    1.1085 C   0  0  0  0  0  0  0  0  0  0  0  0
   10.3265   46.4887   -0.0886 C   0  0  0  0  0  0  0  0  0  0  0  0
   11.3248   45.5503   -0.3689 C   0  0  0  0  0  0  0  0  0  0  0  0
   12.3596   45.3357    0.5469 C   0  0  0  0  0  0  0  0  0  0  0  0
   17.1396   42.6660    8.6528 C   0  0  0  0  0  0  0  0  0  0  0  0
   13.7683   39.7647    9.7018 O   0  0  0  0  0  0  0  0  0  0  0  0
   15.8761   40.5415   10.2235 O   0  0  0  0  0  0  0  0  0  0  0  0
   15.4261   43.1823    6.9535 O   0  0  0  0  0  0  0  0  0  0  0  0
   15.0632   44.8701    4.8193 O   0  0  0  0  0  0  0  0  0  0  0  0
   13.0920   44.7893    3.6248 O   0  0  0  0  0  0  0  0  0  0  0  0
   11.5066   40.5545    7.3561 N   0  0  0  0  0  0  0  0  0  0  0  0
   13.4642   43.3148    5.5249 N   0  0  0  0  0  0  0  0  0  0  0  0
  1  2  1  0
  2 18  1  0
  3 18  1  0
  3  4  1  0
  5 20  1  0
  6 20  1  0
  6 24  1  0
  7  8  1  0
  7  4  1  0
  9 22  1  0
 10 22  1  0
 10 11  1  0
 12 13  2  0
 14 15  2  0
 16 11  2  0
 17  5  1  0
 24  9  1  0
  3 19  2  0
  4  5  2  0
  6  7  2  0
  9 21  2  0
 11 12  1  0
 13 14  1  0
 15 16  1  0
  8 23  3  0
M  END
>  <rmsd>  (692) 
0.214823112

$$$$
MolPort-010-688-226 35511174 ChemDiv-G952-0704 MCULE-3667292016 PubChem-51695112 ZINC000035511174 ZINC35511174
     RDKit          3D

 21 23  0  0  0  0  0  0  0  0999 V2000
   12.6765   38.6820   11.5324 C   0  0  0  0  0  0  0  0  0  0  0  0
   13.7004   39.7067   11.0926 C   0  0  0  0  0  0  0  0  0  0  0  0
   14.0724   39.4590    9.6444 C   0  0  0  0  0  0  0  0  0  0  0  0
   15.0785   40.4629    9.1968 C   0  0  0  0  0  0  0  0  0  0  0  0
   16.0201   42.0201    8.1491 C   0  0  0  0  0  0  0  0  0  0  0  0
   14.3598   42.7203    6.6078 C   0  0  0  0  0  0  0  0  0  0  0  0
   13.8703   44.3728    4.7186 C   0  0  0  0  0  0  0  0  0  0  0  0
   12.8753   44.8463    3.7199 C   0  0  0  0  0  0  0  0  0  0  0  0
   12.9768   44.0104    2.4563 C   0  0  0  0  0  0  0  0  0  0  0  0
   11.9720   44.4889    1.4239 C   0  0  0  0  0  0  0  0  0  0  0  0
   11.8578   43.4728    0.3101 C   0  0  0  0  0  0  0  0  0  0  0  0
   11.5937   44.2815   -0.9372 C   0  0  0  0  0  0  0  0  0  0  0  0
   12.3246   45.5896   -0.7274 C   0  0  0  0  0  0  0  0  0  0  0  0
   12.4364   45.7828    0.7742 C   0  0  0  0  0  0  0  0  0  0  0  0
   16.3373   40.5974    9.6958 N   0  0  0  0  0  0  0  0  0  0  0  0
   16.9402   41.5911    9.0297 N   0  0  0  0  0  0  0  0  0  0  0  0
   13.5207   43.3022    5.6031 N   0  0  0  0  0  0  0  0  0  0  0  0
   13.9260   41.6963    7.3966 N   0  0  0  0  0  0  0  0  0  0  0  0
   14.8981   41.3598    8.2280 N   0  0  0  0  0  0  0  0  0  0  0  0
   15.9864   43.2015    6.9634 S   0  0  0  0  0  0  0  0  0  0  0  0
   15.0124   44.9020    4.7506 O   0  0  0  0  0  0  0  0  0  0  0  0
  1  2  1  0
  2  3  1  0
  3  4  1  0
  5 20  1  0
  6 20  1  0
  6 17  1  0
  8  7  1  0
  8  9  1  0
  9 10  1  0
 10 11  1  0
 11 12  1  0
 12 13  1  0
 13 14  1  0
 14 10  1  0
 15 16  1  0
 17  7  1  0
 19 18  1  0
 19  4  1  0
 19  5  1  0
  4 15  2  0
  5 16  2  0
  6 18  2  0
  7 21  2  0
M  END
>  <rmsd>  (693) 
0.214597672

$$$$
MolPort-005-298-839 11738152 CSSS00106918672 MCULE-1333047284 MDLJOFDWBZDZNH-UHFFFAOYSA-N PubChem-42138555 ZINC000011738152 ZINC11738152
     RDKit          3D

 29 32  0  0  0  0  0  0  0  0999 V2000
    9.4877   45.9554    0.8979 C   0  0  0  0  0  0  0  0  0  0  0  0
    9.8567   44.9926    2.0175 C   0  0  0  0  0  0  0  0  0  0  0  0
   12.1084   46.1205    2.0809 C   0  0  0  0  0  0  0  0  0  0  0  0
   13.2715   45.9802    2.8204 C   0  0  0  0  0  0  0  0  0  0  0  0
   12.9844   44.9395    3.6883 C   0  0  0  0  0  0  0  0  0  0  0  0
   13.8979   44.3936    4.6981 C   0  0  0  0  0  0  0  0  0  0  0  0
   14.2518   42.6985    6.5549 C   0  0  0  0  0  0  0  0  0  0  0  0
   16.0267   42.3307    7.8914 C   0  0  0  0  0  0  0  0  0  0  0  0
   15.1559   41.3398    8.3824 C   0  0  0  0  0  0  0  0  0  0  0  0
   15.4618   40.2740    9.3597 C   0  0  0  0  0  0  0  0  0  0  0  0
   14.4756   39.8332   10.3713 C   0  0  0  0  0  0  0  0  0  0  0  0
   13.3048   40.5695   10.6121 C   0  0  0  0  0  0  0  0  0  0  0  0
   12.3907   40.1526   11.5837 C   0  0  0  0  0  0  0  0  0  0  0  0
   12.6413   38.9973   12.3282 C   0  0  0  0  0  0  0  0  0  0  0  0
   13.8067   38.2607   12.1025 C   0  0  0  0  0  0  0  0  0  0  0  0
   14.7204   38.6784   11.1304 C   0  0  0  0  0  0  0  0  0  0  0  0
   17.3753   42.6300    8.4221 C   0  0  0  0  0  0  0  0  0  0  0  0
   17.7164   42.3482    9.7539 C   0  0  0  0  0  0  0  0  0  0  0  0
   18.9825   42.6754   10.2473 C   0  0  0  0  0  0  0  0  0  0  0  0
   19.9162   43.2988    9.4157 C   0  0  0  0  0  0  0  0  0  0  0  0
   19.5818   43.5985    8.0929 C   0  0  0  0  0  0  0  0  0  0  0  0
   18.3152   43.2703    7.6006 C   0  0  0  0  0  0  0  0  0  0  0  0
   11.2153   45.2052    2.5125 N   0  0  0  0  0  0  0  0  0  0  0  0
   11.7364   44.4841    3.4872 N   0  0  0  0  0  0  0  0  0  0  0  0
   13.4653   43.3094    5.5280 N   0  0  0  0  0  0  0  0  0  0  0  0
   15.5074   43.0760    6.8754 N   0  0  0  0  0  0  0  0  0  0  0  0
   15.0530   44.8821    4.8270 O   0  0  0  0  0  0  0  0  0  0  0  0
   16.5873   39.7073    9.3091 O   0  0  0  0  0  0  0  0  0  0  0  0
   13.7194   41.4236    7.5013 S   0  0  0  0  0  0  0  0  0  0  0  0
  1  2  1  0
  2 23  1  0
  4  5  1  0
  5  6  1  0
  6 25  1  0
  7 29  1  0
  8 26  1  0
  8 17  1  0
  9 29  1  0
  9 10  1  0
 10 11  1  0
 12 13  2  0
 14 15  2  0
 16 11  2  0
 18 19  2  0
 20 21  2  0
 22 17  2  0
 23  3  1  0
 23 24  1  0
 25  7  1  0
  3  4  2  0
  5 24  2  0
  6 27  2  0
  7 26  2  0
  8  9  2  0
 10 28  2  0
 11 12  1  0
 13 14  1  0
 15 16  1  0
 17 18  1  0
 19 20  1  0
 21 22  1  0
M  END
>  <rmsd>  (694) 
0.214565337

$$$$
MolPort-003-077-942 9599913 CSSS03437082921 MCULE-2999142374 PubChem-18561104 ZINC000009599913 ZINC09599913
     RDKit          3D

 31 35  0  0  0  0  0  0  0  0999 V2000
   12.7494   37.1067    9.4310 F   0  0  0  0  0  0  0  0  0  0  0  0
   13.0740   38.0982   10.2929 C   0  0  0  0  0  0  0  0  0  0  0  0
   14.0741   37.8902   11.2485 C   0  0  0  0  0  0  0  0  0  0  0  0
   14.4112   38.9124   12.1384 C   0  0  0  0  0  0  0  0  0  0  0  0
   13.7427   40.1418   12.0802 C   0  0  0  0  0  0  0  0  0  0  0  0
   14.1420   41.2454   13.0010 C   0  0  0  0  0  0  0  0  0  0  0  0
   15.1886   42.9521   11.4577 C   0  0  0  0  0  0  0  0  0  0  0  0
   16.4090   43.4386   10.7581 C   0  0  0  0  0  0  0  0  0  0  0  0
   15.7789   42.2884    8.4677 C   0  0  0  0  0  0  0  0  0  0  0  0
   14.2640   42.8226    6.6913 C   0  0  0  0  0  0  0  0  0  0  0  0
   13.9079   44.3249    4.6492 C   0  0  0  0  0  0  0  0  0  0  0  0
   12.9431   44.7922    3.5922 C   0  0  1  0  0  0  0  0  0  0  0  0
   12.0344   45.8809    4.1904 C   0  0  0  0  0  0  0  0  0  0  0  0
   11.0336   46.3798    3.1350 C   0  0  2  0  0  0  0  0  0  0  0  0
   10.1693   45.2012    2.6594 C   0  0  0  0  0  0  0  0  0  0  0  0
   11.0613   44.1120    2.0446 C   0  0  1  0  0  0  0  0  0  0  0  0
   11.8308   44.7015    0.8510 C   0  0  0  0  0  0  0  0  0  0  0  0
   12.7023   45.8770    1.3185 C   0  0  1  0  0  0  0  0  0  0  0  0
   11.8043   46.9590    1.9382 C   0  0  0  0  0  0  0  0  0  0  0  0
   13.6973   45.3788    2.3793 C   0  0  0  0  0  0  0  0  0  0  0  0
   12.0664   43.6216    3.1000 C   0  0  0  0  0  0  0  0  0  0  0  0
   12.7460   40.3512   11.1205 C   0  0  0  0  0  0  0  0  0  0  0  0
   12.4098   39.3278   10.2284 C   0  0  0  0  0  0  0  0  0  0  0  0
   15.3009   41.9428   12.4616 N   0  0  0  0  0  0  0  0  0  0  0  0
   14.6439   41.5570    8.4981 N   0  0  0  0  0  0  0  0  0  0  0  0
   13.8007   41.8558    7.5120 N   0  0  0  0  0  0  0  0  0  0  0  0
   13.5029   43.3115    5.5817 N   0  0  0  0  0  0  0  0  0  0  0  0
   14.0639   43.4252   11.1462 O   0  0  0  0  0  0  0  0  0  0  0  0
   15.0351   44.8799    4.7580 O   0  0  0  0  0  0  0  0  0  0  0  0
   17.0892   42.1366    9.6785 S   0  0  0  0  0  0  0  0  0  0  0  0
   15.7868   43.3688    7.1777 S   0  0  0  0  0  0  0  0  0  0  0  0
  2  1  1  0
  3  4  2  0
  5 22  2  0
  6  5  1  0
  6 24  1  0
  8  7  1  0
  8 30  1  0
  9 30  1  0
  9 31  1  0
 10 27  1  0
 10 31  1  0
 12 11  1  1
 12 13  1  0
 14 13  1  1
 14 15  1  0
 16 15  1  1
 16 17  1  0
 16 21  1  0
 18 17  1  1
 18 19  1  0
 18 20  1  0
 19 14  1  0
 20 12  1  0
 21 12  1  0
 23  2  2  0
 24  7  1  0
 25 26  1  0
 27 11  1  0
  2  3  1  0
  4  5  1  0
  7 28  2  0
  9 25  2  0
 10 26  2  0
 11 29  2  0
 22 23  1  0
M  END
>  <rmsd>  (695) 
0.214492649

$$$$
MolPort-007-723-081 6818078 ChemDiv-E157-3308 MCULE-7356027978 PubChem-22517694 ZINC000006818078 ZINC06818078
     RDKit          3D

 19 21  0  0  0  0  0  0  0  0999 V2000
   12.6799   38.7013   11.5449 C   0  0  0  0  0  0  0  0  0  0  0  0
   13.7100   39.7154   11.0952 C   0  0  0  0  0  0  0  0  0  0  0  0
   14.0680   39.4619    9.6444 C   0  0  0  0  0  0  0  0  0  0  0  0
   15.0801   40.4554    9.1871 C   0  0  0  0  0  0  0  0  0  0  0  0
   16.0282   42.0016    8.1291 C   0  0  0  0  0  0  0  0  0  0  0  0
   14.3624   42.7148    6.5997 C   0  0  0  0  0  0  0  0  0  0  0  0
   13.8703   44.3715    4.7126 C   0  0  0  0  0  0  0  0  0  0  0  0
   12.8794   44.8516    3.7440 C   0  0  0  0  0  0  0  0  0  0  0  0
   13.0751   45.8682    2.8326 C   0  0  0  0  0  0  0  0  0  0  0  0
   11.8775   45.9614    2.1451 C   0  0  0  0  0  0  0  0  0  0  0  0
   11.0372   45.0005    2.6813 C   0  0  0  0  0  0  0  0  0  0  0  0
   16.3441   40.5786    9.6756 N   0  0  0  0  0  0  0  0  0  0  0  0
   16.9512   41.5651    9.0030 N   0  0  0  0  0  0  0  0  0  0  0  0
   13.5209   43.3023    5.6001 N   0  0  0  0  0  0  0  0  0  0  0  0
   13.9251   41.6965    7.3938 N   0  0  0  0  0  0  0  0  0  0  0  0
   14.9005   41.3524    8.2183 N   0  0  0  0  0  0  0  0  0  0  0  0
   15.9963   43.1807    6.9413 S   0  0  0  0  0  0  0  0  0  0  0  0
   15.0125   44.9022    4.7536 O   0  0  0  0  0  0  0  0  0  0  0  0
   11.6721   44.3595    3.6327 O   0  0  0  0  0  0  0  0  0  0  0  0
  1  2  1  0
  2  3  1  0
  3  4  1  0
  5 17  1  0
  6 17  1  0
  6 14  1  0
  7  8  1  0
  8 19  1  0
  9 10  1  0
 11 19  1  0
 12 13  1  0
 14  7  1  0
 16 15  1  0
 16  4  1  0
 16  5  1  0
  4 12  2  0
  5 13  2  0
  6 15  2  0
  7 18  2  0
  8  9  2  0
 10 11  2  0
M  END
>  <rmsd>  (696) 
0.214009374

$$$$
MolPort-007-723-173 6818134 ChemDiv-E157-3683 MCULE-6786177504 PubChem-22517779 ZINC000006818134 ZINC06818134
     RDKit          3D

 26 28  0  0  0  0  0  0  0  0999 V2000
   12.6814   38.7026   11.5442 C   0  0  0  0  0  0  0  0  0  0  0  0
   13.7113   39.7170   11.0946 C   0  0  0  0  0  0  0  0  0  0  0  0
   14.0697   39.4633    9.6439 C   0  0  0  0  0  0  0  0  0  0  0  0
   15.0815   40.4570    9.1865 C   0  0  0  0  0  0  0  0  0  0  0  0
   16.0291   42.0035    8.1285 C   0  0  0  0  0  0  0  0  0  0  0  0
   14.3631   42.7161    6.5990 C   0  0  0  0  0  0  0  0  0  0  0  0
   13.8683   44.3737    4.7099 C   0  0  0  0  0  0  0  0  0  0  0  0
   12.8778   44.8614    3.7340 C   0  0  0  0  0  0  0  0  0  0  0  0
   11.6057   44.2880    3.6711 C   0  0  0  0  0  0  0  0  0  0  0  0
   10.6486   44.7391    2.7484 C   0  0  0  0  0  0  0  0  0  0  0  0
    8.9957   43.0829    3.5708 C   0  0  0  0  0  0  0  0  0  0  0  0
   10.9809   45.7968    1.8638 C   0  0  0  0  0  0  0  0  0  0  0  0
    8.7601   45.8560    0.7015 C   0  0  0  0  0  0  0  0  0  0  0  0
   12.2610   46.3732    1.9278 C   0  0  0  0  0  0  0  0  0  0  0  0
   13.8505   48.0570    1.0468 C   0  0  0  0  0  0  0  0  0  0  0  0
   13.1974   45.9027    2.8596 C   0  0  0  0  0  0  0  0  0  0  0  0
   16.3454   40.5807    9.6752 N   0  0  0  0  0  0  0  0  0  0  0  0
   16.9521   41.5676    9.0025 N   0  0  0  0  0  0  0  0  0  0  0  0
   13.5211   43.3032    5.5996 N   0  0  0  0  0  0  0  0  0  0  0  0
   13.9262   41.6977    7.3931 N   0  0  0  0  0  0  0  0  0  0  0  0
   14.9016   41.3539    8.2177 N   0  0  0  0  0  0  0  0  0  0  0  0
   15.9969   43.1827    6.9406 S   0  0  0  0  0  0  0  0  0  0  0  0
   15.0127   44.9009    4.7554 O   0  0  0  0  0  0  0  0  0  0  0  0
    9.3817   44.1452    2.7083 O   0  0  0  0  0  0  0  0  0  0  0  0
   10.0889   46.3131    0.9086 O   0  0  0  0  0  0  0  0  0  0  0  0
   12.5816   47.4166    1.0517 O   0  0  0  0  0  0  0  0  0  0  0  0
  1  2  1  0
  2  3  1  0
  3  4  1  0
  5 22  1  0
  6 22  1  0
  6 19  1  0
  7  8  1  0
  9 10  2  0
 10 24  1  0
 11 24  1  0
 12 25  1  0
 12 14  2  0
 13 25  1  0
 14 26  1  0
 15 26  1  0
 16  8  2  0
 17 18  1  0
 19  7  1  0
 21 20  1  0
 21  4  1  0
 21  5  1  0
  4 17  2  0
  5 18  2  0
  6 20  2  0
  7 23  2  0
  8  9  1  0
 10 12  1  0
 14 16  1  0
M  END
>  <rmsd>  (697) 
0.213763788

$$$$
MolPort-010-852-379 41076406 ChemDiv-G952-3399 MCULE-5574678977 PubChem-52095938 ZINC000041076406 ZINC41076406
     RDKit          3D

 26 29  0  0  0  0  0  0  0  0999 V2000
   14.0788   39.0130   11.9659 C   0  0  0  0  0  0  0  0  0  0  0  0
   13.1241   39.6561   10.9779 C   0  0  0  0  0  0  0  0  0  0  0  0
   13.5943   39.4205    9.5518 C   0  0  0  0  0  0  0  0  0  0  0  0
   14.6750   40.3804    9.1765 C   0  0  0  0  0  0  0  0  0  0  0  0
   15.7511   41.8959    8.1986 C   0  0  0  0  0  0  0  0  0  0  0  0
   14.2166   42.6905    6.5755 C   0  0  0  0  0  0  0  0  0  0  0  0
   13.9190   44.3744    4.6745 C   0  0  0  0  0  0  0  0  0  0  0  0
   13.0347   44.8524    3.5749 C   0  0  0  0  0  0  0  0  0  0  0  0
   14.2600   44.0340    1.4660 C   0  0  0  0  0  0  0  0  0  0  0  0
   14.2762   42.8062    0.6800 C   0  0  0  0  0  0  0  0  0  0  0  0
   15.1274   42.3944   -0.3432 C   0  0  0  0  0  0  0  0  0  0  0  0
   14.9030   41.1273   -0.9096 C   0  0  0  0  0  0  0  0  0  0  0  0
   13.8508   40.3088   -0.4457 C   0  0  0  0  0  0  0  0  0  0  0  0
   13.0080   40.7452    0.5917 C   0  0  0  0  0  0  0  0  0  0  0  0
   13.2482   42.0059    1.1338 C   0  0  0  0  0  0  0  0  0  0  0  0
   12.5733   42.7213    2.2101 C   0  0  0  0  0  0  0  0  0  0  0  0
   15.9151   40.4361    9.7340 N   0  0  0  0  0  0  0  0  0  0  0  0
   16.6037   41.4024    9.1125 N   0  0  0  0  0  0  0  0  0  0  0  0
   13.4701   43.3117    5.5226 N   0  0  0  0  0  0  0  0  0  0  0  0
   13.1832   43.9988    2.4044 N   0  0  0  0  0  0  0  0  0  0  0  0
   13.6861   41.6891    7.3333 N   0  0  0  0  0  0  0  0  0  0  0  0
   14.5911   41.2997    8.2158 N   0  0  0  0  0  0  0  0  0  0  0  0
   15.8470   43.0778    7.0170 S   0  0  0  0  0  0  0  0  0  0  0  0
   15.0581   44.8908    4.8191 O   0  0  0  0  0  0  0  0  0  0  0  0
   15.0810   44.9836    1.3644 O   0  0  0  0  0  0  0  0  0  0  0  0
   11.6114   42.2830    2.8948 O   0  0  0  0  0  0  0  0  0  0  0  0
  1  2  1  0
  2  3  1  0
  3  4  1  0
  5 23  1  0
  6 23  1  0
  6 19  1  0
  8  7  1  0
  8 20  1  0
  9 10  1  0
 11 12  2  0
 13 14  2  0
 15 16  1  0
 15 10  2  0
 16 20  1  0
 17 18  1  0
 19  7  1  0
 20  9  1  0
 22 21  1  0
 22  4  1  0
 22  5  1  0
  4 17  2  0
  5 18  2  0
  6 21  2  0
  7 24  2  0
  9 25  2  0
 10 11  1  0
 12 13  1  0
 14 15  1  0
 16 26  2  0
M  END
>  <rmsd>  (698) 
0.213619873

$$$$
MolPort-002-865-769 5540781 CHEMBL1423125 CSSS00138423848 MCULE-4762641888 PubChem-4269270 ZINC000005540781 ZINC05540781
     RDKit          3D

 25 27  0  0  0  0  0  0  0  0999 V2000
   10.3271   46.1292    0.5098 C   0  0  0  0  0  0  0  0  0  0  0  0
   11.2478   45.6703    1.5821 C   0  0  0  0  0  0  0  0  0  0  0  0
   10.8502   44.6564    2.4578 C   0  0  0  0  0  0  0  0  0  0  0  0
   11.7163   44.2247    3.4667 C   0  0  0  0  0  0  0  0  0  0  0  0
   12.9862   44.8034    3.6074 C   0  0  0  0  0  0  0  0  0  0  0  0
   13.3773   45.8208    2.7238 C   0  0  0  0  0  0  0  0  0  0  0  0
   12.5112   46.2525    1.7149 C   0  0  0  0  0  0  0  0  0  0  0  0
   13.8984   44.3476    4.6711 C   0  0  0  0  0  0  0  0  0  0  0  0
   14.2812   42.7829    6.6335 C   0  0  0  0  0  0  0  0  0  0  0  0
   16.0297   42.4921    8.0093 C   0  0  0  0  0  0  0  0  0  0  0  0
   15.5239   40.6562    9.6512 C   0  0  0  0  0  0  0  0  0  0  0  0
   14.4574   39.9455   10.3973 C   0  0  0  0  0  0  0  0  0  0  0  0
   14.6257   38.6268   10.8834 C   0  0  0  0  0  0  0  0  0  0  0  0
   15.8596   37.8319   10.6164 C   0  0  0  0  0  0  0  0  0  0  0  0
   13.5981   38.0147   11.6089 C   0  0  0  0  0  0  0  0  0  0  0  0
   12.4080   38.6976   11.8655 C   0  0  0  0  0  0  0  0  0  0  0  0
   12.2368   39.9996   11.3950 C   0  0  0  0  0  0  0  0  0  0  0  0
   13.2561   40.6183   10.6685 C   0  0  0  0  0  0  0  0  0  0  0  0
   15.0383   44.8750    4.7890 O   0  0  0  0  0  0  0  0  0  0  0  0
   17.1871   42.7208    8.4512 O   0  0  0  0  0  0  0  0  0  0  0  0
   16.7277   40.4832    9.9849 O   0  0  0  0  0  0  0  0  0  0  0  0
   13.4856   43.3073    5.5669 N   0  0  0  0  0  0  0  0  0  0  0  0
   15.5335   43.1893    6.9419 N   0  0  0  0  0  0  0  0  0  0  0  0
   15.2121   41.5510    8.5668 N   0  0  0  0  0  0  0  0  0  0  0  0
   13.8078   41.5742    7.6731 S   0  0  0  0  0  0  0  0  0  0  0  0
  1  2  1  0
  3  4  2  0
  5  6  2  0
  5  8  1  0
  7  2  2  0
  8 22  1  0
  9 25  1  0
 10 23  1  0
 10 24  1  0
 11 12  1  0
 13 15  2  0
 14 13  1  0
 16 17  2  0
 18 12  2  0
 22  9  1  0
 24 25  1  0
 24 11  1  0
  2  3  1  0
  4  5  1  0
  6  7  1  0
  8 19  2  0
  9 23  2  0
 10 20  2  0
 11 21  2  0
 12 13  1  0
 15 16  1  0
 17 18  1  0
M  END
>  <rmsd>  (699) 
0.213322178

$$$$
MolPort-007-723-742 6818444 CHEMBL1311289 ChemDiv-E157-8442 MCULE-4528937544 PubChem-22518215 ZINC000006818444 ZINC06818444
     RDKit          3D

 24 25  0  0  0  0  0  0  0  0999 V2000
   13.5517   39.4296   11.2985 C   0  0  0  0  0  0  0  0  0  0  0  0
   14.2104   41.8357   11.6350 C   0  0  0  0  0  0  0  0  0  0  0  0
   14.9871   42.9536   11.2871 C   0  0  0  0  0  0  0  0  0  0  0  0
   14.8130   44.1753   11.9423 C   0  0  0  0  0  0  0  0  0  0  0  0
   13.8601   44.2937   12.9566 C   0  0  0  0  0  0  0  0  0  0  0  0
   13.0804   43.1914   13.3139 C   0  0  0  0  0  0  0  0  0  0  0  0
   13.2538   41.9705   12.6560 C   0  0  0  0  0  0  0  0  0  0  0  0
   15.1835   41.4371    8.3586 C   0  0  0  0  0  0  0  0  0  0  0  0
   14.2518   42.7074    6.5648 C   0  0  0  0  0  0  0  0  0  0  0  0
   13.9042   44.3745    4.6767 C   0  0  0  0  0  0  0  0  0  0  0  0
   12.9637   44.9190    3.6323 C   0  0  0  0  0  0  0  0  0  0  0  0
   12.3409   43.7782    2.8487 C   0  0  0  0  0  0  0  0  0  0  0  0
   13.6817   45.8321    2.6510 C   0  0  0  0  0  0  0  0  0  0  0  0
   11.8614   45.7088    4.3108 C   0  0  0  0  0  0  0  0  0  0  0  0
   14.3869   40.5741   10.9586 N   0  0  0  0  0  0  0  0  0  0  0  0
   16.0364   42.3637    7.8694 N   0  0  0  0  0  0  0  0  0  0  0  0
   15.5183   43.0714    6.8674 N   0  0  0  0  0  0  0  0  0  0  0  0
   13.4658   43.3091    5.5319 N   0  0  0  0  0  0  0  0  0  0  0  0
   13.6475   45.8215   13.7841 Cl  0  0  0  0  0  0  0  0  0  0  0  0
   15.5668   40.3746    9.6976 S   0  0  0  0  0  0  0  0  0  0  0  0
   13.7052   41.4586    7.5506 S   0  0  0  0  0  0  0  0  0  0  0  0
   15.5673   38.9528    9.2092 O   0  0  0  0  0  0  0  0  0  0  0  0
   16.9314   40.7008   10.2364 O   0  0  0  0  0  0  0  0  0  0  0  0
   15.0520   44.8780    4.8270 O   0  0  0  0  0  0  0  0  0  0  0  0
  1 15  1  0
  3  4  2  0
  5 19  1  0
  5  6  2  0
  7  2  2  0
  8 21  1  0
  9 18  1  0
  9 21  1  0
 11 10  1  0
 11 12  1  0
 11 13  1  0
 11 14  1  0
 15  2  1  0
 16 17  1  0
 18 10  1  0
 20 15  1  0
 20  8  1  0
  2  3  1  0
  4  5  1  0
  6  7  1  0
  8 16  2  0
  9 17  2  0
 10 24  2  0
 20 22  2  0
 20 23  2  0
M  END
>  <rmsd>  (700) 
0.213097334

$$$$
MolPort-007-723-094 ChemDiv-E157-3433 MCULE-8187297256 PubChem-22517706 ZINC000020486367 ZINC20486367
     RDKit          3D

 21 23  0  0  0  0  0  0  0  0999 V2000
   12.6858   38.7067   11.5444 C   0  0  0  0  0  0  0  0  0  0  0  0
   13.7153   39.7210   11.0940 C   0  0  0  0  0  0  0  0  0  0  0  0
   14.0731   39.4671    9.6433 C   0  0  0  0  0  0  0  0  0  0  0  0
   15.0845   40.4608    9.1851 C   0  0  0  0  0  0  0  0  0  0  0  0
   16.0316   42.0071    8.1263 C   0  0  0  0  0  0  0  0  0  0  0  0
   14.3647   42.7190    6.5971 C   0  0  0  0  0  0  0  0  0  0  0  0
   13.8654   44.3762    4.7059 C   0  0  0  0  0  0  0  0  0  0  0  0
   12.8572   44.8579    3.7263 C   0  0  0  0  0  0  0  0  0  0  0  0
   13.0992   45.9091    2.8032 C   0  0  0  0  0  0  0  0  0  0  0  0
   14.3982   46.6380    2.7255 C   0  0  0  0  0  0  0  0  0  0  0  0
   12.0925   46.3008    1.9138 C   0  0  0  0  0  0  0  0  0  0  0  0
   10.8491   45.6681    1.9234 C   0  0  0  0  0  0  0  0  0  0  0  0
   10.6017   44.6352    2.8258 C   0  0  0  0  0  0  0  0  0  0  0  0
   11.5980   44.2355    3.7180 C   0  0  0  0  0  0  0  0  0  0  0  0
   16.3486   40.5848    9.6732 N   0  0  0  0  0  0  0  0  0  0  0  0
   16.9550   41.5714    9.0001 N   0  0  0  0  0  0  0  0  0  0  0  0
   13.5218   43.3053    5.5978 N   0  0  0  0  0  0  0  0  0  0  0  0
   13.9284   41.7007    7.3918 N   0  0  0  0  0  0  0  0  0  0  0  0
   14.9042   41.3573    8.2161 N   0  0  0  0  0  0  0  0  0  0  0  0
   15.9986   43.1858    6.9381 S   0  0  0  0  0  0  0  0  0  0  0  0
   15.0106   44.8983    4.7579 O   0  0  0  0  0  0  0  0  0  0  0  0
  1  2  1  0
  2  3  1  0
  3  4  1  0
  5 20  1  0
  6 20  1  0
  6 17  1  0
  7  8  1  0
  9 11  2  0
 10  9  1  0
 12 13  2  0
 14  8  2  0
 15 16  1  0
 17  7  1  0
 19 18  1  0
 19  4  1  0
 19  5  1  0
  4 15  2  0
  5 16  2  0
  6 18  2  0
  7 21  2  0
  8  9  1  0
 11 12  1  0
 13 14  1  0
M  END
>  <rmsd>  (701) 
0.212970376

$$$$
MolPort-007-723-587 ChemDiv-E157-6434 MCULE-8263968904 PubChem-22518109 ZINC000009405031 ZINC09405031
     RDKit          3D

 29 31  0  0  0  0  0  0  0  0999 V2000
   13.5531   39.4279   11.3215 C   0  0  0  0  0  0  0  0  0  0  0  0
   14.2264   41.8339   11.6211 C   0  0  0  0  0  0  0  0  0  0  0  0
   13.2627   41.9936   12.6318 C   0  0  0  0  0  0  0  0  0  0  0  0
   13.1037   43.2233   13.2770 C   0  0  0  0  0  0  0  0  0  0  0  0
   13.9073   44.3083   12.9199 C   0  0  0  0  0  0  0  0  0  0  0  0
   13.7372   45.6165   13.6037 C   0  0  0  0  0  0  0  0  0  0  0  0
   14.8684   44.1644   11.9171 C   0  0  0  0  0  0  0  0  0  0  0  0
   15.0270   42.9345   11.2730 C   0  0  0  0  0  0  0  0  0  0  0  0
   15.1740   41.4152    8.3497 C   0  0  0  0  0  0  0  0  0  0  0  0
   14.2488   42.6980    6.5616 C   0  0  0  0  0  0  0  0  0  0  0  0
   13.9039   44.3826    4.6954 C   0  0  0  0  0  0  0  0  0  0  0  0
   13.0011   44.8915    3.6298 C   0  0  0  0  0  0  0  0  0  0  0  0
   12.5846   44.3997    1.2026 C   0  0  0  0  0  0  0  0  0  0  0  0
   11.4675   45.2626    1.0335 C   0  0  0  0  0  0  0  0  0  0  0  0
   10.8838   46.0768    2.1367 C   0  0  0  0  0  0  0  0  0  0  0  0
   10.8570   45.3658   -0.2213 C   0  0  0  0  0  0  0  0  0  0  0  0
   11.3332   44.6310   -1.3076 C   0  0  0  0  0  0  0  0  0  0  0  0
   12.4277   43.7827   -1.1470 C   0  0  0  0  0  0  0  0  0  0  0  0
   13.0453   43.6699    0.0996 C   0  0  0  0  0  0  0  0  0  0  0  0
   14.3873   40.5646   10.9562 N   0  0  0  0  0  0  0  0  0  0  0  0
   16.0349   42.3322    7.8572 N   0  0  0  0  0  0  0  0  0  0  0  0
   15.5203   43.0468    6.8581 N   0  0  0  0  0  0  0  0  0  0  0  0
   13.4654   43.3073    5.5313 N   0  0  0  0  0  0  0  0  0  0  0  0
   15.5513   40.3451    9.6840 S   0  0  0  0  0  0  0  0  0  0  0  0
   13.6924   41.4553    7.5500 S   0  0  0  0  0  0  0  0  0  0  0  0
   15.5213   38.9247    9.1929 O   0  0  0  0  0  0  0  0  0  0  0  0
   16.9267   40.6461   10.2095 O   0  0  0  0  0  0  0  0  0  0  0  0
   15.0535   44.8812    4.8250 O   0  0  0  0  0  0  0  0  0  0  0  0
   13.2746   44.2141    2.4114 O   0  0  0  0  0  0  0  0  0  0  0  0
  1 20  1  0
  3  4  2  0
  5  7  2  0
  6  5  1  0
  8  2  2  0
  9 25  1  0
 10 23  1  0
 10 25  1  0
 12 11  1  0
 12 29  1  0
 13 29  1  0
 14 16  2  0
 15 14  1  0
 17 18  2  0
 19 13  2  0
 20  2  1  0
 21 22  1  0
 23 11  1  0
 24 20  1  0
 24  9  1  0
  2  3  1  0
  4  5  1  0
  7  8  1  0
  9 21  2  0
 10 22  2  0
 11 28  2  0
 13 14  1  0
 16 17  1  0
 18 19  1  0
 24 26  2  0
 24 27  2  0
M  END
>  <rmsd>  (702) 
0.212955073

$$$$
MolPort-010-852-238 41108816 ChemDiv-G952-1562 MCULE-1534031103 PubChem-52103591 ZINC000041108816
     RDKit          3D

 27 30  0  0  0  0  0  0  0  0999 V2000
   14.4974   41.5014    8.4028 N   0  0  0  0  0  0  0  0  0  0  0  0
   13.6229   41.8262    7.4650 N   0  0  0  0  0  0  0  0  0  0  0  0
   16.4431   41.7407    9.4140 N   0  0  0  0  0  0  0  0  0  0  0  0
   15.7203   40.8444   10.0984 N   0  0  0  0  0  0  0  0  0  0  0  0
   13.4715   43.3123    5.5346 N   0  0  0  0  0  0  0  0  0  0  0  0
   14.1806   42.7702    6.6548 C   0  0  0  0  0  0  0  0  0  0  0  0
   15.6524   42.1074    8.3915 C   0  0  0  0  0  0  0  0  0  0  0  0
   14.5227   40.6993    9.4666 C   0  0  0  0  0  0  0  0  0  0  0  0
   13.3841   39.8390    9.9244 C   0  0  0  0  0  0  0  0  0  0  0  0
   13.7967   38.3753   10.1212 C   0  0  0  0  0  0  0  0  0  0  0  0
   14.6119   38.1824   11.4001 C   0  0  0  0  0  0  0  0  0  0  0  0
   13.8376   38.7031   12.6057 C   0  0  0  0  0  0  0  0  0  0  0  0
   13.5353   40.1869   12.4284 C   0  0  0  0  0  0  0  0  0  0  0  0
   12.6970   40.4090   11.1701 C   0  0  0  0  0  0  0  0  0  0  0  0
   13.9424   44.3250    4.6388 C   0  0  0  0  0  0  0  0  0  0  0  0
   13.0998   44.7165    3.4740 C   0  0  0  0  0  0  0  0  0  0  0  0
   13.3488   42.7803    1.9352 C   0  0  0  0  0  0  0  0  0  0  0  0
   13.9372   42.2635    0.7769 C   0  0  0  0  0  0  0  0  0  0  0  0
   13.7118   40.9357    0.4030 C   0  0  0  0  0  0  0  0  0  0  0  0
   12.8922   40.1084    1.1874 C   0  0  0  0  0  0  0  0  0  0  0  0
   12.3017   40.6259    2.3443 C   0  0  0  0  0  0  0  0  0  0  0  0
   12.5259   41.9538    2.7170 C   0  0  0  0  0  0  0  0  0  0  0  0
   13.2079   38.1696   -0.3156 C   0  0  0  0  0  0  0  0  0  0  0  0
   15.7871   43.2065    7.1359 S   0  0  0  0  0  0  0  0  0  0  0  0
   13.5942   44.1139    2.2820 O   0  0  0  0  0  0  0  0  0  0  0  0
   12.6505   38.7760    0.8424 O   0  0  0  0  0  0  0  0  0  0  0  0
   15.0611   44.8773    4.8053 O   0  0  0  0  0  0  0  0  0  0  0  0
  1  2  1  0
  3  4  1  0
  5 15  1  0
  6 24  1  0
  6  5  1  0
  7 24  1  0
  7  1  1  0
  8  1  1  0
  9  8  1  0
  9 10  1  0
 10 11  1  0
 11 12  1  0
 12 13  1  0
 13 14  1  0
 14  9  1  0
 16 15  1  0
 16 25  1  0
 17 25  1  0
 18 19  2  0
 20 21  2  0
 20 26  1  0
 22 17  2  0
 23 26  1  0
  6  2  2  0
  7  3  2  0
  8  4  2  0
 15 27  2  0
 17 18  1  0
 19 20  1  0
 21 22  1  0
M  END
>  <rmsd>  (703) 
0.212449044

$$$$
MolPort-007-713-548 ChemDiv-E002-0459 MCULE-5755976766 PubChem-22509990 ZINC000006768187
     RDKit          3D

 26 28  0  0  0  0  0  0  0  0999 V2000
   15.1298   41.6183    8.5304 C   0  0  0  0  0  0  0  0  0  0  0  0
   16.8894   40.6375    9.9942 C   0  0  0  0  0  0  0  0  0  0  0  0
   17.2307   41.6410   11.0801 C   0  0  0  0  0  0  0  0  0  0  0  0
   14.4955   40.0325   10.3959 C   0  0  0  0  0  0  0  0  0  0  0  0
   13.2138   40.5656   10.6095 C   0  0  0  0  0  0  0  0  0  0  0  0
   12.2740   39.8729   11.3778 C   0  0  0  0  0  0  0  0  0  0  0  0
   12.6087   38.6426   11.9482 C   0  0  0  0  0  0  0  0  0  0  0  0
   13.8839   38.1068   11.7534 C   0  0  0  0  0  0  0  0  0  0  0  0
   14.8234   38.8000   10.9848 C   0  0  0  0  0  0  0  0  0  0  0  0
   14.2326   42.7799    6.6347 C   0  0  0  0  0  0  0  0  0  0  0  0
   13.9135   44.3463    4.6619 C   0  0  0  0  0  0  0  0  0  0  0  0
   13.3030   45.7928    2.6343 C   0  0  0  0  0  0  0  0  0  0  0  0
   12.3231   46.0786    1.6782 C   0  0  0  0  0  0  0  0  0  0  0  0
   12.5443   47.0625    0.7107 C   0  0  0  0  0  0  0  0  0  0  0  0
   13.7501   47.7682    0.6936 C   0  0  0  0  0  0  0  0  0  0  0  0
   14.7405   47.4952    1.6420 C   0  0  0  0  0  0  0  0  0  0  0  0
   16.9942   48.0039    2.5245 C   0  0  0  0  0  0  0  0  0  0  0  0
   14.5113   46.5054    2.6113 C   0  0  0  0  0  0  0  0  0  0  0  0
   15.4804   40.7545    9.6287 N   0  0  0  0  0  0  0  0  0  0  0  0
   15.9788   42.5370    8.0133 N   0  0  0  0  0  0  0  0  0  0  0  0
   15.4781   43.1874    6.9644 N   0  0  0  0  0  0  0  0  0  0  0  0
   13.4719   43.3109    5.5454 N   0  0  0  0  0  0  0  0  0  0  0  0
   13.0389   44.7763    3.6111 N   0  0  0  0  0  0  0  0  0  0  0  0
   15.0514   44.8689    4.8083 O   0  0  0  0  0  0  0  0  0  0  0  0
   15.9363   48.2173    1.6000 O   0  0  0  0  0  0  0  0  0  0  0  0
   13.6848   41.5594    7.6529 S   0  0  0  0  0  0  0  0  0  0  0  0
  1 19  1  0
  1 26  1  0
  2 19  1  0
  2  3  1  0
  5  6  2  0
  7  8  2  0
  9  4  2  0
 10 22  1  0
 10 26  1  0
 11 23  1  0
 13 14  2  0
 15 16  2  0
 16 25  1  0
 17 25  1  0
 18 12  2  0
 19  4  1  0
 20 21  1  0
 22 11  1  0
 23 12  1  0
  1 20  2  0
  4  5  1  0
  6  7  1  0
  8  9  1  0
 10 21  2  0
 11 24  2  0
 12 13  1  0
 14 15  1  0
 16 18  1  0
M  END
>  <rmsd>  (704) 
0.21238029

$$$$
MolPort-007-714-565 ChemDiv-E002-1916 MCULE-8688551559 PubChem-22510860 ZINC000006780263
     RDKit          3D

 26 28  0  0  0  0  0  0  0  0999 V2000
   15.1299   41.6176    8.5299 C   0  0  0  0  0  0  0  0  0  0  0  0
   16.8896   40.6366    9.9934 C   0  0  0  0  0  0  0  0  0  0  0  0
   17.2312   41.6398   11.0794 C   0  0  0  0  0  0  0  0  0  0  0  0
   14.4957   40.0317   10.3954 C   0  0  0  0  0  0  0  0  0  0  0  0
   13.2141   40.5651   10.6092 C   0  0  0  0  0  0  0  0  0  0  0  0
   12.2743   39.8722   11.3775 C   0  0  0  0  0  0  0  0  0  0  0  0
   12.6090   38.6419   11.9478 C   0  0  0  0  0  0  0  0  0  0  0  0
   13.8842   38.1060   11.7528 C   0  0  0  0  0  0  0  0  0  0  0  0
   14.8236   38.7991   10.9841 C   0  0  0  0  0  0  0  0  0  0  0  0
   14.2326   42.7795    6.6344 C   0  0  0  0  0  0  0  0  0  0  0  0
   13.9132   44.3461    4.6617 C   0  0  0  0  0  0  0  0  0  0  0  0
   13.3017   45.7926    2.6341 C   0  0  0  0  0  0  0  0  0  0  0  0
   12.3207   46.0776    1.6786 C   0  0  0  0  0  0  0  0  0  0  0  0
   12.5402   47.0614    0.7102 C   0  0  0  0  0  0  0  0  0  0  0  0
   13.7451   47.7695    0.6897 C   0  0  0  0  0  0  0  0  0  0  0  0
   14.7338   47.4905    1.6435 C   0  0  0  0  0  0  0  0  0  0  0  0
   14.5100   46.5058    2.6101 C   0  0  0  0  0  0  0  0  0  0  0  0
   13.9623   48.8138   -0.3486 C   0  0  0  0  0  0  0  0  0  0  0  0
   15.4807   40.7538    9.6281 N   0  0  0  0  0  0  0  0  0  0  0  0
   15.9789   42.5364    8.0128 N   0  0  0  0  0  0  0  0  0  0  0  0
   15.4782   43.1868    6.9640 N   0  0  0  0  0  0  0  0  0  0  0  0
   13.4717   43.3106    5.5452 N   0  0  0  0  0  0  0  0  0  0  0  0
   13.0383   44.7761    3.6111 N   0  0  0  0  0  0  0  0  0  0  0  0
   15.0512   44.8686    4.8079 O   0  0  0  0  0  0  0  0  0  0  0  0
   15.9095   48.1669    1.6398 F   0  0  0  0  0  0  0  0  0  0  0  0
   13.6848   41.5590    7.6526 S   0  0  0  0  0  0  0  0  0  0  0  0
  1 19  1  0
  1 26  1  0
  2 19  1  0
  2  3  1  0
  5  6  2  0
  7  8  2  0
  9  4  2  0
 10 22  1  0
 10 26  1  0
 11 23  1  0
 13 14  2  0
 15 16  2  0
 16 25  1  0
 17 12  2  0
 18 15  1  0
 19  4  1  0
 20 21  1  0
 22 11  1  0
 23 12  1  0
  1 20  2  0
  4  5  1  0
  6  7  1  0
  8  9  1  0
 10 21  2  0
 11 24  2  0
 12 13  1  0
 14 15  1  0
 16 17  1  0
M  END
>  <rmsd>  (705) 
0.212172821

$$$$
MolPort-007-723-283 21526237 ChemDiv-E157-4283 MCULE-3761142267 PubChem-46271950 ZINC000021526237 ZINC21526237
     RDKit          3D

 18 19  0  0  0  0  0  0  0  0999 V2000
   14.0750   39.0237   11.9668 C   0  0  0  0  0  0  0  0  0  0  0  0
   13.1220   39.6515   10.9672 C   0  0  0  0  0  0  0  0  0  0  0  0
   13.6059   39.4124    9.5463 C   0  0  0  0  0  0  0  0  0  0  0  0
   14.6824   40.3787    9.1752 C   0  0  0  0  0  0  0  0  0  0  0  0
   15.7529   41.9012    8.2023 C   0  0  0  0  0  0  0  0  0  0  0  0
   14.2194   42.6885    6.5743 C   0  0  0  0  0  0  0  0  0  0  0  0
   13.9152   44.3793    4.6800 C   0  0  0  0  0  0  0  0  0  0  0  0
   13.0113   44.8856    3.6004 C   0  0  0  0  0  0  0  0  0  0  0  0
   13.1774   44.1400    2.2747 C   0  0  0  0  0  0  0  0  0  0  0  0
   14.5754   44.3009    1.7048 C   0  0  0  0  0  0  0  0  0  0  0  0
   12.8196   42.6699    2.4019 C   0  0  0  0  0  0  0  0  0  0  0  0
   15.9178   40.4461    9.7420 N   0  0  0  0  0  0  0  0  0  0  0  0
   16.6027   41.4171    9.1238 N   0  0  0  0  0  0  0  0  0  0  0  0
   13.4704   43.3112    5.5239 N   0  0  0  0  0  0  0  0  0  0  0  0
   13.6935   41.6809    7.3271 N   0  0  0  0  0  0  0  0  0  0  0  0
   14.5981   41.2951    8.2115 N   0  0  0  0  0  0  0  0  0  0  0  0
   15.8443   43.0883    7.0254 S   0  0  0  0  0  0  0  0  0  0  0  0
   15.0575   44.8906    4.8198 O   0  0  0  0  0  0  0  0  0  0  0  0
  1  2  1  0
  2  3  1  0
  3  4  1  0
  5 17  1  0
  6 17  1  0
  6 14  1  0
  8  7  1  0
  8  9  1  0
  9 10  1  0
  9 11  1  0
 12 13  1  0
 14  7  1  0
 16 15  1  0
 16  4  1  0
 16  5  1  0
  4 12  2  0
  5 13  2  0
  6 15  2  0
  7 18  2  0
M  END
>  <rmsd>  (706) 
0.212028876

$$$$
Molport-047-885-905 PubChem-165928730
     RDKit          3D

 22 23  0  0  0  0  0  0  0  0999 V2000
    9.6754   46.8061    0.6538 C   0  0  0  0  0  0  0  0  0  0  0  0
    9.8734   47.4524    1.8780 C   0  0  0  0  0  0  0  0  0  0  0  0
   11.0198   47.1848    2.6326 C   0  0  0  0  0  0  0  0  0  0  0  0
   11.9720   46.2749    2.1605 C   0  0  0  0  0  0  0  0  0  0  0  0
   11.7691   45.6223    0.9396 C   0  0  0  0  0  0  0  0  0  0  0  0
   10.6226   45.8901    0.1852 C   0  0  0  0  0  0  0  0  0  0  0  0
   13.1785   45.9707    2.9752 C   0  0  0  0  0  0  0  0  0  0  0  0
   13.8621   44.3921    4.7350 C   0  0  0  0  0  0  0  0  0  0  0  0
   14.3830   42.6793    6.5480 C   0  0  0  0  0  0  0  0  0  0  0  0
   16.0788   42.1441    7.8052 C   0  0  0  0  0  0  0  0  0  0  0  0
   15.6981   43.0323    6.8113 C   0  0  0  0  0  0  0  0  0  0  0  0
   15.0159   40.2946    9.0805 C   0  0  0  0  0  0  0  0  0  0  0  0
   14.4627   40.8439   10.3845 C   0  0  0  0  0  0  0  0  0  0  0  0
   14.4100   39.7506   11.4413 C   0  0  0  0  0  0  0  0  0  0  0  0
   13.2798   38.7679   11.1697 C   0  0  0  0  0  0  0  0  0  0  0  0
   11.9849   39.3670   11.5082 C   0  0  0  0  0  0  0  0  0  0  0  0
   12.9029   44.8881    3.8525 O   0  0  0  0  0  0  0  0  0  0  0  0
   15.0155   44.9019    4.7750 O   0  0  0  0  0  0  0  0  0  0  0  0
   13.5153   43.2982    5.5913 N   0  0  0  0  0  0  0  0  0  0  0  0
   13.9937   41.6553    7.3234 N   0  0  0  0  0  0  0  0  0  0  0  0
   15.0333   41.3398    8.0723 N   0  0  0  0  0  0  0  0  0  0  0  0
   10.9627   39.8393   11.7749 N   0  0  0  0  0  0  0  0  0  0  0  0
  2  3  2  0
  4  5  2  0
  6  1  2  0
  7  4  1  0
  7 17  1  0
  8 17  1  0
  8 19  1  0
 11  9  1  0
 12 21  1  0
 12 13  1  0
 13 14  1  0
 14 15  1  0
 15 16  1  0
 19  9  1  0
 21 20  1  0
 21 10  1  0
  1  2  1  0
  3  4  1  0
  5  6  1  0
  8 18  2  0
  9 20  2  0
 10 11  2  0
 16 22  3  0
M  END
>  <rmsd>  (707) 
0.211961135

$$$$
MolPort-007-713-555 ChemDiv-E002-0466 MCULE-7840637079 PubChem-22509996 ZINC000006768194
     RDKit          3D

 28 30  0  0  0  0  0  0  0  0999 V2000
   15.1295   41.6174    8.5305 C   0  0  0  0  0  0  0  0  0  0  0  0
   16.8891   40.6364    9.9940 C   0  0  0  0  0  0  0  0  0  0  0  0
   17.2308   41.6396   11.0800 C   0  0  0  0  0  0  0  0  0  0  0  0
   14.4951   40.0318   10.3961 C   0  0  0  0  0  0  0  0  0  0  0  0
   14.8228   38.7991   10.9849 C   0  0  0  0  0  0  0  0  0  0  0  0
   13.8833   38.1062   11.7536 C   0  0  0  0  0  0  0  0  0  0  0  0
   12.6083   38.6423   11.9488 C   0  0  0  0  0  0  0  0  0  0  0  0
   12.2738   39.8726   11.3783 C   0  0  0  0  0  0  0  0  0  0  0  0
   13.2136   40.5652   10.6099 C   0  0  0  0  0  0  0  0  0  0  0  0
   14.2322   42.7793    6.6351 C   0  0  0  0  0  0  0  0  0  0  0  0
   13.9125   44.3457    4.6623 C   0  0  0  0  0  0  0  0  0  0  0  0
   13.2866   45.7909    2.6266 C   0  0  0  0  0  0  0  0  0  0  0  0
   14.5038   46.4916    2.6206 C   0  0  0  0  0  0  0  0  0  0  0  0
   14.7593   47.4796    1.6700 C   0  0  0  0  0  0  0  0  0  0  0  0
   13.7984   47.7826    0.7082 C   0  0  0  0  0  0  0  0  0  0  0  0
   12.5838   47.0968    0.6989 C   0  0  0  0  0  0  0  0  0  0  0  0
   12.3074   46.0985    1.6478 C   0  0  0  0  0  0  0  0  0  0  0  0
   10.9938   45.4107    1.5770 C   0  0  0  0  0  0  0  0  0  0  0  0
    9.4103   43.7355    2.4470 C   0  0  0  0  0  0  0  0  0  0  0  0
   15.4801   40.7536    9.6288 N   0  0  0  0  0  0  0  0  0  0  0  0
   15.9786   42.5361    8.0133 N   0  0  0  0  0  0  0  0  0  0  0  0
   15.4779   43.1865    6.9644 N   0  0  0  0  0  0  0  0  0  0  0  0
   13.4713   43.3104    5.5460 N   0  0  0  0  0  0  0  0  0  0  0  0
   13.0364   44.7749    3.6121 N   0  0  0  0  0  0  0  0  0  0  0  0
   15.0505   44.8679    4.8079 O   0  0  0  0  0  0  0  0  0  0  0  0
   10.6591   44.4094    2.4917 O   0  0  0  0  0  0  0  0  0  0  0  0
   10.1689   45.7357    0.6778 O   0  0  0  0  0  0  0  0  0  0  0  0
   13.6844   41.5590    7.6534 S   0  0  0  0  0  0  0  0  0  0  0  0
  1 20  1  0
  1 28  1  0
  2 20  1  0
  2  3  1  0
  5  6  2  0
  7  8  2  0
  9  4  2  0
 10 23  1  0
 10 28  1  0
 11 24  1  0
 13 14  2  0
 15 16  2  0
 17 18  1  0
 17 12  2  0
 18 26  1  0
 19 26  1  0
 20  4  1  0
 21 22  1  0
 23 11  1  0
 24 12  1  0
  1 21  2  0
  4  5  1  0
  6  7  1  0
  8  9  1  0
 10 22  2  0
 11 25  2  0
 12 13  1  0
 14 15  1  0
 16 17  1  0
 18 27  2  0
M  END
>  <rmsd>  (708) 
0.211814538

$$$$
MolPort-005-042-860 12430712 CHEMBL1307508 CSSS00159470275 MCULE-3771434084 PubChem-24791307 PubChem-44251546 ZINC000012430712
     RDKit          3D

 31 34  0  0  0  0  0  0  0  0999 V2000
    9.8570   42.9276    4.0349 C   0  0  0  0  0  0  0  0  0  0  0  0
   11.7034   44.4579    3.4000 C   0  0  0  0  0  0  0  0  0  0  0  0
   13.0226   44.9293    3.6152 C   0  0  0  0  0  0  0  0  0  0  0  0
   13.5194   45.9552    2.7942 C   0  0  0  0  0  0  0  0  0  0  0  0
   12.7374   46.5074    1.7792 C   0  0  0  0  0  0  0  0  0  0  0  0
   11.4413   46.0416    1.5682 C   0  0  0  0  0  0  0  0  0  0  0  0
   10.9282   45.0246    2.3730 C   0  0  0  0  0  0  0  0  0  0  0  0
   13.9082   44.3863    4.6756 C   0  0  0  0  0  0  0  0  0  0  0  0
   14.2222   42.7154    6.5813 C   0  0  0  0  0  0  0  0  0  0  0  0
   15.4926   43.0712    6.9933 C   0  0  0  0  0  0  0  0  0  0  0  0
   15.7412   42.2049    8.0523 C   0  0  0  0  0  0  0  0  0  0  0  0
   12.4405   41.0954    7.2336 C   0  0  0  0  0  0  0  0  0  0  0  0
   12.5345   39.5607    7.2522 C   0  0  0  0  0  0  0  0  0  0  0  0
   12.2411   38.9613    8.6304 C   0  0  0  0  0  0  0  0  0  0  0  0
   12.4752   39.2226   10.9529 C   0  0  0  0  0  0  0  0  0  0  0  0
   13.8484   38.8067   11.4525 C   0  0  0  0  0  0  0  0  0  0  0  0
   14.6565   40.0335   11.8452 C   0  0  0  0  0  0  0  0  0  0  0  0
   16.0606   39.6560   12.1701 C   0  0  0  0  0  0  0  0  0  0  0  0
   16.3468   38.8718   13.2955 C   0  0  0  0  0  0  0  0  0  0  0  0
   17.6703   38.5371   13.5973 C   0  0  0  0  0  0  0  0  0  0  0  0
   18.7100   38.9892   12.7787 C   0  0  0  0  0  0  0  0  0  0  0  0
   18.4266   39.7778   11.6595 C   0  0  0  0  0  0  0  0  0  0  0  0
   17.1032   40.1127   11.3568 C   0  0  0  0  0  0  0  0  0  0  0  0
   11.6117   40.9886    9.6717 C   0  0  0  0  0  0  0  0  0  0  0  0
   11.4835   41.6618    8.2931 C   0  0  0  0  0  0  0  0  0  0  0  0
   11.1730   43.4388    4.2008 O   0  0  0  0  0  0  0  0  0  0  0  0
   15.0606   44.8762    4.8308 O   0  0  0  0  0  0  0  0  0  0  0  0
   13.4687   43.3132    5.5186 N   0  0  0  0  0  0  0  0  0  0  0  0
   14.6754   41.3981    8.2407 N   0  0  0  0  0  0  0  0  0  0  0  0
   13.7618   41.7108    7.3390 N   0  0  0  0  0  0  0  0  0  0  0  0
   12.5994   39.9102    9.6785 N   0  0  0  0  0  0  0  0  0  0  0  0
  1 26  1  0
  2 26  1  0
  3  4  2  0
  3  8  1  0
  5  6  2  0
  7  2  2  0
  8 28  1  0
 10 11  1  0
 12 30  1  0
 12 13  1  0
 13 14  1  0
 14 31  1  0
 15 31  1  0
 15 16  1  0
 16 17  1  0
 17 18  1  0
 19 20  2  0
 21 22  2  0
 23 18  2  0
 24 31  1  0
 24 25  1  0
 25 12  1  0
 28  9  1  0
 30 29  1  0
 30  9  1  0
  2  3  1  0
  4  5  1  0
  6  7  1  0
  8 27  2  0
  9 10  2  0
 11 29  2  0
 18 19  1  0
 20 21  1  0
 22 23  1  0
M  END
>  <rmsd>  (709) 
0.211161926

$$$$
MolPort-005-107-313 CSSS00160421858 MCULE-3921337657 PubChem-45224063
     RDKit          3D

 27 29  0  0  0  0  0  0  0  0999 V2000
   12.3620   47.1312    3.0410 C   0  0  0  0  0  0  0  0  0  0  0  0
   13.2923   45.9521    2.8168 C   0  0  2  0  0  0  0  0  0  0  0  0
   13.2628   45.4783    1.3615 C   0  0  0  0  0  0  0  0  0  0  0  0
   11.9114   45.0225    0.9022 C   0  0  0  0  0  0  0  0  0  0  0  0
   10.0003   45.3912   -0.4617 C   0  0  0  0  0  0  0  0  0  0  0  0
    9.4258   44.1977   -0.0192 C   0  0  0  0  0  0  0  0  0  0  0  0
   10.1204   43.4062    0.8968 C   0  0  0  0  0  0  0  0  0  0  0  0
   11.3720   43.8150    1.3601 C   0  0  0  0  0  0  0  0  0  0  0  0
   13.8847   44.3803    4.6987 C   0  0  0  0  0  0  0  0  0  0  0  0
   14.3137   42.7242    6.5737 C   0  0  0  0  0  0  0  0  0  0  0  0
   15.3158   41.4727    8.3463 C   0  0  0  0  0  0  0  0  0  0  0  0
   15.6809   40.5988    9.4971 C   0  0  0  0  0  0  0  0  0  0  0  0
   15.4894   41.3358   10.8169 C   0  0  0  0  0  0  0  0  0  0  0  0
   12.2370   42.6468   11.3525 C   0  0  0  0  0  0  0  0  0  0  0  0
   11.2811   43.7809   11.4483 C   0  0  0  0  0  0  0  0  0  0  0  0
   11.9061   41.3117   11.5290 C   0  0  0  0  0  0  0  0  0  0  0  0
   13.1208   40.6796   11.3402 C   0  0  0  0  0  0  0  0  0  0  0  0
   13.3420   39.2088   11.4307 C   0  0  0  0  0  0  0  0  0  0  0  0
   11.2211   45.7735    0.0011 N   0  0  0  0  0  0  0  0  0  0  0  0
   12.9584   44.8683    3.7289 N   0  0  0  0  0  0  0  0  0  0  0  0
   13.4896   43.3093    5.5611 N   0  0  0  0  0  0  0  0  0  0  0  0
   15.5780   43.1157    6.8475 N   0  0  0  0  0  0  0  0  0  0  0  0
   16.1337   42.4208    7.8385 N   0  0  0  0  0  0  0  0  0  0  0  0
   14.0764   41.5899   11.0715 N   0  0  0  0  0  0  0  0  0  0  0  0
   13.5470   42.7986   11.0817 N   0  0  0  0  0  0  0  0  0  0  0  0
   15.0348   44.8900    4.7886 O   0  0  0  0  0  0  0  0  0  0  0  0
   13.8167   41.4685    7.5764 S   0  0  0  0  0  0  0  0  0  0  0  0
  2  1  1  6
  2  3  1  0
  2 20  1  0
  3  4  1  0
  5 19  2  0
  6  7  2  0
  8  4  2  0
  9 21  1  0
 10 27  1  0
 11 27  1  0
 12 11  1  0
 12 13  1  0
 13 24  1  0
 14 16  1  0
 15 14  1  0
 17 24  1  0
 18 17  1  0
 20  9  1  0
 21 10  1  0
 22 23  1  0
 24 25  1  0
  4 19  1  0
  5  6  1  0
  7  8  1  0
  9 26  2  0
 10 22  2  0
 11 23  2  0
 14 25  2  0
 16 17  2  0
M  END
>  <rmsd>  (710) 
0.210953459

$$$$
MolPort-000-640-780 8048355 CSSS00160348931 MCULE-9317775528 PubChem-9179313 ZINC000008048355
     RDKit          3D

 20 21  0  0  0  0  0  0  0  0999 V2000
   12.9171   39.0407   10.9156 C   0  0  0  0  0  0  0  0  0  0  0  0
   14.1964   39.6594   11.4457 C   0  0  0  0  0  0  0  0  0  0  0  0
   15.1255   41.7818   11.7391 C   0  0  0  0  0  0  0  0  0  0  0  0
   14.1441   42.7753   12.3297 C   0  0  0  0  0  0  0  0  0  0  0  0
   15.3872   40.6649    9.7040 C   0  0  0  0  0  0  0  0  0  0  0  0
   15.0999   41.5532    8.5426 C   0  0  0  0  0  0  0  0  0  0  0  0
   15.9716   42.5045    8.0292 C   0  0  0  0  0  0  0  0  0  0  0  0
   14.2342   42.7718    6.6293 C   0  0  0  0  0  0  0  0  0  0  0  0
   13.9114   44.3506    4.6631 C   0  0  0  0  0  0  0  0  0  0  0  0
   13.0268   44.8167    3.5808 C   0  0  0  0  0  0  0  0  0  0  0  0
   11.7566   44.2469    3.4087 C   0  0  0  0  0  0  0  0  0  0  0  0
   10.9166   44.6884    2.3821 C   0  0  0  0  0  0  0  0  0  0  0  0
   11.3406   45.7031    1.5199 C   0  0  0  0  0  0  0  0  0  0  0  0
   12.6044   46.2765    1.6839 C   0  0  0  0  0  0  0  0  0  0  0  0
   13.4445   45.8349    2.7105 C   0  0  0  0  0  0  0  0  0  0  0  0
   14.4431   40.9284   10.7797 N   0  0  0  0  0  0  0  0  0  0  0  0
   15.4791   43.1836    6.9589 N   0  0  0  0  0  0  0  0  0  0  0  0
   13.4711   43.3092    5.5448 N   0  0  0  0  0  0  0  0  0  0  0  0
   15.0517   44.8700    4.8088 O   0  0  0  0  0  0  0  0  0  0  0  0
   13.6797   41.5503    7.6400 S   0  0  0  0  0  0  0  0  0  0  0  0
  1  2  1  0
  2 16  1  0
  3 16  1  0
  3  4  1  0
  5 16  1  0
  5  6  1  0
  6 20  1  0
  7 17  1  0
  8 18  1  0
  8 20  1  0
  9 10  1  0
 11 12  2  0
 13 14  2  0
 15 10  2  0
 18  9  1  0
  6  7  2  0
  8 17  2  0
  9 19  2  0
 10 11  1  0
 12 13  1  0
 14 15  1  0
M  END
>  <rmsd>  (711) 
0.210848823

$$$$
MolPort-007-713-550 ChemDiv-E002-0461 MCULE-7672710718 PubChem-22509992 ZINC000006768189
     RDKit          3D

 28 30  0  0  0  0  0  0  0  0999 V2000
   15.1324   41.6024    8.5174 C   0  0  0  0  0  0  0  0  0  0  0  0
   16.9014   40.5605    9.9259 C   0  0  0  0  0  0  0  0  0  0  0  0
   17.5132   39.5045    9.0235 C   0  0  0  0  0  0  0  0  0  0  0  0
   14.4996   40.0251   10.3910 C   0  0  0  0  0  0  0  0  0  0  0  0
   14.8205   38.7982   10.9963 C   0  0  0  0  0  0  0  0  0  0  0  0
   13.8790   38.1215   11.7768 C   0  0  0  0  0  0  0  0  0  0  0  0
   12.6081   38.6680   11.9684 C   0  0  0  0  0  0  0  0  0  0  0  0
   12.2799   39.8928   11.3829 C   0  0  0  0  0  0  0  0  0  0  0  0
   13.2219   40.5690   10.6027 C   0  0  0  0  0  0  0  0  0  0  0  0
   14.2330   42.7733    6.6290 C   0  0  0  0  0  0  0  0  0  0  0  0
   13.9118   44.3483    4.6635 C   0  0  0  0  0  0  0  0  0  0  0  0
   13.2981   45.8039    2.6429 C   0  0  0  0  0  0  0  0  0  0  0  0
   14.5051   46.5148    2.6187 C   0  0  0  0  0  0  0  0  0  0  0  0
   14.7236   47.5009    1.6552 C   0  0  0  0  0  0  0  0  0  0  0  0
   13.7375   47.7921    0.6991 C   0  0  0  0  0  0  0  0  0  0  0  0
   12.5261   47.0841    0.7173 C   0  0  0  0  0  0  0  0  0  0  0  0
   10.2953   46.7097   -0.2892 C   0  0  0  0  0  0  0  0  0  0  0  0
   12.3165   46.0937    1.6914 C   0  0  0  0  0  0  0  0  0  0  0  0
   15.1358   49.5388   -0.3613 C   0  0  0  0  0  0  0  0  0  0  0  0
   15.4855   40.7329    9.6107 N   0  0  0  0  0  0  0  0  0  0  0  0
   15.9815   42.5227    8.0032 N   0  0  0  0  0  0  0  0  0  0  0  0
   15.4795   43.1780    6.9582 N   0  0  0  0  0  0  0  0  0  0  0  0
   13.4707   43.3097    5.5435 N   0  0  0  0  0  0  0  0  0  0  0  0
   13.0355   44.7838    3.6163 N   0  0  0  0  0  0  0  0  0  0  0  0
   15.0507   44.8688    4.8095 O   0  0  0  0  0  0  0  0  0  0  0  0
   11.5476   47.3794   -0.2382 O   0  0  0  0  0  0  0  0  0  0  0  0
   13.9392   48.7771   -0.2739 O   0  0  0  0  0  0  0  0  0  0  0  0
   13.6857   41.5488    7.6429 S   0  0  0  0  0  0  0  0  0  0  0  0
  1 20  1  0
  1 28  1  0
  2 20  1  0
  2  3  1  0
  5  6  2  0
  7  8  2  0
  9  4  2  0
 10 23  1  0
 10 28  1  0
 11 24  1  0
 13 14  2  0
 15 16  2  0
 15 27  1  0
 16 26  1  0
 17 26  1  0
 18 12  2  0
 19 27  1  0
 20  4  1  0
 21 22  1  0
 23 11  1  0
 24 12  1  0
  1 21  2  0
  4  5  1  0
  6  7  1  0
  8  9  1  0
 10 22  2  0
 11 25  2  0
 12 13  1  0
 14 15  1  0
 16 18  1  0
M  END
>  <rmsd>  (712) 
0.210411593

$$$$
MolPort-007-714-547 ChemDiv-E002-1882 MCULE-4277690371 PubChem-22510851 ZINC000006780255 ZINC06780255
     RDKit          3D

 29 31  0  0  0  0  0  0  0  0999 V2000
   16.7043   50.1584   -2.0695 C   0  0  0  0  0  0  0  0  0  0  0  0
   15.4716   50.5404   -1.2770 C   0  0  0  0  0  0  0  0  0  0  0  0
   13.9812   48.8331   -0.3118 C   0  0  0  0  0  0  0  0  0  0  0  0
   13.7445   47.7926    0.7020 C   0  0  0  0  0  0  0  0  0  0  0  0
   12.5365   47.0817    0.7259 C   0  0  0  0  0  0  0  0  0  0  0  0
   12.3173   46.0944    1.6908 C   0  0  0  0  0  0  0  0  0  0  0  0
   13.2996   45.8042    2.6431 C   0  0  0  0  0  0  0  0  0  0  0  0
   13.9126   44.3486    4.6638 C   0  0  0  0  0  0  0  0  0  0  0  0
   14.2337   42.7729    6.6289 C   0  0  0  0  0  0  0  0  0  0  0  0
   15.1333   41.6012    8.5168 C   0  0  0  0  0  0  0  0  0  0  0  0
   16.9021   40.5573    9.9237 C   0  0  0  0  0  0  0  0  0  0  0  0
   17.5121   39.5009    9.0206 C   0  0  0  0  0  0  0  0  0  0  0  0
   14.5001   40.0246   10.3909 C   0  0  0  0  0  0  0  0  0  0  0  0
   13.2231   40.5699   10.6032 C   0  0  0  0  0  0  0  0  0  0  0  0
   12.2810   39.8947   11.3842 C   0  0  0  0  0  0  0  0  0  0  0  0
   12.6083   38.6697   11.9698 C   0  0  0  0  0  0  0  0  0  0  0  0
   13.8786   38.1217   11.7774 C   0  0  0  0  0  0  0  0  0  0  0  0
   14.8201   38.7974   10.9959 C   0  0  0  0  0  0  0  0  0  0  0  0
   14.5084   46.5154    2.6194 C   0  0  0  0  0  0  0  0  0  0  0  0
   14.7290   47.5027    1.6552 C   0  0  0  0  0  0  0  0  0  0  0  0
   15.1920   49.5305   -0.3190 O   0  0  0  0  0  0  0  0  0  0  0  0
   13.0930   49.0922   -1.1706 O   0  0  0  0  0  0  0  0  0  0  0  0
   15.0513   44.8693    4.8103 O   0  0  0  0  0  0  0  0  0  0  0  0
   13.0365   44.7842    3.6165 N   0  0  0  0  0  0  0  0  0  0  0  0
   13.4714   43.3099    5.5435 N   0  0  0  0  0  0  0  0  0  0  0  0
   15.4805   43.1768    6.9575 N   0  0  0  0  0  0  0  0  0  0  0  0
   15.9826   42.5209    8.0023 N   0  0  0  0  0  0  0  0  0  0  0  0
   15.4863   40.7313    9.6096 N   0  0  0  0  0  0  0  0  0  0  0  0
   13.6860   41.5486    7.6427 S   0  0  0  0  0  0  0  0  0  0  0  0
  1  2  1  0
  2 21  1  0
  3 21  1  0
  3  4  1  0
  5  6  2  0
  7 24  1  0
  7 19  2  0
  8 25  1  0
  9 29  1  0
 10 29  1  0
 10 28  1  0
 11 28  1  0
 11 12  1  0
 14 15  2  0
 16 17  2  0
 18 13  2  0
 20  4  2  0
 24  8  1  0
 25  9  1  0
 26 27  1  0
 28 13  1  0
  3 22  2  0
  4  5  1  0
  6  7  1  0
  8 23  2  0
  9 26  2  0
 10 27  2  0
 13 14  1  0
 15 16  1  0
 17 18  1  0
 19 20  1  0
M  END
>  <rmsd>  (713) 
0.210265219

$$$$
MolPort-002-465-660 CSC000683401 CSSS00000683401 MCULE-2578394939 PubChem-3822736 Z56960310
     RDKit          3D

 21 21  0  0  0  0  0  0  0  0999 V2000
   10.3795   39.7933    5.3550 C   0  0  0  0  0  0  0  0  0  0  0  0
   10.2780   40.9956    6.2757 C   0  0  0  0  0  0  0  0  0  0  0  0
   12.5513   40.9753    7.2597 C   0  0  0  0  0  0  0  0  0  0  0  0
   13.8883   41.6074    7.3764 C   0  0  0  0  0  0  0  0  0  0  0  0
   14.2991   42.6830    6.5821 C   0  0  0  0  0  0  0  0  0  0  0  0
   13.8815   44.3887    4.7188 C   0  0  0  0  0  0  0  0  0  0  0  0
   12.9170   44.9010    3.7100 C   0  0  0  0  0  0  0  0  0  0  0  0
   16.0688   41.9436    8.1752 C   0  0  0  0  0  0  0  0  0  0  0  0
   17.3123   41.7541    8.9726 C   0  0  0  0  0  0  0  0  0  0  0  0
   14.8982   41.1953    8.2805 C   0  0  0  0  0  0  0  0  0  0  0  0
   14.7396   40.0985    9.2913 C   0  0  0  0  0  0  0  0  0  0  0  0
   13.9502   40.5812   10.5037 C   0  0  2  0  0  0  0  0  0  0  0  0
   14.7826   41.4707   11.4283 C   0  0  0  0  0  0  0  0  0  0  0  0
   15.9766   40.7380   12.0238 C   0  0  0  0  0  0  0  0  0  0  0  0
   13.3656   39.3987   11.2551 C   0  0  0  0  0  0  0  0  0  0  0  0
   11.5615   41.5763    6.4746 O   0  0  0  0  0  0  0  0  0  0  0  0
   15.0312   44.8973    4.7877 O   0  0  0  0  0  0  0  0  0  0  0  0
   12.3020   39.8965    7.8638 O   0  0  0  0  0  0  0  0  0  0  0  0
   13.4951   43.3032    5.5686 N   0  0  0  0  0  0  0  0  0  0  0  0
   12.9852   43.8910    2.2466 Cl  0  0  0  0  0  0  0  0  0  0  0  0
   15.8787   43.1088    6.9850 S   0  0  0  0  0  0  0  0  0  0  0  0
  1  2  1  0
  2 16  1  0
  3 16  1  0
  3  4  1  0
  5 19  1  0
  5 21  1  0
  7  6  1  0
  7 20  1  0
  8 21  1  0
  9  8  1  0
 10  4  1  0
 11 10  1  0
 11 12  1  0
 12 13  1  0
 12 15  1  1
 13 14  1  0
 19  6  1  0
  3 18  2  0
  4  5  2  0
  6 17  2  0
  8 10  2  0
M  END
>  <rmsd>  (714) 
0.209873945

$$$$
MolPort-001-980-411 5007089 CHEMBL1312536 CSSS00121700322 LN01130057 MCULE-6991564078 PubChem-3141658 ZINC000005007089
     RDKit          3D

 29 33  0  0  0  0  0  0  0  0999 V2000
   14.2894   42.7172    6.5773 C   0  0  0  0  0  0  0  0  0  0  0  0
   13.9644   44.2623    4.5820 C   0  0  0  0  0  0  0  0  0  0  0  0
   13.1201   44.5672    3.3751 C   0  0  2  0  0  0  0  0  0  0  0  0
   13.8980   45.4108    2.3411 C   0  0  0  0  0  0  0  0  0  0  0  0
   13.0094   45.7147    1.1245 C   0  0  1  0  0  0  0  0  0  0  0  0
   12.5735   44.3919    0.4753 C   0  0  0  0  0  0  0  0  0  0  0  0
   11.7871   43.5442    1.4880 C   0  0  2  0  0  0  0  0  0  0  0  0
   10.5459   44.3258    1.9496 C   0  0  0  0  0  0  0  0  0  0  0  0
   10.9719   45.6501    2.6043 C   0  0  2  0  0  0  0  0  0  0  0  0
   11.7628   46.4878    1.5867 C   0  0  0  0  0  0  0  0  0  0  0  0
   11.8679   45.3497    3.8162 C   0  0  0  0  0  0  0  0  0  0  0  0
   12.6818   43.2507    2.7025 C   0  0  0  0  0  0  0  0  0  0  0  0
   15.0956   41.5695    8.6588 C   0  0  0  0  0  0  0  0  0  0  0  0
   16.0713   41.6620    7.6578 C   0  0  0  0  0  0  0  0  0  0  0  0
   17.4498   41.0991    7.7918 C   0  0  0  0  0  0  0  0  0  0  0  0
   15.6148   42.2895    6.4828 C   0  0  0  0  0  0  0  0  0  0  0  0
   16.4061   42.3709    5.2790 C   0  0  0  0  0  0  0  0  0  0  0  0
   15.2694   40.9951   10.0141 C   0  0  0  0  0  0  0  0  0  0  0  0
   12.9242   40.0607   10.1831 C   0  0  0  0  0  0  0  0  0  0  0  0
   12.7779   38.5713   10.4823 C   0  0  0  0  0  0  0  0  0  0  0  0
   12.8440   38.3345   11.9900 C   0  0  0  0  0  0  0  0  0  0  0  0
   14.1607   38.8650   12.5549 C   0  0  0  0  0  0  0  0  0  0  0  0
   14.3023   40.3523   12.2408 C   0  0  0  0  0  0  0  0  0  0  0  0
   13.4932   43.3150    5.5480 N   0  0  0  0  0  0  0  0  0  0  0  0
   17.0387   42.4320    4.3120 N   0  0  0  0  0  0  0  0  0  0  0  0
   14.1473   40.5640   10.8038 N   0  0  0  0  0  0  0  0  0  0  0  0
   15.0345   44.8975    4.7910 O   0  0  0  0  0  0  0  0  0  0  0  0
   16.4322   40.8974   10.4936 O   0  0  0  0  0  0  0  0  0  0  0  0
   13.6804   42.2800    8.0768 S   0  0  0  0  0  0  0  0  0  0  0  0
  1 24  1  0
  1 29  1  0
  3  2  1  1
  3  4  1  0
  5  4  1  1
  5  6  1  0
  7  6  1  6
  7  8  1  0
  7 12  1  0
  9  8  1  6
  9 10  1  0
  9 11  1  0
 10  5  1  0
 11  3  1  0
 12  3  1  0
 13 29  1  0
 13 18  1  0
 14 16  1  0
 15 14  1  0
 16 17  1  0
 18 26  1  0
 19 26  1  0
 19 20  1  0
 20 21  1  0
 21 22  1  0
 22 23  1  0
 23 26  1  0
 24  2  1  0
  2 27  2  0
 13 14  2  0
 16  1  2  0
 18 28  2  0
 17 25  3  0
M  END
>  <rmsd>  (715) 
0.209770977

$$$$
MolPort-009-692-422 9320458 CSSS03437188557 MCULE-7610529004 PubChem-16949111 ZINC000009320458 ZINC09320458
     RDKit          3D

 27 29  0  0  0  0  0  0  0  0999 V2000
   12.3222   48.3444    3.8634 C   0  0  0  0  0  0  0  0  0  0  0  0
   12.3423   47.2273    4.8484 C   0  0  0  0  0  0  0  0  0  0  0  0
   12.9724   44.9582    3.6811 C   0  0  0  0  0  0  0  0  0  0  0  0
   13.8974   44.3969    4.7051 C   0  0  0  0  0  0  0  0  0  0  0  0
   14.2507   42.7027    6.5608 C   0  0  0  0  0  0  0  0  0  0  0  0
   16.0213   42.3451    7.9055 C   0  0  0  0  0  0  0  0  0  0  0  0
   15.1537   41.3497    8.3930 C   0  0  0  0  0  0  0  0  0  0  0  0
   15.4619   40.2847    9.3705 C   0  0  0  0  0  0  0  0  0  0  0  0
   14.4724   39.8324   10.3735 C   0  0  0  0  0  0  0  0  0  0  0  0
   14.7207   38.6762   11.1293 C   0  0  0  0  0  0  0  0  0  0  0  0
   13.8035   38.2472   12.0933 C   0  0  0  0  0  0  0  0  0  0  0  0
   12.6311   38.9740   12.3142 C   0  0  0  0  0  0  0  0  0  0  0  0
   12.3769   40.1306   11.5733 C   0  0  0  0  0  0  0  0  0  0  0  0
   13.2945   40.5588   10.6098 C   0  0  0  0  0  0  0  0  0  0  0  0
   17.3662   42.6508    8.4414 C   0  0  0  0  0  0  0  0  0  0  0  0
   17.7015   42.3762    9.7761 C   0  0  0  0  0  0  0  0  0  0  0  0
   18.9646   42.7083   10.2740 C   0  0  0  0  0  0  0  0  0  0  0  0
   19.9010   43.3293    9.4439 C   0  0  0  0  0  0  0  0  0  0  0  0
   19.5723   43.6222    8.1181 C   0  0  0  0  0  0  0  0  0  0  0  0
   18.3086   43.2892    7.6214 C   0  0  0  0  0  0  0  0  0  0  0  0
   12.9198   47.3657    5.9138 O   0  0  0  0  0  0  0  0  0  0  0  0
   15.0537   44.8822    4.8231 O   0  0  0  0  0  0  0  0  0  0  0  0
   16.5926   39.7279    9.3267 O   0  0  0  0  0  0  0  0  0  0  0  0
   11.5054   45.6869    4.4752 S   0  0  0  0  0  0  0  0  0  0  0  0
   13.7208   41.4256    7.5054 S   0  0  0  0  0  0  0  0  0  0  0  0
   13.4658   43.3095    5.5303 N   0  0  0  0  0  0  0  0  0  0  0  0
   15.5028   43.0874    6.8869 N   0  0  0  0  0  0  0  0  0  0  0  0
  1  2  1  0
  2 24  1  0
  3 24  1  0
  3  4  1  0
  4 26  1  0
  5 25  1  0
  6 27  1  0
  6 15  1  0
  7 25  1  0
  7  8  1  0
  8  9  1  0
 10 11  2  0
 12 13  2  0
 14  9  2  0
 16 17  2  0
 18 19  2  0
 20 15  2  0
 26  5  1  0
  2 21  2  0
  4 22  2  0
  5 27  2  0
  6  7  2  0
  8 23  2  0
  9 10  1  0
 11 12  1  0
 13 14  1  0
 15 16  1  0
 17 18  1  0
 19 20  1  0
M  END
>  <rmsd>  (716) 
0.209576905

$$$$
Molport-046-988-330 MCULE-4942212263 PubChem-110130929
     RDKit          3D

 24 26  0  0  0  0  0  0  0  0999 V2000
   12.8962   44.9345    3.7542 C   0  0  0  0  0  0  0  0  0  0  0  0
   13.8792   44.3912    4.7268 C   0  0  0  0  0  0  0  0  0  0  0  0
   14.3195   42.6609    6.5572 C   0  0  0  0  0  0  0  0  0  0  0  0
   14.8139   41.1809    8.1789 C   0  0  0  0  0  0  0  0  0  0  0  0
   16.0272   41.8603    8.1129 C   0  0  0  0  0  0  0  0  0  0  0  0
   17.2062   41.5732    8.9426 C   0  0  0  0  0  0  0  0  0  0  0  0
   18.3822   42.3191    8.8073 C   0  0  0  0  0  0  0  0  0  0  0  0
   19.4047   41.0302   10.5113 C   0  0  0  0  0  0  0  0  0  0  0  0
   18.2331   40.2845   10.6528 C   0  0  0  0  0  0  0  0  0  0  0  0
   18.1726   39.1762   11.6597 C   0  0  2  0  0  0  0  0  0  0  0  0
   18.1561   37.7918   10.9968 C   0  0  0  0  0  0  0  0  0  0  0  0
   16.8013   37.4786   10.3585 C   0  0  0  0  0  0  0  0  0  0  0  0
   15.6902   37.6103   11.3937 C   0  0  0  0  0  0  0  0  0  0  0  0
   17.0024   39.3453   12.6353 C   0  0  0  0  0  0  0  0  0  0  0  0
   14.6326   39.8341   11.9440 C   0  0  0  0  0  0  0  0  0  0  0  0
   13.3624   39.4361   11.2717 C   0  0  0  0  0  0  0  0  0  0  0  0
   15.0289   44.8999    4.7913 O   0  0  0  0  0  0  0  0  0  0  0  0
   14.7136   40.9811   12.4589 O   0  0  0  0  0  0  0  0  0  0  0  0
   13.4988   43.2995    5.5714 N   0  0  0  0  0  0  0  0  0  0  0  0
   13.8707   41.6336    7.3095 N   0  0  0  0  0  0  0  0  0  0  0  0
   19.4533   42.0307    9.5927 N   0  0  0  0  0  0  0  0  0  0  0  0
   17.1637   40.5718    9.8616 N   0  0  0  0  0  0  0  0  0  0  0  0
   15.7506   38.9361   12.0016 N   0  0  0  0  0  0  0  0  0  0  0  0
   15.9129   43.0596    6.9344 S   0  0  0  0  0  0  0  0  0  0  0  0
  1  2  1  0
  2 19  1  0
  3 24  1  0
  4 20  1  0
  5 24  1  0
  5  6  1  0
  6 22  2  0
  7 21  2  0
  8  9  2  0
 10  9  1  6
 10 11  1  0
 11 12  1  0
 12 13  1  0
 13 23  1  0
 14 23  1  0
 14 10  1  0
 16 15  1  0
 19  3  1  0
 23 15  1  0
  2 17  2  0
  3 20  2  0
  4  5  2  0
  6  7  1  0
  8 21  1  0
  9 22  1  0
 15 18  2  0
M  END
>  <rmsd>  (717) 
0.209469035

$$$$
MolPort-007-714-557 ChemDiv-E002-1895 MCULE-1375136554 PubChem-22510858 ZINC000006780260
     RDKit          3D

 25 27  0  0  0  0  0  0  0  0999 V2000
   15.1359   41.5953    8.5128 C   0  0  0  0  0  0  0  0  0  0  0  0
   16.8963   40.5839    9.9546 C   0  0  0  0  0  0  0  0  0  0  0  0
   17.2736   41.5838   11.0319 C   0  0  0  0  0  0  0  0  0  0  0  0
   14.4967   40.0289   10.3930 C   0  0  0  0  0  0  0  0  0  0  0  0
   13.2293   40.5886   10.6230 C   0  0  0  0  0  0  0  0  0  0  0  0
   12.2869   39.9175   11.4072 C   0  0  0  0  0  0  0  0  0  0  0  0
   12.6048   38.6826   11.9773 C   0  0  0  0  0  0  0  0  0  0  0  0
   13.8661   38.1205   11.7661 C   0  0  0  0  0  0  0  0  0  0  0  0
   14.8081   38.7919   10.9816 C   0  0  0  0  0  0  0  0  0  0  0  0
   14.2351   42.7688    6.6262 C   0  0  0  0  0  0  0  0  0  0  0  0
   13.9196   44.3369    4.6556 C   0  0  0  0  0  0  0  0  0  0  0  0
   13.4316   45.6365    2.5275 C   0  0  0  0  0  0  0  0  0  0  0  0
   12.5927   46.7072    2.1981 C   0  0  0  0  0  0  0  0  0  0  0  0
   12.9126   47.5618    1.1404 C   0  0  0  0  0  0  0  0  0  0  0  0
   14.0700   47.3423    0.3916 C   0  0  0  0  0  0  0  0  0  0  0  0
   14.9002   46.2601    0.6916 C   0  0  0  0  0  0  0  0  0  0  0  0
   14.5884   45.3999    1.7497 C   0  0  0  0  0  0  0  0  0  0  0  0
   15.4594   44.2096    1.9656 C   0  0  0  0  0  0  0  0  0  0  0  0
   15.4849   40.7283    9.6090 N   0  0  0  0  0  0  0  0  0  0  0  0
   15.9958   42.4949    7.9802 N   0  0  0  0  0  0  0  0  0  0  0  0
   15.4934   43.1516    6.9361 N   0  0  0  0  0  0  0  0  0  0  0  0
   13.4707   43.3095    5.5444 N   0  0  0  0  0  0  0  0  0  0  0  0
   13.0467   44.7836    3.6138 N   0  0  0  0  0  0  0  0  0  0  0  0
   15.0517   44.8710    4.8098 O   0  0  0  0  0  0  0  0  0  0  0  0
   13.6776   41.5627    7.6564 S   0  0  0  0  0  0  0  0  0  0  0  0
  1 19  1  0
  1 25  1  0
  2 19  1  0
  2  3  1  0
  5  6  2  0
  7  8  2  0
  9  4  2  0
 10 22  1  0
 10 25  1  0
 11 23  1  0
 13 14  2  0
 15 16  2  0
 17 12  2  0
 18 17  1  0
 19  4  1  0
 20 21  1  0
 22 11  1  0
 23 12  1  0
  1 20  2  0
  4  5  1  0
  6  7  1  0
  8  9  1  0
 10 21  2  0
 11 24  2  0
 12 13  1  0
 14 15  1  0
 16 17  1  0
M  END
>  <rmsd>  (718) 
0.208662465

$$$$
MolPort-010-852-332 41076400 ChemDiv-G952-3119 MCULE-5099997512 PubChem-52095932 ZINC000041076400 ZINC41076400
     RDKit          3D

 21 23  0  0  0  0  0  0  0  0999 V2000
   14.0735   39.0239   11.9624 C   0  0  0  0  0  0  0  0  0  0  0  0
   13.1230   39.6370   10.9514 C   0  0  0  0  0  0  0  0  0  0  0  0
   13.6271   39.4046    9.5363 C   0  0  0  0  0  0  0  0  0  0  0  0
   14.6930   40.3871    9.1773 C   0  0  0  0  0  0  0  0  0  0  0  0
   15.7508   41.9271    8.2179 C   0  0  0  0  0  0  0  0  0  0  0  0
   14.2220   42.6953    6.5762 C   0  0  0  0  0  0  0  0  0  0  0  0
   13.9086   44.3857    4.6775 C   0  0  0  0  0  0  0  0  0  0  0  0
   13.0072   44.9063    3.6344 C   0  0  0  0  0  0  0  0  0  0  0  0
   11.7272   44.3579    3.4656 C   0  0  0  0  0  0  0  0  0  0  0  0
   10.8713   44.8510    2.4765 C   0  0  0  0  0  0  0  0  0  0  0  0
   11.2892   45.8963    1.6487 C   0  0  0  0  0  0  0  0  0  0  0  0
   12.5626   46.4487    1.8095 C   0  0  0  0  0  0  0  0  0  0  0  0
   13.4186   45.9557    2.7986 C   0  0  0  0  0  0  0  0  0  0  0  0
   15.9204   40.4739    9.7589 N   0  0  0  0  0  0  0  0  0  0  0  0
   16.5970   41.4562    9.1496 N   0  0  0  0  0  0  0  0  0  0  0  0
   13.4718   43.3125    5.5232 N   0  0  0  0  0  0  0  0  0  0  0  0
   13.7040   41.6775    7.3209 N   0  0  0  0  0  0  0  0  0  0  0  0
   14.6058   41.3025    8.2129 N   0  0  0  0  0  0  0  0  0  0  0  0
   15.8351   43.1201    7.0465 S   0  0  0  0  0  0  0  0  0  0  0  0
   15.0565   44.8879    4.8184 O   0  0  0  0  0  0  0  0  0  0  0  0
   10.1228   46.5683    0.3006 Br  0  0  0  0  0  0  0  0  0  0  0  0
  1  2  1  0
  2  3  1  0
  3  4  1  0
  5 19  1  0
  6 19  1  0
  6 16  1  0
  7  8  1  0
  9 10  2  0
 11 21  1  0
 11 12  2  0
 13  8  2  0
 14 15  1  0
 16  7  1  0
 18 17  1  0
 18  4  1  0
 18  5  1  0
  4 14  2  0
  5 15  2  0
  6 17  2  0
  7 20  2  0
  8  9  1  0
 10 11  1  0
 12 13  1  0
M  END
>  <rmsd>  (719) 
0.208475441

$$$$
MolPort-001-980-280 871420 MCULE-4930312388 PubChem-1131017 ZINC000000871420 ZINC00871420
     RDKit          3D

 27 29  0  0  0  0  0  0  0  0999 V2000
    9.6451   44.8361   -0.3470 C   0  0  0  0  0  0  0  0  0  0  0  0
   11.6227   45.1539    1.1043 C   0  0  0  0  0  0  0  0  0  0  0  0
   11.1802   44.1972    2.0317 C   0  0  0  0  0  0  0  0  0  0  0  0
   11.9423   43.9121    3.1677 C   0  0  0  0  0  0  0  0  0  0  0  0
   13.1549   44.5780    3.3929 C   0  0  0  0  0  0  0  0  0  0  0  0
   13.5948   45.5325    2.4647 C   0  0  0  0  0  0  0  0  0  0  0  0
   12.8327   45.8179    1.3283 C   0  0  0  0  0  0  0  0  0  0  0  0
   13.9592   44.2751    4.5893 C   0  0  0  0  0  0  0  0  0  0  0  0
   14.2799   42.7215    6.5783 C   0  0  0  0  0  0  0  0  0  0  0  0
   15.6061   42.2952    6.4909 C   0  0  0  0  0  0  0  0  0  0  0  0
   16.4006   42.3685    5.2893 C   0  0  0  0  0  0  0  0  0  0  0  0
   16.0613   41.6800    7.6725 C   0  0  0  0  0  0  0  0  0  0  0  0
   17.4400   41.1205    7.8156 C   0  0  0  0  0  0  0  0  0  0  0  0
   15.0836   41.5949    8.6714 C   0  0  0  0  0  0  0  0  0  0  0  0
   15.2582   41.0404   10.0342 C   0  0  0  0  0  0  0  0  0  0  0  0
   14.2966   40.3709   12.2550 C   0  0  0  0  0  0  0  0  0  0  0  0
   14.2034   38.8757   12.5480 C   0  0  0  0  0  0  0  0  0  0  0  0
   12.9045   38.3110   11.9744 C   0  0  0  0  0  0  0  0  0  0  0  0
   12.8278   38.5698   10.4704 C   0  0  0  0  0  0  0  0  0  0  0  0
   12.9292   40.0673   10.1944 C   0  0  0  0  0  0  0  0  0  0  0  0
   10.8837   45.4618   -0.0413 O   0  0  0  0  0  0  0  0  0  0  0  0
   15.0384   44.8949    4.7950 O   0  0  0  0  0  0  0  0  0  0  0  0
   16.4184   40.9769   10.5244 O   0  0  0  0  0  0  0  0  0  0  0  0
   13.4879   43.3153    5.5429 N   0  0  0  0  0  0  0  0  0  0  0  0
   17.0390   42.4250    4.3255 N   0  0  0  0  0  0  0  0  0  0  0  0
   14.1388   40.5957   10.8202 N   0  0  0  0  0  0  0  0  0  0  0  0
   13.6679   42.2965    8.0802 S   0  0  0  0  0  0  0  0  0  0  0  0
  1 21  1  0
  2 21  1  0
  3  4  2  0
  5  6  2  0
  5  8  1  0
  7  2  2  0
  8 24  1  0
  9 27  1  0
 10 11  1  0
 10 12  1  0
 13 12  1  0
 14 27  1  0
 14 15  1  0
 15 26  1  0
 16 26  1  0
 16 17  1  0
 17 18  1  0
 18 19  1  0
 19 20  1  0
 20 26  1  0
 24  9  1  0
  2  3  1  0
  4  5  1  0
  6  7  1  0
  8 22  2  0
  9 10  2  0
 12 14  2  0
 15 23  2  0
 11 25  3  0
M  END
>  <rmsd>  (720) 
0.208438829

$$$$
MolPort-001-980-475 871563 MCULE-1054843532 PubChem-1131153 ZINC000000871563
     RDKit          3D

 26 28  0  0  0  0  0  0  0  0999 V2000
   14.2802   42.7222    6.5782 C   0  0  0  0  0  0  0  0  0  0  0  0
   13.9597   44.2756    4.5892 C   0  0  0  0  0  0  0  0  0  0  0  0
   13.1552   44.5789    3.3930 C   0  0  0  0  0  0  0  0  0  0  0  0
   11.9415   43.9130    3.1680 C   0  0  0  0  0  0  0  0  0  0  0  0
   11.1785   44.1983    2.0319 C   0  0  0  0  0  0  0  0  0  0  0  0
   11.6240   45.1515    1.1122 C   0  0  0  0  0  0  0  0  0  0  0  0
   12.8325   45.8192    1.3281 C   0  0  0  0  0  0  0  0  0  0  0  0
   13.5954   45.5339    2.4642 C   0  0  0  0  0  0  0  0  0  0  0  0
   15.0837   41.5956    8.6713 C   0  0  0  0  0  0  0  0  0  0  0  0
   16.0614   41.6804    7.6723 C   0  0  0  0  0  0  0  0  0  0  0  0
   17.4401   41.1206    7.8154 C   0  0  0  0  0  0  0  0  0  0  0  0
   15.6063   42.2956    6.4908 C   0  0  0  0  0  0  0  0  0  0  0  0
   16.4008   42.3686    5.2890 C   0  0  0  0  0  0  0  0  0  0  0  0
   15.2585   41.0411   10.0342 C   0  0  0  0  0  0  0  0  0  0  0  0
   12.9293   40.0684   10.1945 C   0  0  0  0  0  0  0  0  0  0  0  0
   12.8277   38.5709   10.4706 C   0  0  0  0  0  0  0  0  0  0  0  0
   12.9044   38.3121   11.9746 C   0  0  0  0  0  0  0  0  0  0  0  0
   14.2034   38.8766   12.5481 C   0  0  0  0  0  0  0  0  0  0  0  0
   14.2968   40.3719   12.2550 C   0  0  0  0  0  0  0  0  0  0  0  0
   13.4882   43.3160    5.5428 N   0  0  0  0  0  0  0  0  0  0  0  0
   17.0391   42.4249    4.3253 N   0  0  0  0  0  0  0  0  0  0  0  0
   14.1391   40.5966   10.8203 N   0  0  0  0  0  0  0  0  0  0  0  0
   15.0390   44.8952    4.7946 O   0  0  0  0  0  0  0  0  0  0  0  0
   16.4186   40.9776   10.5244 O   0  0  0  0  0  0  0  0  0  0  0  0
   10.8848   45.4279    0.0115 F   0  0  0  0  0  0  0  0  0  0  0  0
   13.6682   42.2974    8.0802 S   0  0  0  0  0  0  0  0  0  0  0  0
  1 20  1  0
  1 26  1  0
  2  3  1  0
  4  5  2  0
  6  7  2  0
  6 25  1  0
  8  3  2  0
  9 26  1  0
  9 14  1  0
 10 12  1  0
 11 10  1  0
 12 13  1  0
 14 22  1  0
 15 22  1  0
 15 16  1  0
 16 17  1  0
 17 18  1  0
 18 19  1  0
 19 22  1  0
 20  2  1  0
  2 23  2  0
  3  4  1  0
  5  6  1  0
  7  8  1  0
  9 10  2  0
 12  1  2  0
 14 24  2  0
 13 21  3  0
M  END
>  <rmsd>  (721) 
0.208340183

$$$$
MolPort-010-852-299 41076401 ChemDiv-G952-2104 MCULE-1425239194 PubChem-52095933 ZINC000041076401 ZINC41076401
     RDKit          3D

 24 26  0  0  0  0  0  0  0  0999 V2000
   14.0724   39.0230   11.9622 C   0  0  0  0  0  0  0  0  0  0  0  0
   13.1220   39.6369   10.9517 C   0  0  0  0  0  0  0  0  0  0  0  0
   13.6254   39.4044    9.5364 C   0  0  0  0  0  0  0  0  0  0  0  0
   14.6920   40.3863    9.1771 C   0  0  0  0  0  0  0  0  0  0  0  0
   15.7505   41.9254    8.2174 C   0  0  0  0  0  0  0  0  0  0  0  0
   14.2216   42.6948    6.5763 C   0  0  0  0  0  0  0  0  0  0  0  0
   13.9088   44.3856    4.6778 C   0  0  0  0  0  0  0  0  0  0  0  0
   13.0074   44.9068    3.6349 C   0  0  0  0  0  0  0  0  0  0  0  0
   13.4198   45.9513    2.7972 C   0  0  0  0  0  0  0  0  0  0  0  0
   12.5637   46.4462    1.8102 C   0  0  0  0  0  0  0  0  0  0  0  0
   11.2702   45.9186    1.6504 C   0  0  0  0  0  0  0  0  0  0  0  0
   10.8745   44.8515    2.4762 C   0  0  0  0  0  0  0  0  0  0  0  0
   11.7308   44.3567    3.4631 C   0  0  0  0  0  0  0  0  0  0  0  0
   10.3676   46.4081    0.5334 C   0  0  0  0  0  0  0  0  0  0  0  0
   10.6386   45.5973   -0.7195 C   0  0  0  0  0  0  0  0  0  0  0  0
   10.6117   47.8770    0.2210 C   0  0  0  0  0  0  0  0  0  0  0  0
    8.8978   46.2595    0.8972 C   0  0  0  0  0  0  0  0  0  0  0  0
   15.9194   40.4720    9.7583 N   0  0  0  0  0  0  0  0  0  0  0  0
   16.5965   41.4540    9.1488 N   0  0  0  0  0  0  0  0  0  0  0  0
   13.4715   43.3126    5.5236 N   0  0  0  0  0  0  0  0  0  0  0  0
   13.7032   41.6774    7.3212 N   0  0  0  0  0  0  0  0  0  0  0  0
   14.6051   41.3017    8.2128 N   0  0  0  0  0  0  0  0  0  0  0  0
   15.8351   43.1184    7.0461 S   0  0  0  0  0  0  0  0  0  0  0  0
   15.0568   44.8874    4.8189 O   0  0  0  0  0  0  0  0  0  0  0  0
  1  2  1  0
  2  3  1  0
  3  4  1  0
  5 23  1  0
  6 23  1  0
  6 20  1  0
  7  8  1  0
  9 10  2  0
 11 12  2  0
 13  8  2  0
 14 11  1  0
 14 15  1  0
 14 16  1  0
 14 17  1  0
 18 19  1  0
 20  7  1  0
 22 21  1  0
 22  4  1  0
 22  5  1  0
  4 18  2  0
  5 19  2  0
  6 21  2  0
  7 24  2  0
  8  9  1  0
 10 11  1  0
 12 13  1  0
M  END
>  <rmsd>  (722) 
0.208214611

$$$$
MolPort-010-852-391 41076402 ChemDiv-G952-3434 MCULE-9208365050 PubChem-52095934 ZINC000041076402 ZINC41076402
     RDKit          3D

 24 26  0  0  0  0  0  0  0  0999 V2000
   14.0721   39.0232   11.9621 C   0  0  0  0  0  0  0  0  0  0  0  0
   13.1218   39.6361   10.9509 C   0  0  0  0  0  0  0  0  0  0  0  0
   13.6265   39.4040    9.5360 C   0  0  0  0  0  0  0  0  0  0  0  0
   14.6924   40.3868    9.1774 C   0  0  0  0  0  0  0  0  0  0  0  0
   15.7501   41.9271    8.2186 C   0  0  0  0  0  0  0  0  0  0  0  0
   14.2217   42.6951    6.5765 C   0  0  0  0  0  0  0  0  0  0  0  0
   13.9086   44.3856    4.6777 C   0  0  0  0  0  0  0  0  0  0  0  0
   13.0072   44.9058    3.6346 C   0  0  0  0  0  0  0  0  0  0  0  0
   13.4176   45.9543    2.7994 C   0  0  0  0  0  0  0  0  0  0  0  0
   12.5672   46.4524    1.8080 C   0  0  0  0  0  0  0  0  0  0  0  0
   12.2174   48.0649   -0.0348 C   0  0  0  0  0  0  0  0  0  0  0  0
   11.2894   45.8931    1.6510 C   0  0  0  0  0  0  0  0  0  0  0  0
   10.8646   44.8475    2.4751 C   0  0  0  0  0  0  0  0  0  0  0  0
    9.0738   43.2529    3.0816 C   0  0  0  0  0  0  0  0  0  0  0  0
   11.7289   44.3573    3.4663 C   0  0  0  0  0  0  0  0  0  0  0  0
   15.9194   40.4738    9.7596 N   0  0  0  0  0  0  0  0  0  0  0  0
   16.5960   41.4565    9.1506 N   0  0  0  0  0  0  0  0  0  0  0  0
   13.4717   43.3122    5.5233 N   0  0  0  0  0  0  0  0  0  0  0  0
   13.7038   41.6771    7.3209 N   0  0  0  0  0  0  0  0  0  0  0  0
   14.6053   41.3022    8.2131 N   0  0  0  0  0  0  0  0  0  0  0  0
   15.8344   43.1203    7.0474 S   0  0  0  0  0  0  0  0  0  0  0  0
   15.0562   44.8880    4.8189 O   0  0  0  0  0  0  0  0  0  0  0  0
   13.0145   47.4984    0.9962 O   0  0  0  0  0  0  0  0  0  0  0  0
    9.5855   44.3158    2.2894 O   0  0  0  0  0  0  0  0  0  0  0  0
  1  2  1  0
  2  3  1  0
  3  4  1  0
  5 21  1  0
  6 21  1  0
  6 18  1  0
  7  8  1  0
  9 10  2  0
 10 23  1  0
 11 23  1  0
 12 13  2  0
 13 24  1  0
 14 24  1  0
 15  8  2  0
 16 17  1  0
 18  7  1  0
 20 19  1  0
 20  4  1  0
 20  5  1  0
  4 16  2  0
  5 17  2  0
  6 19  2  0
  7 22  2  0
  8  9  1  0
 10 12  1  0
 13 15  1  0
M  END
>  <rmsd>  (723) 
0.208206341

$$$$
Molport-016-721-723 19664757 MCULE-1483969681 PubChem-46978769 ZINC000019664757
     RDKit          3D

 30 33  0  0  0  0  0  0  0  0999 V2000
    8.0882   46.6158   -0.2115 C   0  0  0  0  0  0  0  0  0  0  0  0
   10.3838   46.4157    0.6947 C   0  0  0  0  0  0  0  0  0  0  0  0
   10.9275   47.1779   -0.3536 C   0  0  0  0  0  0  0  0  0  0  0  0
   12.3003   47.4388   -0.4052 C   0  0  0  0  0  0  0  0  0  0  0  0
   13.1458   46.9428    0.5897 C   0  0  0  0  0  0  0  0  0  0  0  0
   12.6176   46.1836    1.6360 C   0  0  0  0  0  0  0  0  0  0  0  0
   13.4488   45.6782    2.6313 C   0  0  0  0  0  0  0  0  0  0  0  0
   12.9271   44.9072    3.6796 C   0  0  0  0  0  0  0  0  0  0  0  0
   13.8716   44.3876    4.7008 C   0  0  0  0  0  0  0  0  0  0  0  0
   14.3192   42.7552    6.5989 C   0  0  0  0  0  0  0  0  0  0  0  0
   15.3238   41.5405    8.3950 C   0  0  0  0  0  0  0  0  0  0  0  0
   15.6947   40.6727    9.5485 C   0  0  0  0  0  0  0  0  0  0  0  0
   15.4219   41.3815   10.8694 C   0  0  0  0  0  0  0  0  0  0  0  0
   12.1074   42.5779   11.2761 C   0  0  0  0  0  0  0  0  0  0  0  0
   11.1114   43.6790   11.3419 C   0  0  0  0  0  0  0  0  0  0  0  0
   11.8127   41.2299   11.4180 C   0  0  0  0  0  0  0  0  0  0  0  0
   13.0549   40.6407   11.2771 C   0  0  0  0  0  0  0  0  0  0  0  0
   13.3198   39.1763   11.3533 C   0  0  0  0  0  0  0  0  0  0  0  0
   11.5293   44.6690    3.7027 C   0  0  0  0  0  0  0  0  0  0  0  0
   10.8643   43.9039    4.7961 C   0  0  0  0  0  0  0  0  0  0  0  0
   11.2358   45.9158    1.6921 C   0  0  0  0  0  0  0  0  0  0  0  0
    9.0117   46.1470    0.7613 O   0  0  0  0  0  0  0  0  0  0  0  0
   15.0289   44.8831    4.7795 O   0  0  0  0  0  0  0  0  0  0  0  0
   13.4962   43.3117    5.5698 N   0  0  0  0  0  0  0  0  0  0  0  0
   15.5505   43.2100    6.9201 N   0  0  0  0  0  0  0  0  0  0  0  0
   16.1076   42.5352    7.9241 N   0  0  0  0  0  0  0  0  0  0  0  0
   13.9915   41.5853   11.0671 N   0  0  0  0  0  0  0  0  0  0  0  0
   13.4225   42.7759   11.0689 N   0  0  0  0  0  0  0  0  0  0  0  0
   10.7382   45.1755    2.7178 N   0  0  0  0  0  0  0  0  0  0  0  0
   13.8542   41.4661    7.5732 S   0  0  0  0  0  0  0  0  0  0  0  0
  1 22  1  0
  2 22  1  0
  3  4  2  0
  5  6  2  0
  7  8  2  0
  8  9  1  0
  9 24  1  0
 10 30  1  0
 11 30  1  0
 12 11  1  0
 12 13  1  0
 13 27  1  0
 14 16  1  0
 15 14  1  0
 17 27  1  0
 18 17  1  0
 19 29  2  0
 20 19  1  0
 21  2  2  0
 21  6  1  0
 24 10  1  0
 25 26  1  0
 27 28  1  0
  2  3  1  0
  4  5  1  0
  6  7  1  0
  8 19  1  0
  9 23  2  0
 10 25  2  0
 11 26  2  0
 14 28  2  0
 16 17  2  0
 21 29  1  0
M  END
>  <rmsd>  (724) 
0.208107114

$$$$
MolPort-010-852-322 ChemDiv-G952-2909 MCULE-1941934245 PubChem-53095797 ZINC000064980480 ZINC64980480
     RDKit          3D

 21 23  0  0  0  0  0  0  0  0999 V2000
   14.0717   39.0239   11.9622 C   0  0  0  0  0  0  0  0  0  0  0  0
   13.1213   39.6375   10.9515 C   0  0  0  0  0  0  0  0  0  0  0  0
   13.6250   39.4052    9.5363 C   0  0  0  0  0  0  0  0  0  0  0  0
   14.6914   40.3872    9.1773 C   0  0  0  0  0  0  0  0  0  0  0  0
   15.7497   41.9267    8.2178 C   0  0  0  0  0  0  0  0  0  0  0  0
   14.2211   42.6957    6.5764 C   0  0  0  0  0  0  0  0  0  0  0  0
   13.9082   44.3862    4.6776 C   0  0  0  0  0  0  0  0  0  0  0  0
   13.0066   44.9071    3.6349 C   0  0  0  0  0  0  0  0  0  0  0  0
   11.7266   44.3592    3.4669 C   0  0  0  0  0  0  0  0  0  0  0  0
   10.8705   44.8525    2.4780 C   0  0  0  0  0  0  0  0  0  0  0  0
   11.2879   45.8975    1.6496 C   0  0  0  0  0  0  0  0  0  0  0  0
   12.5615   46.4494    1.8098 C   0  0  0  0  0  0  0  0  0  0  0  0
   13.4178   45.9562    2.7987 C   0  0  0  0  0  0  0  0  0  0  0  0
   15.9188   40.4733    9.7587 N   0  0  0  0  0  0  0  0  0  0  0  0
   16.5958   41.4554    9.1493 N   0  0  0  0  0  0  0  0  0  0  0  0
   13.4710   43.3133    5.5235 N   0  0  0  0  0  0  0  0  0  0  0  0
   13.7028   41.6781    7.3211 N   0  0  0  0  0  0  0  0  0  0  0  0
   14.6045   41.3026    8.2129 N   0  0  0  0  0  0  0  0  0  0  0  0
   15.8344   43.1197    7.0464 S   0  0  0  0  0  0  0  0  0  0  0  0
   15.0563   44.8877    4.8181 O   0  0  0  0  0  0  0  0  0  0  0  0
    9.2755   44.1607    2.2780 Cl  0  0  0  0  0  0  0  0  0  0  0  0
  1  2  1  0
  2  3  1  0
  3  4  1  0
  5 19  1  0
  6 19  1  0
  6 16  1  0
  7  8  1  0
  9 10  2  0
 10 21  1  0
 11 12  2  0
 13  8  2  0
 14 15  1  0
 16  7  1  0
 18 17  1  0
 18  4  1  0
 18  5  1  0
  4 14  2  0
  5 15  2  0
  6 17  2  0
  7 20  2  0
  8  9  1  0
 10 11  1  0
 12 13  1  0
M  END
>  <rmsd>  (725) 
0.208097041

$$$$
MolPort-005-052-165 12597774 CSSS00159765715 MCULE-6149057518 PubChem-25386761 ZINC000012597774
     RDKit          3D

 31 35  0  0  0  0  0  0  0  0999 V2000
   15.0622   44.8778    4.8158 O   0  0  0  0  0  0  0  0  0  0  0  0
   10.7579   46.3309    0.4609 O   0  0  0  0  0  0  0  0  0  0  0  0
   12.8155   47.2623    0.7463 O   0  0  0  0  0  0  0  0  0  0  0  0
   13.9220   44.3626    4.6560 C   0  0  0  0  0  0  0  0  0  0  0  0
   14.2114   42.7571    6.6174 C   0  0  0  0  0  0  0  0  0  0  0  0
   15.4787   43.1271    7.0272 C   0  0  0  0  0  0  0  0  0  0  0  0
   15.7197   42.2963    8.1159 C   0  0  0  0  0  0  0  0  0  0  0  0
   12.4318   41.1488    7.3043 C   0  0  0  0  0  0  0  0  0  0  0  0
   11.4891   41.6615    8.4020 C   0  0  0  0  0  0  0  0  0  0  0  0
   11.6920   40.9741    9.7654 C   0  0  0  0  0  0  0  0  0  0  0  0
   12.4583   39.0835   10.9343 C   0  0  0  0  0  0  0  0  0  0  0  0
   13.5202   39.4888   11.9479 C   0  0  0  0  0  0  0  0  0  0  0  0
   14.9177   39.0948   11.4829 C   0  0  0  0  0  0  0  0  0  0  0  0
   14.5746   36.6901   10.9165 C   0  0  0  0  0  0  0  0  0  0  0  0
   15.0842   35.4831   11.3606 C   0  0  0  0  0  0  0  0  0  0  0  0
   15.9737   35.8189   12.3709 C   0  0  0  0  0  0  0  0  0  0  0  0
   12.2116   38.9662    8.6108 C   0  0  0  0  0  0  0  0  0  0  0  0
   12.5487   39.6168    7.2679 C   0  0  0  0  0  0  0  0  0  0  0  0
   13.0481   44.8402    3.5702 C   0  0  0  0  0  0  0  0  0  0  0  0
   13.4826   45.8709    2.7092 C   0  0  0  0  0  0  0  0  0  0  0  0
   12.6171   46.2842    1.7000 C   0  0  0  0  0  0  0  0  0  0  0  0
   11.3909   45.7291    1.5301 C   0  0  0  0  0  0  0  0  0  0  0  0
   11.6409   47.3266   -0.0749 C   0  0  0  0  0  0  0  0  0  0  0  0
   10.9195   44.7111    2.3534 C   0  0  0  0  0  0  0  0  0  0  0  0
   11.7661   44.2668    3.3849 C   0  0  0  0  0  0  0  0  0  0  0  0
   13.4700   43.3146    5.5243 N   0  0  0  0  0  0  0  0  0  0  0  0
   14.6536   41.4945    8.3222 N   0  0  0  0  0  0  0  0  0  0  0  0
   13.7462   41.7780    7.4049 N   0  0  0  0  0  0  0  0  0  0  0  0
   12.6192   39.8404    9.7036 N   0  0  0  0  0  0  0  0  0  0  0  0
   15.1406   37.6655   11.6461 N   0  0  0  0  0  0  0  0  0  0  0  0
   15.9897   37.1564   12.5175 N   0  0  0  0  0  0  0  0  0  0  0  0
  4 26  1  0
  4 19  1  0
  6  7  1  0
  8 28  1  0
  8  9  1  0
  9 10  1  0
 10 29  1  0
 11 29  1  0
 11 12  1  0
 12 13  1  0
 13 30  1  0
 15 16  1  0
 17 29  1  0
 17 18  1  0
 18  8  1  0
 20 21  2  0
 21  3  1  0
 22  2  1  0
 22 24  2  0
 23  2  1  0
 23  3  1  0
 25 19  2  0
 26  5  1  0
 28 27  1  0
 28  5  1  0
 30 14  1  0
 30 31  1  0
  4  1  2  0
  5  6  2  0
  7 27  2  0
 14 15  2  0
 16 31  2  0
 19 20  1  0
 21 22  1  0
 24 25  1  0
M  END
>  <rmsd>  (726) 
0.208044842

$$$$
MolPort-001-980-658 872057 MCULE-5666138328 PubChem-1131592 ZINC000000872057 ZINC00872057
     RDKit          3D

 29 31  0  0  0  0  0  0  0  0999 V2000
    9.6156   44.7847   -0.3097 C   0  0  0  0  0  0  0  0  0  0  0  0
   11.6238   45.1558    1.0968 C   0  0  0  0  0  0  0  0  0  0  0  0
   12.8501   45.8311    1.3194 C   0  0  0  0  0  0  0  0  0  0  0  0
   12.7605   47.2313   -0.7532 C   0  0  0  0  0  0  0  0  0  0  0  0
   13.5967   45.5304    2.4644 C   0  0  0  0  0  0  0  0  0  0  0  0
   13.1565   44.5783    3.3918 C   0  0  0  0  0  0  0  0  0  0  0  0
   11.9469   43.9151    3.1664 C   0  0  0  0  0  0  0  0  0  0  0  0
   11.1888   44.2011    2.0313 C   0  0  0  0  0  0  0  0  0  0  0  0
   13.9601   44.2756    4.5888 C   0  0  0  0  0  0  0  0  0  0  0  0
   14.2797   42.7222    6.5779 C   0  0  0  0  0  0  0  0  0  0  0  0
   15.6057   42.2953    6.4906 C   0  0  0  0  0  0  0  0  0  0  0  0
   16.4003   42.3681    5.2890 C   0  0  0  0  0  0  0  0  0  0  0  0
   16.0605   41.6799    7.6722 C   0  0  0  0  0  0  0  0  0  0  0  0
   17.4389   41.1198    7.8154 C   0  0  0  0  0  0  0  0  0  0  0  0
   15.0826   41.5952    8.6710 C   0  0  0  0  0  0  0  0  0  0  0  0
   15.2570   41.0406   10.0339 C   0  0  0  0  0  0  0  0  0  0  0  0
   12.9276   40.0685   10.1938 C   0  0  0  0  0  0  0  0  0  0  0  0
   12.8254   38.5710   10.4697 C   0  0  0  0  0  0  0  0  0  0  0  0
   12.9019   38.3121   11.9737 C   0  0  0  0  0  0  0  0  0  0  0  0
   14.2010   38.8762   12.5475 C   0  0  0  0  0  0  0  0  0  0  0  0
   14.2949   40.3714   12.2545 C   0  0  0  0  0  0  0  0  0  0  0  0
   10.8517   45.4320   -0.0376 O   0  0  0  0  0  0  0  0  0  0  0  0
   13.3762   46.8000    0.4517 O   0  0  0  0  0  0  0  0  0  0  0  0
   15.0392   44.8953    4.7948 O   0  0  0  0  0  0  0  0  0  0  0  0
   16.4172   40.9766   10.5242 O   0  0  0  0  0  0  0  0  0  0  0  0
   13.4880   43.3162    5.5424 N   0  0  0  0  0  0  0  0  0  0  0  0
   17.0387   42.4244    4.3253 N   0  0  0  0  0  0  0  0  0  0  0  0
   14.1374   40.5964   10.8198 N   0  0  0  0  0  0  0  0  0  0  0  0
   13.6673   42.2975    8.0797 S   0  0  0  0  0  0  0  0  0  0  0  0
  1 22  1  0
  2 22  1  0
  3 23  1  0
  3  5  2  0
  4 23  1  0
  6  7  2  0
  6  9  1  0
  8  2  2  0
  9 26  1  0
 10 29  1  0
 11 12  1  0
 11 13  1  0
 14 13  1  0
 15 29  1  0
 15 16  1  0
 16 28  1  0
 17 28  1  0
 17 18  1  0
 18 19  1  0
 19 20  1  0
 20 21  1  0
 21 28  1  0
 26 10  1  0
  2  3  1  0
  5  6  1  0
  7  8  1  0
  9 24  2  0
 10 11  2  0
 13 15  2  0
 16 25  2  0
 12 27  3  0
M  END
>  <rmsd>  (727) 
0.207998797

$$$$
MolPort-007-714-559 CHEMBL1734373 ChemDiv-E002-1899 MCULE-5246444866 PubChem-16016863 ZINC000006780261
     RDKit          3D

 25 27  0  0  0  0  0  0  0  0999 V2000
   15.1358   41.5923    8.5110 C   0  0  0  0  0  0  0  0  0  0  0  0
   16.8958   40.5778    9.9511 C   0  0  0  0  0  0  0  0  0  0  0  0
   17.2763   41.5772   11.0277 C   0  0  0  0  0  0  0  0  0  0  0  0
   14.4957   40.0276   10.3923 C   0  0  0  0  0  0  0  0  0  0  0  0
   14.8053   38.7903   10.9808 C   0  0  0  0  0  0  0  0  0  0  0  0
   13.8628   38.1210   11.7666 C   0  0  0  0  0  0  0  0  0  0  0  0
   12.6030   38.6856   11.9792 C   0  0  0  0  0  0  0  0  0  0  0  0
   12.2868   39.9210   11.4091 C   0  0  0  0  0  0  0  0  0  0  0  0
   13.2296   40.5899   10.6236 C   0  0  0  0  0  0  0  0  0  0  0  0
   14.2352   42.7671    6.6251 C   0  0  0  0  0  0  0  0  0  0  0  0
   13.9199   44.3358    4.6544 C   0  0  0  0  0  0  0  0  0  0  0  0
   13.4178   45.6013    2.4991 C   0  0  0  0  0  0  0  0  0  0  0  0
   12.4911   46.5298    2.0117 C   0  0  0  0  0  0  0  0  0  0  0  0
   12.8023   47.3330    0.9113 C   0  0  0  0  0  0  0  0  0  0  0  0
   14.0405   47.2018    0.2793 C   0  0  0  0  0  0  0  0  0  0  0  0
   14.9624   46.2590    0.7400 C   0  0  0  0  0  0  0  0  0  0  0  0
   14.6568   45.4536    1.8417 C   0  0  0  0  0  0  0  0  0  0  0  0
   15.4844   40.7249    9.6071 N   0  0  0  0  0  0  0  0  0  0  0  0
   15.9969   42.4901    7.9771 N   0  0  0  0  0  0  0  0  0  0  0  0
   15.4946   43.1475    6.9334 N   0  0  0  0  0  0  0  0  0  0  0  0
   13.4706   43.3090    5.5440 N   0  0  0  0  0  0  0  0  0  0  0  0
   13.0428   44.7869    3.6176 N   0  0  0  0  0  0  0  0  0  0  0  0
   15.0511   44.8704    4.8108 O   0  0  0  0  0  0  0  0  0  0  0  0
   15.5436   44.4993    2.2166 F   0  0  0  0  0  0  0  0  0  0  0  0
   13.6765   41.5624    7.6561 S   0  0  0  0  0  0  0  0  0  0  0  0
  1 18  1  0
  1 25  1  0
  2 18  1  0
  2  3  1  0
  5  6  2  0
  7  8  2  0
  9  4  2  0
 10 21  1  0
 10 25  1  0
 11 22  1  0
 13 14  2  0
 15 16  2  0
 17 24  1  0
 17 12  2  0
 18  4  1  0
 19 20  1  0
 21 11  1  0
 22 12  1  0
  1 19  2  0
  4  5  1  0
  6  7  1  0
  8  9  1  0
 10 20  2  0
 11 23  2  0
 12 13  1  0
 14 15  1  0
 16 17  1  0
M  END
>  <rmsd>  (728) 
0.207984403

$$$$
MolPort-002-762-422 CSSS00132998953 MCULE-2422751069 PubChem-19585499
     RDKit          3D

 28 31  0  0  0  0  0  0  0  0999 V2000
   17.0072   39.9541    9.3740 C   0  0  0  0  0  0  0  0  0  0  0  0
   15.5603   40.4084    9.4324 C   0  0  2  0  0  0  0  0  0  0  0  0
   15.2587   42.3570   12.4058 C   0  0  0  0  0  0  0  0  0  0  0  0
   15.6166   43.5215   13.2624 C   0  0  0  0  0  0  0  0  0  0  0  0
   14.3077   41.3959   12.6923 C   0  0  0  0  0  0  0  0  0  0  0  0
   14.3263   40.5540   11.6011 C   0  0  0  0  0  0  0  0  0  0  0  0
   13.4807   39.3403   11.4060 C   0  0  0  0  0  0  0  0  0  0  0  0
   15.2235   41.3463    8.3175 C   0  0  0  0  0  0  0  0  0  0  0  0
   14.2448   42.6672    6.5814 C   0  0  0  0  0  0  0  0  0  0  0  0
   13.8626   44.3624    4.7374 C   0  0  0  0  0  0  0  0  0  0  0  0
   16.2359   46.7122    3.5762 C   0  0  0  0  0  0  0  0  0  0  0  0
   17.2327   45.9359    2.7821 C   0  0  0  0  0  0  0  0  0  0  0  0
   18.2643   45.2495    3.4336 C   0  0  0  0  0  0  0  0  0  0  0  0
   19.1721   44.4822    2.6946 C   0  0  0  0  0  0  0  0  0  0  0  0
   19.0477   44.4000    1.3043 C   0  0  0  0  0  0  0  0  0  0  0  0
   18.0124   45.0786    0.6532 C   0  0  0  0  0  0  0  0  0  0  0  0
   17.1034   45.8438    1.3919 C   0  0  0  0  0  0  0  0  0  0  0  0
   13.8969   45.9330    3.2410 C   0  0  0  0  0  0  0  0  0  0  0  0
   13.0703   44.9571    3.7736 C   0  0  0  0  0  0  0  0  0  0  0  0
   15.2468   41.0062   10.7277 N   0  0  0  0  0  0  0  0  0  0  0  0
   15.8164   42.1073   11.2057 N   0  0  0  0  0  0  0  0  0  0  0  0
   16.0222   42.3545    7.9010 N   0  0  0  0  0  0  0  0  0  0  0  0
   15.4805   43.0868    6.9301 N   0  0  0  0  0  0  0  0  0  0  0  0
   13.4424   43.2704    5.5602 N   0  0  0  0  0  0  0  0  0  0  0  0
   15.0806   44.9267    4.7902 N   0  0  0  0  0  0  0  0  0  0  0  0
   15.0818   45.8810    3.8795 N   0  0  0  0  0  0  0  0  0  0  0  0
   13.2944   41.2746   14.1229 Cl  0  0  0  0  0  0  0  0  0  0  0  0
   13.7580   41.3358    7.4855 S   0  0  0  0  0  0  0  0  0  0  0  0
  2  1  1  1
  2 20  1  0
  2  8  1  0
  3  5  1  0
  4  3  1  0
  5 27  1  0
  6 20  1  0
  7  6  1  0
  8 28  1  0
  9 24  1  0
  9 28  1  0
 11 26  1  0
 11 12  1  0
 13 14  2  0
 15 16  2  0
 17 12  2  0
 19 10  1  0
 20 21  1  0
 22 23  1  0
 24 10  1  0
 26 25  1  0
 26 18  1  0
  3 21  2  0
  5  6  2  0
  8 22  2  0
  9 23  2  0
 10 25  2  0
 12 13  1  0
 14 15  1  0
 16 17  1  0
 18 19  2  0
M  END
>  <rmsd>  (729) 
0.207933977

$$$$
MolPort-028-600-042 90408699 CHEMBL3183131 CSSS00025701770 MCULE-2835404757 PubChem-59437537 ZINC000090408699
     RDKit          3D

 26 28  0  0  0  0  0  0  0  0999 V2000
   13.6167   39.9166   12.1691 C   0  0  0  0  0  0  0  0  0  0  0  0
   13.7929   39.1164   10.8922 C   0  0  0  0  0  0  0  0  0  0  0  0
   12.6296   38.1588   10.7455 C   0  0  0  0  0  0  0  0  0  0  0  0
   14.9261   40.8818    9.4469 C   0  0  0  0  0  0  0  0  0  0  0  0
   16.0950   40.8925   10.2289 C   0  0  0  0  0  0  0  0  0  0  0  0
   17.1592   41.7587    9.8926 C   0  0  0  0  0  0  0  0  0  0  0  0
   18.3859   41.8123   10.7558 C   0  0  0  0  0  0  0  0  0  0  0  0
   17.0316   42.6291    8.7920 C   0  0  0  0  0  0  0  0  0  0  0  0
   15.8522   42.5695    8.0561 C   0  0  0  0  0  0  0  0  0  0  0  0
   14.3031   42.8388    6.6851 C   0  0  0  0  0  0  0  0  0  0  0  0
   13.9042   44.3203    4.6575 C   0  0  0  0  0  0  0  0  0  0  0  0
   12.9894   44.7135    3.5717 C   0  0  0  0  0  0  0  0  0  0  0  0
   11.7343   44.1070    3.4409 C   0  0  0  0  0  0  0  0  0  0  0  0
   10.8755   44.4872    2.4085 C   0  0  0  0  0  0  0  0  0  0  0  0
   11.2841   45.4763    1.5122 C   0  0  0  0  0  0  0  0  0  0  0  0
   13.3567   45.7017    2.6485 C   0  0  0  0  0  0  0  0  0  0  0  0
   13.8280   40.0105    9.7428 N   0  0  0  0  0  0  0  0  0  0  0  0
   15.5465   43.3074    6.9743 N   0  0  0  0  0  0  0  0  0  0  0  0
   13.5080   43.3068    5.5911 N   0  0  0  0  0  0  0  0  0  0  0  0
   12.5056   46.0583    1.6492 N   0  0  0  0  0  0  0  0  0  0  0  0
   13.8729   41.8775    7.5346 N   0  0  0  0  0  0  0  0  0  0  0  0
   14.8671   41.7271    8.3870 N   0  0  0  0  0  0  0  0  0  0  0  0
   19.4910   42.1698   10.0029 F   0  0  0  0  0  0  0  0  0  0  0  0
   18.6258   40.5763   11.3312 F   0  0  0  0  0  0  0  0  0  0  0  0
   18.1994   42.7475   11.7565 F   0  0  0  0  0  0  0  0  0  0  0  0
   15.0313   44.8774    4.7601 O   0  0  0  0  0  0  0  0  0  0  0  0
  1  2  1  0
  2  3  1  0
  2 17  1  0
  5  6  1  0
  7  6  1  0
  7 23  1  0
  7 24  1  0
  7 25  1  0
  8  9  1  0
 10 18  1  0
 10 19  1  0
 11 12  1  0
 13 14  2  0
 15 20  2  0
 16 12  2  0
 17  4  1  0
 19 11  1  0
 22 21  1  0
 22  4  1  0
 22  9  1  0
  4  5  2  0
  6  8  2  0
  9 18  2  0
 10 21  2  0
 11 26  2  0
 12 13  1  0
 14 15  1  0
 16 20  1  0
M  END
>  <rmsd>  (730) 
0.207670122

$$$$
MolPort-002-715-877 2192313 CSSS00160400662 ChemDiv-8013-0437 MCULE-8505220362 PubChem-1826749 ZINC000002192313
     RDKit          3D

 28 29  0  0  0  0  0  0  0  0999 V2000
   14.2801   42.7194    6.5798 C   0  0  0  0  0  0  0  0  0  0  0  0
   13.9673   44.2681    4.5888 C   0  0  0  0  0  0  0  0  0  0  0  0
   13.1645   44.5723    3.3579 C   0  0  0  0  0  0  0  0  0  0  0  0
   13.0524   43.3502    2.4311 C   0  0  0  0  0  0  0  0  0  0  0  0
   11.8159   45.2289    3.6979 C   0  0  0  0  0  0  0  0  0  0  0  0
   15.0815   41.5893    8.6713 C   0  0  0  0  0  0  0  0  0  0  0  0
   16.0585   41.6712    7.6714 C   0  0  0  0  0  0  0  0  0  0  0  0
   17.4354   41.1065    7.8128 C   0  0  0  0  0  0  0  0  0  0  0  0
   15.6044   42.2884    6.4907 C   0  0  0  0  0  0  0  0  0  0  0  0
   16.3974   42.3594    5.2878 C   0  0  0  0  0  0  0  0  0  0  0  0
   15.2556   41.0335   10.0337 C   0  0  0  0  0  0  0  0  0  0  0  0
   12.9233   40.0686   10.1956 C   0  0  0  0  0  0  0  0  0  0  0  0
   12.8167   38.5713   10.4707 C   0  0  0  0  0  0  0  0  0  0  0  0
   12.8941   38.3111   11.9743 C   0  0  0  0  0  0  0  0  0  0  0  0
   14.1954   38.8708   12.5470 C   0  0  0  0  0  0  0  0  0  0  0  0
   14.2937   40.3659   12.2549 C   0  0  0  0  0  0  0  0  0  0  0  0
   13.4897   43.3149    5.5447 N   0  0  0  0  0  0  0  0  0  0  0  0
   17.0342   42.4141    4.3230 N   0  0  0  0  0  0  0  0  0  0  0  0
   14.1354   40.5923   10.8205 N   0  0  0  0  0  0  0  0  0  0  0  0
   15.0391   44.8976    4.7924 O   0  0  0  0  0  0  0  0  0  0  0  0
   16.4161   40.9657   10.5228 O   0  0  0  0  0  0  0  0  0  0  0  0
   14.3156   42.8560    2.1575 F   0  0  0  0  0  0  0  0  0  0  0  0
   12.2987   42.3516    3.0227 F   0  0  0  0  0  0  0  0  0  0  0  0
   12.4608   43.7141    1.2355 F   0  0  0  0  0  0  0  0  0  0  0  0
   10.9890   44.3392    4.3615 F   0  0  0  0  0  0  0  0  0  0  0  0
   11.1884   45.6504    2.5401 F   0  0  0  0  0  0  0  0  0  0  0  0
   12.0256   46.3333    4.5045 F   0  0  0  0  0  0  0  0  0  0  0  0
   13.6676   42.2962    8.0819 S   0  0  0  0  0  0  0  0  0  0  0  0
  1 17  1  0
  1 28  1  0
  3  2  1  0
  3  4  1  0
  3  5  1  0
  4 22  1  0
  4 23  1  0
  4 24  1  0
  5 25  1  0
  5 26  1  0
  5 27  1  0
  6 28  1  0
  6 11  1  0
  7  9  1  0
  8  7  1  0
  9 10  1  0
 11 19  1  0
 12 19  1  0
 12 13  1  0
 13 14  1  0
 14 15  1  0
 15 16  1  0
 16 19  1  0
 17  2  1  0
  2 20  2  0
  6  7  2  0
  9  1  2  0
 11 21  2  0
 10 18  3  0
M  END
>  <rmsd>  (731) 
0.207617864

$$$$
MolPort-005-116-032 14954796 CSSS00160028336 PubChem-26318516 ZINC000014954796
     RDKit          3D

 32 35  0  0  0  0  0  0  0  0999 V2000
   15.0625   44.8824    4.8219 O   0  0  0  0  0  0  0  0  0  0  0  0
   11.1549   46.3828    3.2286 O   0  0  0  0  0  0  0  0  0  0  0  0
   13.9217   44.3698    4.6715 C   0  0  0  0  0  0  0  0  0  0  0  0
   13.0166   44.8936    3.6147 C   0  0  0  0  0  0  0  0  0  0  0  0
   12.1069   45.9605    4.1992 C   0  0  0  0  0  0  0  0  0  0  0  0
   10.0555   45.6070    2.8434 C   0  0  0  0  0  0  0  0  0  0  0  0
    9.7767   44.3701    3.4492 C   0  0  0  0  0  0  0  0  0  0  0  0
    8.6686   43.6207    3.0438 C   0  0  0  0  0  0  0  0  0  0  0  0
    7.8320   44.1020    2.0330 C   0  0  0  0  0  0  0  0  0  0  0  0
    8.1031   45.3326    1.4283 C   0  0  0  0  0  0  0  0  0  0  0  0
    9.2117   46.0824    1.8337 C   0  0  0  0  0  0  0  0  0  0  0  0
   14.2171   42.7224    6.5922 C   0  0  0  0  0  0  0  0  0  0  0  0
   15.4958   43.0665    6.9888 C   0  0  0  0  0  0  0  0  0  0  0  0
   15.7407   42.2132    8.0593 C   0  0  0  0  0  0  0  0  0  0  0  0
   12.4213   41.1328    7.2817 C   0  0  0  0  0  0  0  0  0  0  0  0
   12.5067   39.5983    7.2459 C   0  0  0  0  0  0  0  0  0  0  0  0
   12.1990   38.9555    8.6004 C   0  0  0  0  0  0  0  0  0  0  0  0
   12.4961   39.0916   10.9206 C   0  0  0  0  0  0  0  0  0  0  0  0
   13.5664   39.4955   11.8787 C   0  0  0  0  0  0  0  0  0  0  0  0
   14.8474   39.2745   11.5976 C   0  0  0  0  0  0  0  0  0  0  0  0
   15.9384   39.6597   12.5028 C   0  0  0  0  0  0  0  0  0  0  0  0
   17.2573   39.3924   12.1196 C   0  0  0  0  0  0  0  0  0  0  0  0
   18.3206   39.7481   12.9551 C   0  0  0  0  0  0  0  0  0  0  0  0
   18.0689   40.3740   14.1794 C   0  0  0  0  0  0  0  0  0  0  0  0
   16.7542   40.6446   14.5688 C   0  0  0  0  0  0  0  0  0  0  0  0
   15.6908   40.2892   13.7335 C   0  0  0  0  0  0  0  0  0  0  0  0
   11.6964   40.9682    9.7480 C   0  0  0  0  0  0  0  0  0  0  0  0
   11.5001   41.6650    8.3887 C   0  0  0  0  0  0  0  0  0  0  0  0
   13.4673   43.3114    5.5219 N   0  0  0  0  0  0  0  0  0  0  0  0
   14.6656   41.4242    8.2681 N   0  0  0  0  0  0  0  0  0  0  0  0
   13.7490   41.7363    7.3694 N   0  0  0  0  0  0  0  0  0  0  0  0
   12.6262   39.8377    9.6792 N   0  0  0  0  0  0  0  0  0  0  0  0
  3 29  1  0
  4  3  1  0
  4  5  1  0
  5  2  1  0
  6  2  1  0
  7  8  2  0
  9 10  2  0
 11  6  2  0
 13 14  1  0
 15 31  1  0
 15 16  1  0
 16 17  1  0
 17 32  1  0
 18 32  1  0
 18 19  1  0
 20 21  1  0
 22 23  2  0
 24 25  2  0
 26 21  2  0
 27 32  1  0
 27 28  1  0
 28 15  1  0
 29 12  1  0
 31 30  1  0
 31 12  1  0
  3  1  2  0
  6  7  1  0
  8  9  1  0
 10 11  1  0
 12 13  2  0
 14 30  2  0
 19 20  2  0
 21 22  1  0
 23 24  1  0
 25 26  1  0
M  END
>  <rmsd>  (732) 
0.207617372

$$$$
MolPort-007-686-750 ChemDiv-D039-3217 MCULE-4519348974 PubChem-23605095 ZINC000006804283 ZINC06804283
     RDKit          3D

 29 31  0  0  0  0  0  0  0  0999 V2000
   12.7691   39.2187   11.8007 C   0  0  0  0  0  0  0  0  0  0  0  0
   13.9231   38.9166   10.8680 C   0  0  0  0  0  0  0  0  0  0  0  0
   15.0057   40.6897    9.5446 C   0  0  0  0  0  0  0  0  0  0  0  0
   14.9504   41.6439    8.4183 C   0  0  0  0  0  0  0  0  0  0  0  0
   15.9316   42.5473    8.0265 C   0  0  0  0  0  0  0  0  0  0  0  0
   17.2594   42.7381    8.6750 C   0  0  0  0  0  0  0  0  0  0  0  0
   14.3023   42.8155    6.6607 C   0  0  0  0  0  0  0  0  0  0  0  0
   13.8986   44.3383    4.6637 C   0  0  0  0  0  0  0  0  0  0  0  0
   13.3537   45.8634    2.7425 C   0  0  0  0  0  0  0  0  0  0  0  0
   12.9927   45.5156    1.3021 C   0  0  0  0  0  0  0  0  0  0  0  0
   11.2941   43.8713    2.1090 C   0  0  0  0  0  0  0  0  0  0  0  0
   11.6489   44.2033    3.5555 C   0  0  0  0  0  0  0  0  0  0  0  0
   10.6262   45.6283    0.4168 C   0  0  0  0  0  0  0  0  0  0  0  0
    9.3108   45.1378    0.3910 C   0  0  0  0  0  0  0  0  0  0  0  0
    8.3436   45.7373   -0.4203 C   0  0  0  0  0  0  0  0  0  0  0  0
    8.6740   46.8361   -1.2185 C   0  0  0  0  0  0  0  0  0  0  0  0
    7.9325   48.5312   -2.8601 C   0  0  0  0  0  0  0  0  0  0  0  0
    9.9868   47.3319   -1.1978 C   0  0  0  0  0  0  0  0  0  0  0  0
   10.9536   46.7322   -0.3866 C   0  0  0  0  0  0  0  0  0  0  0  0
   13.9045   41.8249    7.5319 C   0  0  0  0  0  0  0  0  0  0  0  0
   12.5981   41.1058    7.5054 C   0  0  0  0  0  0  0  0  0  0  0  0
   13.9212   39.8464    9.7950 O   0  0  0  0  0  0  0  0  0  0  0  0
   16.0300   40.6375   10.2790 O   0  0  0  0  0  0  0  0  0  0  0  0
   15.0331   44.8802    4.7665 O   0  0  0  0  0  0  0  0  0  0  0  0
    7.6843   47.4132   -2.0188 O   0  0  0  0  0  0  0  0  0  0  0  0
   15.5394   43.2645    6.9538 N   0  0  0  0  0  0  0  0  0  0  0  0
   13.5024   43.3094    5.5802 N   0  0  0  0  0  0  0  0  0  0  0  0
   13.0044   44.7474    3.6206 N   0  0  0  0  0  0  0  0  0  0  0  0
   11.6217   45.0108    1.2537 N   0  0  0  0  0  0  0  0  0  0  0  0
  1  2  1  0
  2 22  1  0
  3 22  1  0
  3  4  1  0
  5 26  1  0
  6  5  1  0
  7 27  1  0
  8 28  1  0
  9 28  1  0
  9 10  1  0
 10 29  1  0
 11 29  1  0
 11 12  1  0
 12 28  1  0
 14 15  2  0
 16 25  1  0
 16 18  2  0
 17 25  1  0
 19 13  2  0
 20  4  1  0
 21 20  1  0
 26  7  1  0
 27  8  1  0
 29 13  1  0
  3 23  2  0
  4  5  2  0
  7 20  2  0
  8 24  2  0
 13 14  1  0
 15 16  1  0
 18 19  1  0
M  END
>  <rmsd>  (733) 
0.207339332

$$$$
MolPort-007-723-073 6818070 ChemDiv-E157-3283 MCULE-8285572804 PubChem-22517686 ZINC000006818070 ZINC06818070
     RDKit          3D

 19 21  0  0  0  0  0  0  0  0999 V2000
   14.0694   39.0215   11.9626 C   0  0  0  0  0  0  0  0  0  0  0  0
   13.1194   39.6353   10.9516 C   0  0  0  0  0  0  0  0  0  0  0  0
   13.6236   39.4031    9.5366 C   0  0  0  0  0  0  0  0  0  0  0  0
   14.6901   40.3852    9.1780 C   0  0  0  0  0  0  0  0  0  0  0  0
   15.7489   41.9248    8.2191 C   0  0  0  0  0  0  0  0  0  0  0  0
   14.2208   42.6942    6.5774 C   0  0  0  0  0  0  0  0  0  0  0  0
   13.9106   44.3844    4.6807 C   0  0  0  0  0  0  0  0  0  0  0  0
   13.0124   44.9024    3.6427 C   0  0  0  0  0  0  0  0  0  0  0  0
   11.7302   44.4454    3.3805 C   0  0  0  0  0  0  0  0  0  0  0  0
   11.1130   45.1354    2.3269 C   0  0  0  0  0  0  0  0  0  0  0  0
   11.8971   46.1343    1.7539 C   0  0  0  0  0  0  0  0  0  0  0  0
   15.9173   40.4710    9.7599 N   0  0  0  0  0  0  0  0  0  0  0  0
   16.5946   41.4532    9.1510 N   0  0  0  0  0  0  0  0  0  0  0  0
   13.4714   43.3122    5.5245 N   0  0  0  0  0  0  0  0  0  0  0  0
   13.7022   41.6764    7.3218 N   0  0  0  0  0  0  0  0  0  0  0  0
   14.6036   41.3007    8.2138 N   0  0  0  0  0  0  0  0  0  0  0  0
   15.8340   43.1180    7.0481 S   0  0  0  0  0  0  0  0  0  0  0  0
   13.3654   46.1466    2.5750 S   0  0  0  0  0  0  0  0  0  0  0  0
   15.0570   44.8885    4.8180 O   0  0  0  0  0  0  0  0  0  0  0  0
  1  2  1  0
  2  3  1  0
  3  4  1  0
  5 17  1  0
  6 17  1  0
  6 14  1  0
  7  8  1  0
  8 18  1  0
  9 10  1  0
 11 18  1  0
 12 13  1  0
 14  7  1  0
 16 15  1  0
 16  4  1  0
 16  5  1  0
  4 12  2  0
  5 13  2  0
  6 15  2  0
  7 19  2  0
  8  9  2  0
 10 11  2  0
M  END
>  <rmsd>  (734) 
0.207034722

$$$$
MolPort-007-686-748 ChemDiv-D039-3202 MCULE-5150081229 PubChem-23605094 ZINC000006809961 ZINC06809961
     RDKit          3D

 28 30  0  0  0  0  0  0  0  0999 V2000
   12.7691   39.2190   11.8008 C   0  0  0  0  0  0  0  0  0  0  0  0
   13.9233   38.9166   10.8682 C   0  0  0  0  0  0  0  0  0  0  0  0
   15.0066   40.6882    9.5436 C   0  0  0  0  0  0  0  0  0  0  0  0
   14.9511   41.6427    8.4176 C   0  0  0  0  0  0  0  0  0  0  0  0
   15.9331   42.5444    8.0242 C   0  0  0  0  0  0  0  0  0  0  0  0
   17.2628   42.7322    8.6698 C   0  0  0  0  0  0  0  0  0  0  0  0
   14.3025   42.8150    6.6605 C   0  0  0  0  0  0  0  0  0  0  0  0
   13.8993   44.3368    4.6626 C   0  0  0  0  0  0  0  0  0  0  0  0
   11.6514   44.1990    3.5513 C   0  0  0  0  0  0  0  0  0  0  0  0
   11.3031   43.8629    2.1048 C   0  0  0  0  0  0  0  0  0  0  0  0
   12.9900   45.5125    1.2969 C   0  0  0  0  0  0  0  0  0  0  0  0
   13.3570   45.8574    2.7371 C   0  0  0  0  0  0  0  0  0  0  0  0
   10.6002   45.5959    0.4251 C   0  0  0  0  0  0  0  0  0  0  0  0
   10.8592   46.7763   -0.4258 C   0  0  0  0  0  0  0  0  0  0  0  0
    9.9247   47.3809   -1.2418 C   0  0  0  0  0  0  0  0  0  0  0  0
   10.5967   48.4320   -1.8401 C   0  0  0  0  0  0  0  0  0  0  0  0
   11.8910   48.4000   -1.3520 C   0  0  0  0  0  0  0  0  0  0  0  0
   13.9042   41.8251    7.5324 C   0  0  0  0  0  0  0  0  0  0  0  0
   12.5970   41.1075    7.5075 C   0  0  0  0  0  0  0  0  0  0  0  0
   13.9214   39.8460    9.7950 O   0  0  0  0  0  0  0  0  0  0  0  0
   16.0316   40.6346   10.2767 O   0  0  0  0  0  0  0  0  0  0  0  0
   15.0331   44.8799    4.7666 O   0  0  0  0  0  0  0  0  0  0  0  0
    9.4419   45.0960    0.4231 O   0  0  0  0  0  0  0  0  0  0  0  0
   12.0069   47.3998   -0.5127 O   0  0  0  0  0  0  0  0  0  0  0  0
   15.5408   43.2619    6.9517 N   0  0  0  0  0  0  0  0  0  0  0  0
   13.5024   43.3090    5.5801 N   0  0  0  0  0  0  0  0  0  0  0  0
   13.0066   44.7435    3.6174 N   0  0  0  0  0  0  0  0  0  0  0  0
   11.6210   45.0049    1.2514 N   0  0  0  0  0  0  0  0  0  0  0  0
  1  2  1  0
  2 20  1  0
  3 20  1  0
  3  4  1  0
  5 25  1  0
  6  5  1  0
  7 26  1  0
  8 27  1  0
  9 27  1  0
  9 10  1  0
 10 28  1  0
 11 28  1  0
 11 12  1  0
 12 27  1  0
 13 14  1  0
 14 24  1  0
 15 16  1  0
 17 24  1  0
 18  4  1  0
 19 18  1  0
 25  7  1  0
 26  8  1  0
 28 13  1  0
  3 21  2  0
  4  5  2  0
  7 18  2  0
  8 22  2  0
 13 23  2  0
 14 15  2  0
 16 17  2  0
M  END
>  <rmsd>  (735) 
0.206916556

$$$$
MolPort-004-160-381 CSC027240159 CSSS00027240159 ChemDiv-D039-0048 MCULE-6137790506 PubChem-16309714 Z198974558 ZINC000008338083 ZINC08338083
     RDKit          3D

 22 23  0  0  0  0  0  0  0  0999 V2000
   12.7673   39.2197   11.8020 C   0  0  0  0  0  0  0  0  0  0  0  0
   13.9205   38.9162   10.8688 C   0  0  0  0  0  0  0  0  0  0  0  0
   15.0049   40.6867    9.5436 C   0  0  0  0  0  0  0  0  0  0  0  0
   14.9499   41.6412    8.4174 C   0  0  0  0  0  0  0  0  0  0  0  0
   15.9327   42.5418    8.0235 C   0  0  0  0  0  0  0  0  0  0  0  0
   17.2627   42.7283    8.6686 C   0  0  0  0  0  0  0  0  0  0  0  0
   14.3015   42.8141    6.6606 C   0  0  0  0  0  0  0  0  0  0  0  0
   13.9007   44.3353    4.6664 C   0  0  0  0  0  0  0  0  0  0  0  0
   13.2668   45.7748    2.6450 C   0  0  0  0  0  0  0  0  0  0  0  0
   14.4736   45.4077    1.7717 C   0  0  0  0  0  0  0  0  0  0  0  0
   14.9593   46.6305    0.9997 C   0  0  0  0  0  0  0  0  0  0  0  0
   15.4043   47.7638    1.9362 C   0  0  0  0  0  0  0  0  0  0  0  0
   14.8048   47.6753    3.3451 C   0  0  0  0  0  0  0  0  0  0  0  0
   13.3675   47.1589    3.3094 C   0  0  0  0  0  0  0  0  0  0  0  0
   13.9027   41.8246    7.5328 C   0  0  0  0  0  0  0  0  0  0  0  0
   12.5947   41.1083    7.5088 C   0  0  0  0  0  0  0  0  0  0  0  0
   13.9190   39.8456    9.7955 O   0  0  0  0  0  0  0  0  0  0  0  0
   16.0303   40.6320   10.2762 O   0  0  0  0  0  0  0  0  0  0  0  0
   15.0331   44.8805    4.7669 O   0  0  0  0  0  0  0  0  0  0  0  0
   15.5405   43.2596    6.9513 N   0  0  0  0  0  0  0  0  0  0  0  0
   13.5016   43.3094    5.5805 N   0  0  0  0  0  0  0  0  0  0  0  0
   12.9957   44.7328    3.6310 N   0  0  0  0  0  0  0  0  0  0  0  0
  1  2  1  0
  2 17  1  0
  3 17  1  0
  3  4  1  0
  5 20  1  0
  6  5  1  0
  7 21  1  0
  8 22  1  0
  9 22  1  0
  9 10  1  0
 10 11  1  0
 11 12  1  0
 12 13  1  0
 13 14  1  0
 14  9  1  0
 15  4  1  0
 16 15  1  0
 20  7  1  0
 21  8  1  0
  3 18  2  0
  4  5  2  0
  7 15  2  0
  8 19  2  0
M  END
>  <rmsd>  (736) 
0.206498027

$$$$
MolPort-003-121-664 9058376 CSSS03437118148 MCULE-9626322807 PubChem-16939977 ZINC000009058376 ZINC09058376
     RDKit          3D

 32 35  0  0  0  0  0  0  0  0999 V2000
   13.1967   39.3408   11.2353 C   0  0  0  0  0  0  0  0  0  0  0  0
   10.9184   40.3829   11.3507 C   0  0  0  0  0  0  0  0  0  0  0  0
   11.0446   41.1905   10.1881 C   0  0  0  0  0  0  0  0  0  0  0  0
   12.5570   41.9811    8.2651 C   0  0  0  0  0  0  0  0  0  0  0  0
   13.9378   42.0668    7.7711 C   0  0  0  0  0  0  0  0  0  0  0  0
   14.3690   42.7113    6.6124 C   0  0  0  0  0  0  0  0  0  0  0  0
   13.9496   44.2342    4.6138 C   0  0  0  0  0  0  0  0  0  0  0  0
   13.0905   44.4661    3.4230 C   0  0  0  0  0  0  0  0  0  0  0  0
   10.9291   45.5361    2.8912 C   0  0  0  0  0  0  0  0  0  0  0  0
   10.9760   45.1059    1.5546 C   0  0  0  0  0  0  0  0  0  0  0  0
    9.9352   45.4193    0.6763 C   0  0  0  0  0  0  0  0  0  0  0  0
    8.8416   46.1639    1.1271 C   0  0  0  0  0  0  0  0  0  0  0  0
    7.7324   46.4929    0.1951 C   0  0  0  0  0  0  0  0  0  0  0  0
    8.7905   46.5977    2.4552 C   0  0  0  0  0  0  0  0  0  0  0  0
    9.8321   46.2839    3.3338 C   0  0  0  0  0  0  0  0  0  0  0  0
   15.7285   42.4988    6.5754 C   0  0  0  0  0  0  0  0  0  0  0  0
   17.9472   42.4505    5.8255 C   0  0  0  0  0  0  0  0  0  0  0  0
   18.3206   41.7114    6.9698 C   0  0  0  0  0  0  0  0  0  0  0  0
   17.3500   41.3541    7.9226 C   0  0  0  0  0  0  0  0  0  0  0  0
   16.0447   41.7667    7.6834 C   0  0  0  0  0  0  0  0  0  0  0  0
    9.9331   41.9281    9.7478 C   0  0  0  0  0  0  0  0  0  0  0  0
    8.7227   41.8888   10.4404 C   0  0  0  0  0  0  0  0  0  0  0  0
    8.6081   41.1120   11.5913 C   0  0  0  0  0  0  0  0  0  0  0  0
    9.6996   40.3664   12.0397 C   0  0  0  0  0  0  0  0  0  0  0  0
   11.9468   39.5786   11.8677 O   0  0  0  0  0  0  0  0  0  0  0  0
   11.6205   42.5180    7.6155 O   0  0  0  0  0  0  0  0  0  0  0  0
   15.0053   44.9061    4.7578 O   0  0  0  0  0  0  0  0  0  0  0  0
   11.9511   45.2309    3.7938 O   0  0  0  0  0  0  0  0  0  0  0  0
   14.9696   41.5187    8.3950 O   0  0  0  0  0  0  0  0  0  0  0  0
   12.2962   41.2784    9.4877 N   0  0  0  0  0  0  0  0  0  0  0  0
   13.5305   43.2977    5.6092 N   0  0  0  0  0  0  0  0  0  0  0  0
   16.6484   42.8306    5.6362 N   0  0  0  0  0  0  0  0  0  0  0  0
  1 25  1  0
  2 25  1  0
  3 30  1  0
  3 21  2  0
  4  5  1  0
  5 29  1  0
  6 31  1  0
  6 16  1  0
  8  7  1  0
  8 28  1  0
  9 28  1  0
 10 11  2  0
 12 14  2  0
 13 12  1  0
 15  9  2  0
 17 32  2  0
 18 19  2  0
 20 29  1  0
 20 16  2  0
 22 23  2  0
 24  2  2  0
 30  4  1  0
 31  7  1  0
  2  3  1  0
  4 26  2  0
  5  6  2  0
  7 27  2  0
  9 10  1  0
 11 12  1  0
 14 15  1  0
 16 32  1  0
 17 18  1  0
 19 20  1  0
 21 22  1  0
 23 24  1  0
M  END
>  <rmsd>  (737) 
0.206325769

$$$$
MolPort-010-948-485 ChemDiv-T479-0240 MCULE-7737912314 PubChem-53189980 ZINC000065283002 ZINC65283002
     RDKit          3D

 28 31  0  0  0  0  0  0  0  0999 V2000
   13.3604   39.4512   11.1898 C   0  0  0  0  0  0  0  0  0  0  0  0
   14.0440   40.5581   11.9688 C   0  0  0  0  0  0  0  0  0  0  0  0
   14.1083   41.8309   11.1099 C   0  0  0  0  0  0  0  0  0  0  0  0
   15.5146   42.4202   11.0162 C   0  0  0  0  0  0  0  0  0  0  0  0
   16.4719   40.0999   11.3879 C   0  0  0  0  0  0  0  0  0  0  0  0
   15.4077   40.0844   12.4878 C   0  0  0  0  0  0  0  0  0  0  0  0
   17.5441   41.6691    9.7591 C   0  0  0  0  0  0  0  0  0  0  0  0
   17.3244   42.1472    8.4486 C   0  0  0  0  0  0  0  0  0  0  0  0
   19.6646   42.4172    8.1597 C   0  0  0  0  0  0  0  0  0  0  0  0
   18.8640   41.5634   10.2078 C   0  0  0  0  0  0  0  0  0  0  0  0
   15.6413   43.0270    6.8742 C   0  0  0  0  0  0  0  0  0  0  0  0
   14.3380   42.6950    6.5691 C   0  0  0  0  0  0  0  0  0  0  0  0
   13.8743   44.3823    4.7184 C   0  0  0  0  0  0  0  0  0  0  0  0
   12.9077   44.9082    3.7383 C   0  0  0  0  0  0  0  0  0  0  0  0
   13.2615   45.9684    2.8901 C   0  0  0  0  0  0  0  0  0  0  0  0
   12.3439   46.4666    1.9606 C   0  0  0  0  0  0  0  0  0  0  0  0
   11.0658   45.9085    1.8723 C   0  0  0  0  0  0  0  0  0  0  0  0
   10.0903   46.4380    0.8842 C   0  0  0  0  0  0  0  0  0  0  0  0
   10.7051   44.8523    2.7132 C   0  0  0  0  0  0  0  0  0  0  0  0
   11.6228   44.3541    3.6427 C   0  0  0  0  0  0  0  0  0  0  0  0
   13.9679   41.6489    7.3864 C   0  0  0  0  0  0  0  0  0  0  0  0
   16.4696   41.3715   10.6601 N   0  0  0  0  0  0  0  0  0  0  0  0
   18.3941   42.5196    7.6927 N   0  0  0  0  0  0  0  0  0  0  0  0
   19.8942   41.9329    9.4058 N   0  0  0  0  0  0  0  0  0  0  0  0
   16.0122   42.1975    7.8678 N   0  0  0  0  0  0  0  0  0  0  0  0
   13.4988   43.2972    5.5780 N   0  0  0  0  0  0  0  0  0  0  0  0
   15.0273   41.3630    8.1679 N   0  0  0  0  0  0  0  0  0  0  0  0
   15.0267   44.8892    4.7964 O   0  0  0  0  0  0  0  0  0  0  0  0
  1  2  1  0
  2  3  1  0
  3  4  1  0
  4 22  1  0
  5 22  1  0
  5  6  1  0
  6  2  1  0
  7  8  2  0
  8 25  1  0
  9 23  2  0
 10 24  2  0
 12 26  1  0
 12 21  1  0
 13 14  1  0
 15 16  2  0
 17 19  2  0
 18 17  1  0
 20 14  2  0
 22  7  1  0
 25 11  1  0
 25 27  1  0
 26 13  1  0
  8 23  1  0
  9 24  1  0
 10  7  1  0
 11 12  2  0
 13 28  2  0
 14 15  1  0
 16 17  1  0
 19 20  1  0
 21 27  2  0
M  END
>  <rmsd>  (738) 
0.206293404

$$$$
MolPort-005-154-018 15066060 CSSS00160034953 PubChem-26395851 ZINC000015066060
     RDKit          3D

 32 36  0  0  0  0  0  0  0  0999 V2000
   15.0611   44.8806    4.8182 O   0  0  0  0  0  0  0  0  0  0  0  0
   10.3660   46.1446    0.6969 O   0  0  0  0  0  0  0  0  0  0  0  0
    9.6642   44.4564    2.0539 O   0  0  0  0  0  0  0  0  0  0  0  0
   13.9149   44.3760    4.6670 C   0  0  0  0  0  0  0  0  0  0  0  0
   14.2233   42.7351    6.5960 C   0  0  0  0  0  0  0  0  0  0  0  0
   15.4937   43.1005    7.0018 C   0  0  0  0  0  0  0  0  0  0  0  0
   15.7433   42.2552    8.0777 C   0  0  0  0  0  0  0  0  0  0  0  0
   12.4454   41.1223    7.2795 C   0  0  0  0  0  0  0  0  0  0  0  0
   11.5044   41.6586    8.3675 C   0  0  0  0  0  0  0  0  0  0  0  0
   11.7224   41.0088    9.7474 C   0  0  0  0  0  0  0  0  0  0  0  0
   12.4633   39.1264   10.9490 C   0  0  0  0  0  0  0  0  0  0  0  0
   13.5706   39.4660   11.8900 C   0  0  0  0  0  0  0  0  0  0  0  0
   14.8286   39.1424   11.6015 C   0  0  0  0  0  0  0  0  0  0  0  0
   15.9559   39.4657   12.4864 C   0  0  0  0  0  0  0  0  0  0  0  0
   17.2480   39.1011   12.0921 C   0  0  0  0  0  0  0  0  0  0  0  0
   18.3453   39.4039   12.9044 C   0  0  0  0  0  0  0  0  0  0  0  0
   18.1544   40.0737   14.1164 C   0  0  0  0  0  0  0  0  0  0  0  0
   16.8666   40.4405   14.5173 C   0  0  0  0  0  0  0  0  0  0  0  0
   15.7695   40.1380   13.7054 C   0  0  0  0  0  0  0  0  0  0  0  0
   12.1992   38.9678    8.6256 C   0  0  0  0  0  0  0  0  0  0  0  0
   12.5515   39.5883    7.2718 C   0  0  0  0  0  0  0  0  0  0  0  0
   13.0266   44.8812    3.6059 C   0  0  0  0  0  0  0  0  0  0  0  0
   11.7425   44.3227    3.4313 C   0  0  0  0  0  0  0  0  0  0  0  0
   10.9415   44.8363    2.4150 C   0  0  0  0  0  0  0  0  0  0  0  0
   11.3600   45.8419    1.6061 C   0  0  0  0  0  0  0  0  0  0  0  0
    9.2539   45.2739    0.9486 C   0  0  0  0  0  0  0  0  0  0  0  0
   12.6169   46.4238    1.7398 C   0  0  0  0  0  0  0  0  0  0  0  0
   13.4551   45.9308    2.7561 C   0  0  0  0  0  0  0  0  0  0  0  0
   13.4704   43.3136    5.5220 N   0  0  0  0  0  0  0  0  0  0  0  0
   14.6784   41.4504    8.2811 N   0  0  0  0  0  0  0  0  0  0  0  0
   13.7642   41.7450    7.3737 N   0  0  0  0  0  0  0  0  0  0  0  0
   12.6266   39.8546    9.7012 N   0  0  0  0  0  0  0  0  0  0  0  0
  4 29  1  0
  4 22  1  0
  6  7  1  0
  8 31  1  0
  8  9  1  0
  9 10  1  0
 10 32  1  0
 11 32  1  0
 11 12  1  0
 13 14  1  0
 15 16  2  0
 17 18  2  0
 19 14  2  0
 20 32  1  0
 20 21  1  0
 21  8  1  0
 23 24  2  0
 24  3  1  0
 25  2  1  0
 25 27  2  0
 26  2  1  0
 26  3  1  0
 28 22  2  0
 29  5  1  0
 31 30  1  0
 31  5  1  0
  4  1  2  0
  5  6  2  0
  7 30  2  0
 12 13  2  0
 14 15  1  0
 16 17  1  0
 18 19  1  0
 22 23  1  0
 24 25  1  0
 27 28  1  0
M  END
>  <rmsd>  (739) 
0.206150979

$$$$
MolPort-005-114-135 CSSS00159524509 MCULE-1382020917 PubChem-31105705
     RDKit          3D

 28 30  0  0  0  0  0  0  0  0999 V2000
   12.7018   39.2967   11.6672 C   0  0  0  0  0  0  0  0  0  0  0  0
   13.8500   38.9731   10.7342 C   0  0  0  0  0  0  0  0  0  0  0  0
   14.9933   40.7295    9.4426 C   0  0  0  0  0  0  0  0  0  0  0  0
   14.9669   41.6902    8.3351 C   0  0  0  0  0  0  0  0  0  0  0  0
   15.9883   42.5508    7.9907 C   0  0  0  0  0  0  0  0  0  0  0  0
   14.3350   42.8129    6.6690 C   0  0  0  0  0  0  0  0  0  0  0  0
   13.8908   44.3284    4.6743 C   0  0  0  0  0  0  0  0  0  0  0  0
   11.7063   44.0360    3.4727 C   0  0  0  0  0  0  0  0  0  0  0  0
   10.5854   45.0532    3.2728 C   0  0  0  0  0  0  0  0  0  0  0  0
   10.8887   46.0398    2.1212 C   0  0  0  0  0  0  0  0  0  0  0  0
   12.2513   46.7141    2.4057 C   0  0  0  0  0  0  0  0  0  0  0  0
   13.3753   45.7025    2.6360 C   0  0  0  0  0  0  0  0  0  0  0  0
    9.8421   47.1391    2.0881 C   0  0  0  0  0  0  0  0  0  0  0  0
    9.9292   48.2375    1.0761 C   0  0  0  0  0  0  0  0  0  0  0  0
   10.8565   45.3033    0.7847 C   0  0  0  0  0  0  0  0  0  0  0  0
    9.7371   44.5212    0.4470 C   0  0  0  0  0  0  0  0  0  0  0  0
    9.6734   43.8589   -0.7819 C   0  0  0  0  0  0  0  0  0  0  0  0
   10.7247   43.9754   -1.6936 C   0  0  0  0  0  0  0  0  0  0  0  0
   11.8382   44.7569   -1.3783 C   0  0  0  0  0  0  0  0  0  0  0  0
   11.9020   45.4194   -0.1497 C   0  0  0  0  0  0  0  0  0  0  0  0
   13.8813   39.9180    9.6751 O   0  0  0  0  0  0  0  0  0  0  0  0
   16.0156   40.6421   10.1766 O   0  0  0  0  0  0  0  0  0  0  0  0
   15.0221   44.8800    4.7579 O   0  0  0  0  0  0  0  0  0  0  0  0
    8.9101   47.1476    2.8789 O   0  0  0  0  0  0  0  0  0  0  0  0
   15.5798   43.2657    6.9260 N   0  0  0  0  0  0  0  0  0  0  0  0
   13.5143   43.3033    5.6036 N   0  0  0  0  0  0  0  0  0  0  0  0
   12.9738   44.7339    3.6500 N   0  0  0  0  0  0  0  0  0  0  0  0
   13.9187   41.8466    7.5081 N   0  0  0  0  0  0  0  0  0  0  0  0
  1  2  1  0
  2 21  1  0
  3 21  1  0
  3  4  1  0
  5 25  1  0
  6 26  1  0
  6 28  1  0
  7 27  1  0
  8 27  1  0
  8  9  1  0
  9 10  1  0
 10 11  1  0
 10 13  1  0
 10 15  1  0
 11 12  1  0
 12 27  1  0
 14 13  1  0
 16 17  2  0
 18 19  2  0
 20 15  2  0
 26  7  1  0
 28  4  1  0
  3 22  2  0
  4  5  2  0
  6 25  2  0
  7 23  2  0
 13 24  2  0
 15 16  1  0
 17 18  1  0
 19 20  1  0
M  END
>  <rmsd>  (740) 
0.206146955

$$$$
MolPort-002-455-729 CHEMBL1475516 CSC026739902 CSSS00026739902 MCULE-9128102949 PubChem-2134008 Z57477982 ZINC02685901
     RDKit          3D

 26 27  0  0  0  0  0  0  0  0999 V2000
   12.7662   39.2215   11.8043 C   0  0  0  0  0  0  0  0  0  0  0  0
   13.9176   38.9154   10.8696 C   0  0  0  0  0  0  0  0  0  0  0  0
   15.0040   40.6833    9.5427 C   0  0  0  0  0  0  0  0  0  0  0  0
   14.9495   41.6378    8.4166 C   0  0  0  0  0  0  0  0  0  0  0  0
   15.9338   42.5363    8.0213 C   0  0  0  0  0  0  0  0  0  0  0  0
   17.2651   42.7200    8.6645 C   0  0  0  0  0  0  0  0  0  0  0  0
   14.3015   42.8120    6.6604 C   0  0  0  0  0  0  0  0  0  0  0  0
   13.9017   44.3340    4.6669 C   0  0  0  0  0  0  0  0  0  0  0  0
   12.4609   46.1440    1.6875 C   0  0  0  0  0  0  0  0  0  0  0  0
   12.8378   47.1941    0.7087 C   0  0  0  0  0  0  0  0  0  0  0  0
   12.0872   47.2808   -0.4759 C   0  0  0  0  0  0  0  0  0  0  0  0
   12.3857   48.2335   -1.4512 C   0  0  0  0  0  0  0  0  0  0  0  0
   13.4421   49.1211   -1.2558 C   0  0  0  0  0  0  0  0  0  0  0  0
   14.1948   49.0588   -0.0831 C   0  0  0  0  0  0  0  0  0  0  0  0
   13.9063   48.1083    0.9024 C   0  0  0  0  0  0  0  0  0  0  0  0
   13.9016   41.8234    7.5332 C   0  0  0  0  0  0  0  0  0  0  0  0
   12.5922   41.1098    7.5110 C   0  0  0  0  0  0  0  0  0  0  0  0
   13.9167   39.8446    9.7962 O   0  0  0  0  0  0  0  0  0  0  0  0
   16.0303   40.6266   10.2740 O   0  0  0  0  0  0  0  0  0  0  0  0
   15.0330   44.8815    4.7656 O   0  0  0  0  0  0  0  0  0  0  0  0
   11.3381   45.5767    1.5886 O   0  0  0  0  0  0  0  0  0  0  0  0
   15.5418   43.2548    6.9495 N   0  0  0  0  0  0  0  0  0  0  0  0
   13.5014   43.3086    5.5812 N   0  0  0  0  0  0  0  0  0  0  0  0
   13.0034   44.7352    3.6351 N   0  0  0  0  0  0  0  0  0  0  0  0
   13.3577   45.7346    2.7197 N   0  0  0  0  0  0  0  0  0  0  0  0
   14.8890   48.1663    2.3598 Cl  0  0  0  0  0  0  0  0  0  0  0  0
  1  2  1  0
  2 18  1  0
  3 18  1  0
  3  4  1  0
  5 22  1  0
  6  5  1  0
  7 23  1  0
  8 24  1  0
  9 10  1  0
 11 12  2  0
 13 14  2  0
 15 26  1  0
 15 10  2  0
 16  4  1  0
 17 16  1  0
 22  7  1  0
 23  8  1  0
 24 25  1  0
 25  9  1  0
  3 19  2  0
  4  5  2  0
  7 16  2  0
  8 20  2  0
  9 21  2  0
 10 11  1  0
 12 13  1  0
 14 15  1  0
M  END
>  <rmsd>  (741) 
0.205933064

$$$$
MolPort-007-723-529 6818342 CHEMBL1552869 ChemDiv-E157-6111 MCULE-1500953579 PubChem-16017440 ZINC000006818342 ZINC06818342
     RDKit          3D

 26 28  0  0  0  0  0  0  0  0999 V2000
   11.8439   43.3158   14.2513 C   0  0  0  0  0  0  0  0  0  0  0  0
   12.9087   43.1901   13.2221 C   0  0  0  0  0  0  0  0  0  0  0  0
   13.6909   44.2979   12.8876 C   0  0  0  0  0  0  0  0  0  0  0  0
   14.6916   44.1788   11.9201 C   0  0  0  0  0  0  0  0  0  0  0  0
   14.9095   42.9515   11.2877 C   0  0  0  0  0  0  0  0  0  0  0  0
   14.1290   41.8290   11.6112 C   0  0  0  0  0  0  0  0  0  0  0  0
   13.5563   39.3958   11.3208 C   0  0  0  0  0  0  0  0  0  0  0  0
   15.1686   41.4438    8.3720 C   0  0  0  0  0  0  0  0  0  0  0  0
   14.2457   42.7110    6.5717 C   0  0  0  0  0  0  0  0  0  0  0  0
   13.9024   44.3815    4.6921 C   0  0  0  0  0  0  0  0  0  0  0  0
   12.9745   44.9057    3.6468 C   0  0  0  0  0  0  0  0  0  0  0  0
   13.5261   44.6307    2.2375 C   0  0  0  0  0  0  0  0  0  0  0  0
   14.1828   45.8715    1.6372 C   0  0  0  0  0  0  0  0  0  0  0  0
   13.1792   47.0263    1.5150 C   0  0  0  0  0  0  0  0  0  0  0  0
   12.1327   47.0569    2.6386 C   0  0  0  0  0  0  0  0  0  0  0  0
   12.6476   46.3837    3.9076 C   0  0  0  0  0  0  0  0  0  0  0  0
   13.1268   41.9633   12.5881 C   0  0  0  0  0  0  0  0  0  0  0  0
   14.3524   40.5616   10.9601 N   0  0  0  0  0  0  0  0  0  0  0  0
   16.0154   42.3857    7.9015 N   0  0  0  0  0  0  0  0  0  0  0  0
   15.5019   43.0924    6.8967 N   0  0  0  0  0  0  0  0  0  0  0  0
   13.4654   43.3082    5.5320 N   0  0  0  0  0  0  0  0  0  0  0  0
   15.5469   40.3778    9.7097 S   0  0  0  0  0  0  0  0  0  0  0  0
   13.7016   41.4500    7.5439 S   0  0  0  0  0  0  0  0  0  0  0  0
   15.5629   38.9591    9.2118 O   0  0  0  0  0  0  0  0  0  0  0  0
   16.9040   40.7119   10.2636 O   0  0  0  0  0  0  0  0  0  0  0  0
   15.0546   44.8793    4.8224 O   0  0  0  0  0  0  0  0  0  0  0  0
  1  2  1  0
  3  4  2  0
  5  6  2  0
  6 18  1  0
  7 18  1  0
  8 23  1  0
  9 21  1  0
  9 23  1  0
 11 10  1  0
 11 12  1  0
 12 13  1  0
 13 14  1  0
 14 15  1  0
 15 16  1  0
 16 11  1  0
 17  2  2  0
 19 20  1  0
 21 10  1  0
 22 18  1  0
 22  8  1  0
  2  3  1  0
  4  5  1  0
  6 17  1  0
  8 19  2  0
  9 20  2  0
 10 26  2  0
 22 24  2  0
 22 25  2  0
M  END
>  <rmsd>  (742) 
0.205880195

$$$$
MolPort-003-323-677 6804279 CSC027238687 CSSS00027238687 ChemDiv-D039-0111 MCULE-6769502420 PubChem-8087288 Z198974524 ZINC000006804279 ZINC06804279
     RDKit          3D

 25 26  0  0  0  0  0  0  0  0999 V2000
   12.7687   39.2246   11.8043 C   0  0  0  0  0  0  0  0  0  0  0  0
   13.9195   38.9178   10.8689 C   0  0  0  0  0  0  0  0  0  0  0  0
   15.0058   40.6851    9.5410 C   0  0  0  0  0  0  0  0  0  0  0  0
   14.9510   41.6394    8.4148 C   0  0  0  0  0  0  0  0  0  0  0  0
   15.9353   42.5373    8.0187 C   0  0  0  0  0  0  0  0  0  0  0  0
   17.2671   42.7206    8.6611 C   0  0  0  0  0  0  0  0  0  0  0  0
   14.3022   42.8135    6.6588 C   0  0  0  0  0  0  0  0  0  0  0  0
   13.8998   44.3351    4.6641 C   0  0  0  0  0  0  0  0  0  0  0  0
   13.2059   45.7307    2.6272 C   0  0  0  0  0  0  0  0  0  0  0  0
   14.3995   46.4628    2.5541 C   0  0  0  0  0  0  0  0  0  0  0  0
   14.5757   47.4304    1.5618 C   0  0  0  0  0  0  0  0  0  0  0  0
   13.5617   47.6842    0.6241 C   0  0  0  0  0  0  0  0  0  0  0  0
   12.3686   46.9477    0.7025 C   0  0  0  0  0  0  0  0  0  0  0  0
   12.1940   45.9801    1.6957 C   0  0  0  0  0  0  0  0  0  0  0  0
   12.7004   48.9551   -1.3776 C   0  0  0  0  0  0  0  0  0  0  0  0
   14.9727   49.4520   -0.4928 C   0  0  0  0  0  0  0  0  0  0  0  0
   13.9026   41.8252    7.5320 C   0  0  0  0  0  0  0  0  0  0  0  0
   12.5928   41.1122    7.5107 C   0  0  0  0  0  0  0  0  0  0  0  0
   13.9182   39.8469    9.7954 O   0  0  0  0  0  0  0  0  0  0  0  0
   16.0325   40.6281   10.2716 O   0  0  0  0  0  0  0  0  0  0  0  0
   15.0324   44.8791    4.7669 O   0  0  0  0  0  0  0  0  0  0  0  0
   15.5429   43.2559    6.9470 N   0  0  0  0  0  0  0  0  0  0  0  0
   13.5015   43.3102    5.5799 N   0  0  0  0  0  0  0  0  0  0  0  0
   12.9881   44.7296    3.6310 N   0  0  0  0  0  0  0  0  0  0  0  0
   13.7421   48.6812   -0.3991 N   0  0  0  0  0  0  0  0  0  0  0  0
  1  2  1  0
  2 19  1  0
  3 19  1  0
  3  4  1  0
  5 22  1  0
  6  5  1  0
  7 23  1  0
  8 24  1  0
 10 11  2  0
 12 13  2  0
 12 25  1  0
 14  9  2  0
 15 25  1  0
 16 25  1  0
 17  4  1  0
 18 17  1  0
 22  7  1  0
 23  8  1  0
 24  9  1  0
  3 20  2  0
  4  5  2  0
  7 17  2  0
  8 21  2  0
  9 10  1  0
 11 12  1  0
 13 14  1  0
M  END
>  <rmsd>  (743) 
0.205451518

$$$$
MolPort-002-278-583 CSC026731956 CSSS00026731956 MCULE-9217409368 PubChem-959501 Z57089957 ZINC00568481
     RDKit          3D

 25 26  0  0  0  0  0  0  0  0999 V2000
   12.7660   39.2223   11.8051 C   0  0  0  0  0  0  0  0  0  0  0  0
   13.9165   38.9150   10.8697 C   0  0  0  0  0  0  0  0  0  0  0  0
   15.0039   40.6819    9.5422 C   0  0  0  0  0  0  0  0  0  0  0  0
   14.9496   41.6366    8.4161 C   0  0  0  0  0  0  0  0  0  0  0  0
   15.9344   42.5343    8.0204 C   0  0  0  0  0  0  0  0  0  0  0  0
   17.2661   42.7168    8.6630 C   0  0  0  0  0  0  0  0  0  0  0  0
   14.3016   42.8113    6.6602 C   0  0  0  0  0  0  0  0  0  0  0  0
   13.9019   44.3338    4.6670 C   0  0  0  0  0  0  0  0  0  0  0  0
   12.4574   46.1370    1.6845 C   0  0  0  0  0  0  0  0  0  0  0  0
   12.8499   47.1908    0.7324 C   0  0  0  0  0  0  0  0  0  0  0  0
   11.9718   47.5910   -0.2860 C   0  0  0  0  0  0  0  0  0  0  0  0
   12.3451   48.5909   -1.1889 C   0  0  0  0  0  0  0  0  0  0  0  0
   13.5992   49.1979   -1.0801 C   0  0  0  0  0  0  0  0  0  0  0  0
   14.4799   48.8053   -0.0688 C   0  0  0  0  0  0  0  0  0  0  0  0
   14.1066   47.8054    0.8341 C   0  0  0  0  0  0  0  0  0  0  0  0
   13.9015   41.8230    7.5332 C   0  0  0  0  0  0  0  0  0  0  0  0
   12.5915   41.1103    7.5114 C   0  0  0  0  0  0  0  0  0  0  0  0
   13.9159   39.8443    9.7963 O   0  0  0  0  0  0  0  0  0  0  0  0
   16.0305   40.6243   10.2728 O   0  0  0  0  0  0  0  0  0  0  0  0
   15.0332   44.8816    4.7658 O   0  0  0  0  0  0  0  0  0  0  0  0
   11.3261   45.5874    1.5889 O   0  0  0  0  0  0  0  0  0  0  0  0
   15.5424   43.2532    6.9487 N   0  0  0  0  0  0  0  0  0  0  0  0
   13.5015   43.3085    5.5812 N   0  0  0  0  0  0  0  0  0  0  0  0
   13.0038   44.7346    3.6347 N   0  0  0  0  0  0  0  0  0  0  0  0
   13.3564   45.7343    2.7190 N   0  0  0  0  0  0  0  0  0  0  0  0
  1  2  1  0
  2 18  1  0
  3 18  1  0
  3  4  1  0
  5 22  1  0
  6  5  1  0
  7 23  1  0
  8 24  1  0
  9 10  1  0
 11 12  2  0
 13 14  2  0
 15 10  2  0
 16  4  1  0
 17 16  1  0
 22  7  1  0
 23  8  1  0
 24 25  1  0
 25  9  1  0
  3 19  2  0
  4  5  2  0
  7 16  2  0
  8 20  2  0
  9 21  2  0
 10 11  1  0
 12 13  1  0
 14 15  1  0
M  END
>  <rmsd>  (744) 
0.205425203

$$$$
MolPort-005-088-836 CSSS00159778976 MCULE-8090982786 PubChem-45214854
     RDKit          3D

 31 34  0  0  0  0  0  0  0  0999 V2000
   13.6590   45.1216    1.4748 C   0  0  0  0  0  0  0  0  0  0  0  0
   13.0088   44.8536    3.5762 C   0  0  1  0  0  0  0  0  0  0  0  0
   13.9208   44.3654    4.6640 C   0  0  0  0  0  0  0  0  0  0  0  0
   14.2123   42.7548    6.6180 C   0  0  0  0  0  0  0  0  0  0  0  0
   15.4787   43.1256    7.0299 C   0  0  0  0  0  0  0  0  0  0  0  0
   15.7150   42.3007    8.1240 C   0  0  0  0  0  0  0  0  0  0  0  0
   12.4224   41.1633    7.3161 C   0  0  0  0  0  0  0  0  0  0  0  0
   12.5205   39.6296    7.3365 C   0  0  0  0  0  0  0  0  0  0  0  0
   12.1723   39.0331    8.7020 C   0  0  0  0  0  0  0  0  0  0  0  0
   12.4090   39.2546   11.0285 C   0  0  0  0  0  0  0  0  0  0  0  0
   13.7344   38.6633   11.4926 C   0  0  0  0  0  0  0  0  0  0  0  0
   14.7508   39.7564   11.8010 C   0  0  0  0  0  0  0  0  0  0  0  0
   14.0363   41.8497   12.9263 C   0  0  0  0  0  0  0  0  0  0  0  0
   13.6940   42.2262   14.2132 C   0  0  0  0  0  0  0  0  0  0  0  0
   13.8123   41.0695   14.9706 C   0  0  0  0  0  0  0  0  0  0  0  0
   11.6638   41.0897    9.7749 C   0  0  0  0  0  0  0  0  0  0  0  0
   11.4737   41.7242    8.3843 C   0  0  0  0  0  0  0  0  0  0  0  0
   11.7833   45.4940    4.1517 C   0  0  0  0  0  0  0  0  0  0  0  0
   11.8680   46.6865    4.8861 C   0  0  0  0  0  0  0  0  0  0  0  0
   10.7131   47.2645    5.4210 C   0  0  0  0  0  0  0  0  0  0  0  0
    9.4710   46.6543    5.2245 C   0  0  0  0  0  0  0  0  0  0  0  0
    9.3834   45.4660    4.4933 C   0  0  0  0  0  0  0  0  0  0  0  0
   10.5378   44.8868    3.9582 C   0  0  0  0  0  0  0  0  0  0  0  0
   13.6665   45.7469    2.7228 O   0  0  0  0  0  0  0  0  0  0  0  0
   15.0630   44.8788    4.8137 O   0  0  0  0  0  0  0  0  0  0  0  0
   13.4711   43.3140    5.5265 N   0  0  0  0  0  0  0  0  0  0  0  0
   14.6465   41.5029    8.3327 N   0  0  0  0  0  0  0  0  0  0  0  0
   13.7426   41.7816    7.4104 N   0  0  0  0  0  0  0  0  0  0  0  0
   12.5809   39.9478    9.7626 N   0  0  0  0  0  0  0  0  0  0  0  0
   14.3312   40.5415   12.9515 N   0  0  0  0  0  0  0  0  0  0  0  0
   14.2042   40.0590   14.1731 N   0  0  0  0  0  0  0  0  0  0  0  0
  1 24  1  0
  2 24  1  1
  2  3  1  0
  2 18  1  0
  3 26  1  0
  5  6  1  0
  7 28  1  0
  7  8  1  0
  8  9  1  0
  9 29  1  0
 10 29  1  0
 10 11  1  0
 11 12  1  0
 12 30  1  0
 14 15  1  0
 16 29  1  0
 16 17  1  0
 17  7  1  0
 19 20  2  0
 21 22  2  0
 23 18  2  0
 26  4  1  0
 28 27  1  0
 28  4  1  0
 30 13  1  0
 30 31  1  0
  3 25  2  0
  4  5  2  0
  6 27  2  0
 13 14  2  0
 15 31  2  0
 18 19  1  0
 20 21  1  0
 22 23  1  0
M  END
>  <rmsd>  (745) 
0.205116123

$$$$
Molport-047-883-860 PubChem-165926871
     RDKit          3D

 24 24  0  0  0  0  0  0  0  0999 V2000
   12.8195   39.2440   11.8088 C   0  0  0  0  0  0  0  0  0  0  0  0
   13.9783   38.9483   10.8800 C   0  0  0  0  0  0  0  0  0  0  0  0
   15.0420   40.7223    9.5418 C   0  0  0  0  0  0  0  0  0  0  0  0
   14.9715   41.6700    8.4082 C   0  0  0  0  0  0  0  0  0  0  0  0
   15.9384   42.5854    7.9867 C   0  0  0  0  0  0  0  0  0  0  0  0
   14.2919   42.8195    6.6498 C   0  0  0  0  0  0  0  0  0  0  0  0
   13.9102   41.8337    7.5316 C   0  0  0  0  0  0  0  0  0  0  0  0
   12.6531   41.1303    7.5259 C   0  0  0  0  0  0  0  0  0  0  0  0
   13.9051   44.3360    4.6622 C   0  0  0  0  0  0  0  0  0  0  0  0
   13.3140   45.7401    2.6711 C   0  0  0  0  0  0  0  0  0  0  0  0
   13.5518   47.0811    3.3437 C   0  0  0  0  0  0  0  0  0  0  0  0
   12.1229   45.8732    1.7462 C   0  0  0  0  0  0  0  0  0  0  0  0
   14.5269   45.3589    1.8399 C   0  0  0  0  0  0  0  0  0  0  0  0
   17.2896   42.8242    8.5903 C   0  0  0  0  0  0  0  0  0  0  0  0
   13.9666   39.8697    9.7999 O   0  0  0  0  0  0  0  0  0  0  0  0
   16.0670   40.6820   10.2750 O   0  0  0  0  0  0  0  0  0  0  0  0
   15.4974   43.2496    6.9393 O   0  0  0  0  0  0  0  0  0  0  0  0
   15.0396   44.8756    4.7799 O   0  0  0  0  0  0  0  0  0  0  0  0
   13.0286   44.7303    3.6423 O   0  0  0  0  0  0  0  0  0  0  0  0
   11.6431   40.5656    7.5209 N   0  0  0  0  0  0  0  0  0  0  0  0
   13.4923   43.3103    5.5691 N   0  0  0  0  0  0  0  0  0  0  0  0
   17.1516   43.2360    9.9028 F   0  0  0  0  0  0  0  0  0  0  0  0
   17.9524   43.8097    7.8814 F   0  0  0  0  0  0  0  0  0  0  0  0
   18.0374   41.6623    8.5431 F   0  0  0  0  0  0  0  0  0  0  0  0
  1  2  1  0
  2 15  1  0
  3 15  1  0
  3  4  1  0
  5 17  1  0
  6 17  1  0
  6 21  1  0
  7  8  1  0
  7  4  1  0
  9 19  1  0
 10 19  1  0
 10 11  1  0
 10 12  1  0
 10 13  1  0
 14  5  1  0
 14 22  1  0
 14 23  1  0
 14 24  1  0
 21  9  1  0
  3 16  2  0
  4  5  2  0
  6  7  2  0
  9 18  2  0
  8 20  3  0
M  END
>  <rmsd>  (746) 
0.2050322

$$$$
Molport-047-885-480 PubChem-165941088
     RDKit          3D

 27 28  0  0  0  0  0  0  0  0999 V2000
   12.8187   39.2429   11.8089 C   0  0  0  0  0  0  0  0  0  0  0  0
   13.9778   38.9473   10.8803 C   0  0  0  0  0  0  0  0  0  0  0  0
   15.0414   40.7213    9.5423 C   0  0  0  0  0  0  0  0  0  0  0  0
   14.9710   41.6689    8.4086 C   0  0  0  0  0  0  0  0  0  0  0  0
   15.9378   42.5844    7.9872 C   0  0  0  0  0  0  0  0  0  0  0  0
   14.2916   42.8182    6.6499 C   0  0  0  0  0  0  0  0  0  0  0  0
   13.9098   41.8324    7.5317 C   0  0  0  0  0  0  0  0  0  0  0  0
   12.6528   41.1288    7.5258 C   0  0  0  0  0  0  0  0  0  0  0  0
   13.9050   44.3345    4.6622 C   0  0  0  0  0  0  0  0  0  0  0  0
   13.3824   45.7410    2.7119 C   0  0  0  0  0  0  0  0  0  0  0  0
   12.2630   45.9434    1.7537 C   0  0  0  0  0  0  0  0  0  0  0  0
   11.2503   46.8638    2.0447 C   0  0  0  0  0  0  0  0  0  0  0  0
   10.1850   47.0363    1.1555 C   0  0  0  0  0  0  0  0  0  0  0  0
   10.1285   46.2843   -0.0222 C   0  0  0  0  0  0  0  0  0  0  0  0
   11.1358   45.3581   -0.3097 C   0  0  0  0  0  0  0  0  0  0  0  0
   12.2013   45.1853    0.5794 C   0  0  0  0  0  0  0  0  0  0  0  0
   17.2889   42.8235    8.5910 C   0  0  0  0  0  0  0  0  0  0  0  0
   13.9660   39.8685    9.8001 O   0  0  0  0  0  0  0  0  0  0  0  0
   16.0661   40.6812   10.2756 O   0  0  0  0  0  0  0  0  0  0  0  0
   15.4969   43.2485    6.9396 O   0  0  0  0  0  0  0  0  0  0  0  0
   15.0391   44.8757    4.7782 O   0  0  0  0  0  0  0  0  0  0  0  0
   13.0352   44.7289    3.6460 O   0  0  0  0  0  0  0  0  0  0  0  0
   11.6428   40.5640    7.5207 N   0  0  0  0  0  0  0  0  0  0  0  0
   13.4921   43.3089    5.5690 N   0  0  0  0  0  0  0  0  0  0  0  0
   17.1506   43.2354    9.9035 F   0  0  0  0  0  0  0  0  0  0  0  0
   17.9516   43.8090    7.8822 F   0  0  0  0  0  0  0  0  0  0  0  0
   18.0368   41.6617    8.5441 F   0  0  0  0  0  0  0  0  0  0  0  0
  1  2  1  0
  2 18  1  0
  3 18  1  0
  3  4  1  0
  5 20  1  0
  6 20  1  0
  6 24  1  0
  7  8  1  0
  7  4  1  0
  9 22  1  0
 10 22  1  0
 10 11  1  0
 12 13  2  0
 14 15  2  0
 16 11  2  0
 17  5  1  0
 17 25  1  0
 17 26  1  0
 17 27  1  0
 24  9  1  0
  3 19  2  0
  4  5  2  0
  6  7  2  0
  9 21  2  0
 11 12  1  0
 13 14  1  0
 15 16  1  0
  8 23  3  0
M  END
>  <rmsd>  (747) 
0.20491989

$$$$
MolPort-008-295-419 17030887 CSSS00160395729 ChemDiv-Y200-4684 MCULE-7472541371 PubChem-17349438 ZINC000017030887 ZINC17030887
     RDKit          3D

 22 23  0  0  0  0  0  0  0  0999 V2000
   12.8385   39.2403   11.8309 C   0  0  0  0  0  0  0  0  0  0  0  0
   13.9914   38.9471   10.8939 C   0  0  0  0  0  0  0  0  0  0  0  0
   15.0354   40.7208    9.5408 C   0  0  0  0  0  0  0  0  0  0  0  0
   14.9542   41.6629    8.4064 C   0  0  0  0  0  0  0  0  0  0  0  0
   15.9190   42.5743    7.9910 C   0  0  0  0  0  0  0  0  0  0  0  0
   17.2564   42.7960    8.6090 C   0  0  0  0  0  0  0  0  0  0  0  0
   14.2846   42.8162    6.6481 C   0  0  0  0  0  0  0  0  0  0  0  0
   13.9087   44.3377    4.6604 C   0  0  0  0  0  0  0  0  0  0  0  0
   13.0117   44.7685    3.5825 C   0  0  0  0  0  0  0  0  0  0  0  0
   11.3546   44.9974    2.2409 C   0  0  0  0  0  0  0  0  0  0  0  0
   10.0517   44.8711    1.5367 C   0  0  0  0  0  0  0  0  0  0  0  0
   11.7459   44.2599    3.3404 C   0  0  0  0  0  0  0  0  0  0  0  0
   13.8965   41.8282    7.5272 C   0  0  0  0  0  0  0  0  0  0  0  0
   12.6395   41.1250    7.5172 C   0  0  0  0  0  0  0  0  0  0  0  0
   13.9661   39.8640    9.8104 O   0  0  0  0  0  0  0  0  0  0  0  0
   16.0683   40.6909   10.2642 O   0  0  0  0  0  0  0  0  0  0  0  0
   15.4906   43.2441    6.9440 O   0  0  0  0  0  0  0  0  0  0  0  0
   15.0418   44.8768    4.7810 O   0  0  0  0  0  0  0  0  0  0  0  0
   12.3003   45.8360    1.8962 O   0  0  0  0  0  0  0  0  0  0  0  0
   13.4904   43.3099    5.5651 N   0  0  0  0  0  0  0  0  0  0  0  0
   13.3231   45.7263    2.6882 N   0  0  0  0  0  0  0  0  0  0  0  0
   11.6294   40.5605    7.5087 N   0  0  0  0  0  0  0  0  0  0  0  0
  1  2  1  0
  2 15  1  0
  3 15  1  0
  3  4  1  0
  5 17  1  0
  6  5  1  0
  7 17  1  0
  7 20  1  0
  8  9  1  0
 10 19  1  0
 11 10  1  0
 12  9  1  0
 13 14  1  0
 13  4  1  0
 20  8  1  0
 21 19  1  0
  3 16  2  0
  4  5  2  0
  7 13  2  0
  8 18  2  0
  9 21  2  0
 10 12  2  0
 14 22  3  0
M  END
>  <rmsd>  (748) 
0.204029962

$$$$
MolPort-008-295-443 17068714 CSSS00160395868 MCULE-4790383783 PubChem-17349465 ZINC000017068714 ZINC17068714
     RDKit          3D

 23 24  0  0  0  0  0  0  0  0999 V2000
   12.8409   39.2440   11.8323 C   0  0  0  0  0  0  0  0  0  0  0  0
   13.9931   38.9499   10.8946 C   0  0  0  0  0  0  0  0  0  0  0  0
   15.0368   40.7227    9.5401 C   0  0  0  0  0  0  0  0  0  0  0  0
   14.9554   41.6646    8.4056 C   0  0  0  0  0  0  0  0  0  0  0  0
   15.9203   42.5755    7.9891 C   0  0  0  0  0  0  0  0  0  0  0  0
   17.2581   42.7967    8.6061 C   0  0  0  0  0  0  0  0  0  0  0  0
   14.2850   42.8176    6.6475 C   0  0  0  0  0  0  0  0  0  0  0  0
   13.9069   44.3391    4.6580 C   0  0  0  0  0  0  0  0  0  0  0  0
   13.0056   44.7718    3.5763 C   0  0  0  0  0  0  0  0  0  0  0  0
   13.3940   45.7752    2.6789 C   0  0  0  0  0  0  0  0  0  0  0  0
   11.3257   45.6088    1.5250 C   0  0  0  0  0  0  0  0  0  0  0  0
   10.8962   44.6055    2.3955 C   0  0  0  0  0  0  0  0  0  0  0  0
   11.7422   44.1881    3.4238 C   0  0  0  0  0  0  0  0  0  0  0  0
   13.8970   41.8302    7.5270 C   0  0  0  0  0  0  0  0  0  0  0  0
   12.6397   41.1276    7.5181 C   0  0  0  0  0  0  0  0  0  0  0  0
   13.9675   39.8666    9.8108 O   0  0  0  0  0  0  0  0  0  0  0  0
   16.0702   40.6927   10.2628 O   0  0  0  0  0  0  0  0  0  0  0  0
   15.4914   43.2450    6.9422 O   0  0  0  0  0  0  0  0  0  0  0  0
   15.0422   44.8751    4.7819 O   0  0  0  0  0  0  0  0  0  0  0  0
   13.4900   43.3112    5.5649 N   0  0  0  0  0  0  0  0  0  0  0  0
   12.5550   46.1684    1.6830 N   0  0  0  0  0  0  0  0  0  0  0  0
   11.6294   40.5635    7.5104 N   0  0  0  0  0  0  0  0  0  0  0  0
   10.2803   46.1471    0.2287 Cl  0  0  0  0  0  0  0  0  0  0  0  0
  1  2  1  0
  2 16  1  0
  3 16  1  0
  3  4  1  0
  5 18  1  0
  6  5  1  0
  7 18  1  0
  7 20  1  0
  8  9  1  0
 10 21  2  0
 11 23  1  0
 11 12  2  0
 13  9  2  0
 14 15  1  0
 14  4  1  0
 20  8  1  0
  3 17  2  0
  4  5  2  0
  7 14  2  0
  8 19  2  0
  9 10  1  0
 11 21  1  0
 12 13  1  0
 15 22  3  0
M  END
>  <rmsd>  (749) 
0.203955457

$$$$
MolPort-005-023-412 12001415 CHEMBL1444492 CSSS00159758377 MCULE-4216270797 PubChem-24790322 ZINC000012001415
     RDKit          3D

 30 33  0  0  0  0  0  0  0  0999 V2000
   15.0022   47.7193    2.1131 C   0  0  0  0  0  0  0  0  0  0  0  0
   13.3210   46.0466    2.8382 C   0  0  0  0  0  0  0  0  0  0  0  0
   12.9703   44.9617    3.6790 C   0  0  0  0  0  0  0  0  0  0  0  0
   11.6920   44.3930    3.5587 C   0  0  0  0  0  0  0  0  0  0  0  0
   10.7725   44.8824    2.6288 C   0  0  0  0  0  0  0  0  0  0  0  0
   11.1185   45.9510    1.8030 C   0  0  0  0  0  0  0  0  0  0  0  0
   12.3838   46.5293    1.9072 C   0  0  0  0  0  0  0  0  0  0  0  0
   13.8994   44.4035    4.6910 C   0  0  0  0  0  0  0  0  0  0  0  0
   14.2311   42.7202    6.5805 C   0  0  0  0  0  0  0  0  0  0  0  0
   15.4857   43.1084    7.0113 C   0  0  0  0  0  0  0  0  0  0  0  0
   15.7522   42.2334    8.0581 C   0  0  0  0  0  0  0  0  0  0  0  0
   12.4953   41.0347    7.1946 C   0  0  0  0  0  0  0  0  0  0  0  0
   12.6327   39.5042    7.2285 C   0  0  0  0  0  0  0  0  0  0  0  0
   12.2749   38.9090    8.5929 C   0  0  0  0  0  0  0  0  0  0  0  0
   12.4674   39.1424   10.9158 C   0  0  0  0  0  0  0  0  0  0  0  0
   13.5046   39.6152   11.9251 C   0  0  0  0  0  0  0  0  0  0  0  0
   14.9125   39.1819   11.5178 C   0  0  0  0  0  0  0  0  0  0  0  0
   15.2841   37.7757   11.9944 C   0  0  0  0  0  0  0  0  0  0  0  0
   14.4163   36.6911   11.3759 C   0  0  0  0  0  0  0  0  0  0  0  0
   13.9049   35.8390   12.5226 C   0  0  0  0  0  0  0  0  0  0  0  0
   14.7366   36.2078   13.7336 C   0  0  0  0  0  0  0  0  0  0  0  0
   15.1793   37.6330   13.4997 C   0  0  0  0  0  0  0  0  0  0  0  0
   11.6947   40.9611    9.6390 C   0  0  0  0  0  0  0  0  0  0  0  0
   11.5078   41.5724    8.2386 C   0  0  0  0  0  0  0  0  0  0  0  0
   14.5900   46.6322    2.9315 O   0  0  0  0  0  0  0  0  0  0  0  0
   15.0591   44.8793    4.8265 O   0  0  0  0  0  0  0  0  0  0  0  0
   13.4700   43.3139    5.5208 N   0  0  0  0  0  0  0  0  0  0  0  0
   14.7110   41.3912    8.2233 N   0  0  0  0  0  0  0  0  0  0  0  0
   13.7962   41.6885    7.3176 N   0  0  0  0  0  0  0  0  0  0  0  0
   12.6407   39.8413    9.6529 N   0  0  0  0  0  0  0  0  0  0  0  0
  1 25  1  0
  2 25  1  0
  3  4  2  0
  3  8  1  0
  5  6  2  0
  7  2  2  0
  8 27  1  0
 10 11  1  0
 12 29  1  0
 12 13  1  0
 13 14  1  0
 14 30  1  0
 15 30  1  0
 15 16  1  0
 16 17  1  0
 17 18  1  0
 18 19  1  0
 19 20  1  0
 20 21  1  0
 21 22  1  0
 22 18  1  0
 23 30  1  0
 23 24  1  0
 24 12  1  0
 27  9  1  0
 29 28  1  0
 29  9  1  0
  2  3  1  0
  4  5  1  0
  6  7  1  0
  8 26  2  0
  9 10  2  0
 11 28  2  0
M  END
>  <rmsd>  (750) 
0.20387952

$$$$
MolPort-005-289-825 5952430 CSSS03437130174 MCULE-4036785831 PubChem-17028188 ZINC000005952430
     RDKit          3D

 26 28  0  0  0  0  0  0  0  0999 V2000
   16.4501   40.8590   12.1930 C   0  0  0  0  0  0  0  0  0  0  0  0
   15.1865   41.4720   11.5876 C   0  0  0  0  0  0  0  0  0  0  0  0
   14.1970   39.3296   11.1518 C   0  0  0  0  0  0  0  0  0  0  0  0
   12.7671   39.3637   11.6552 C   0  0  0  0  0  0  0  0  0  0  0  0
   15.4711   40.3857    9.4690 C   0  0  0  0  0  0  0  0  0  0  0  0
   15.2070   41.3570    8.3644 C   0  0  0  0  0  0  0  0  0  0  0  0
   16.0781   42.3337    7.8539 C   0  0  0  0  0  0  0  0  0  0  0  0
   14.2761   42.7020    6.5525 C   0  0  0  0  0  0  0  0  0  0  0  0
   13.8912   44.3918    4.6938 C   0  0  0  0  0  0  0  0  0  0  0  0
   12.9667   44.9311    3.6811 C   0  0  0  0  0  0  0  0  0  0  0  0
   11.6801   44.3912    3.5371 C   0  0  0  0  0  0  0  0  0  0  0  0
   10.8022   44.9022    2.5764 C   0  0  0  0  0  0  0  0  0  0  0  0
   11.2045   45.9569    1.7528 C   0  0  0  0  0  0  0  0  0  0  0  0
   12.4844   46.5009    1.8893 C   0  0  0  0  0  0  0  0  0  0  0  0
   13.3624   45.9900    2.8499 C   0  0  0  0  0  0  0  0  0  0  0  0
   17.4632   42.5869    8.3207 C   0  0  0  0  0  0  0  0  0  0  0  0
   18.0823   41.7693    9.2788 C   0  0  0  0  0  0  0  0  0  0  0  0
   19.3904   42.0267    9.6984 C   0  0  0  0  0  0  0  0  0  0  0  0
   20.0961   43.1055    9.1612 C   0  0  0  0  0  0  0  0  0  0  0  0
   19.4934   43.9253    8.2043 C   0  0  0  0  0  0  0  0  0  0  0  0
   18.1850   43.6660    7.7864 C   0  0  0  0  0  0  0  0  0  0  0  0
   14.5485   40.6205   10.5735 N   0  0  0  0  0  0  0  0  0  0  0  0
   15.5402   43.0765    6.8456 N   0  0  0  0  0  0  0  0  0  0  0  0
   13.4732   43.3095    5.5363 N   0  0  0  0  0  0  0  0  0  0  0  0
   15.0460   44.8850    4.8149 O   0  0  0  0  0  0  0  0  0  0  0  0
   13.7525   41.4372    7.5197 S   0  0  0  0  0  0  0  0  0  0  0  0
  1  2  1  0
  2 22  1  0
  3 22  1  0
  3  4  1  0
  5 22  1  0
  5  6  1  0
  6 26  1  0
  7 23  1  0
  7 16  1  0
  8 24  1  0
  8 26  1  0
  9 10  1  0
 11 12  2  0
 13 14  2  0
 15 10  2  0
 17 18  2  0
 19 20  2  0
 21 16  2  0
 24  9  1  0
  6  7  2  0
  8 23  2  0
  9 25  2  0
 10 11  1  0
 12 13  1  0
 14 15  1  0
 16 17  1  0
 18 19  1  0
 20 21  1  0
M  END
>  <rmsd>  (751) 
0.203700945

$$$$
MolPort-005-112-484 CSSS00159534780 MCULE-5873997542
     RDKit          3D

 35 40  0  0  0  0  0  0  0  0999 V2000
   16.5570   39.7492   10.5860 C   0  0  0  0  0  0  0  0  0  0  0  0
   18.0217   39.9645   10.3655 C   0  0  1  0  0  0  0  0  0  0  0  0
   18.7994   38.7548   10.8532 C   0  0  0  0  0  0  0  0  0  0  0  0
   19.2361   37.9941    9.6082 C   0  0  0  0  0  0  0  0  0  0  0  0
   19.1091   38.9640    8.4488 C   0  0  0  0  0  0  0  0  0  0  0  0
   18.0097   41.2193    8.1419 C   0  0  0  0  0  0  0  0  0  0  0  0
   17.2019   42.3520    8.6925 C   0  0  0  0  0  0  0  0  0  0  0  0
   15.5911   43.1077    6.9609 C   0  0  0  0  0  0  0  0  0  0  0  0
   14.2758   42.8084    6.6726 C   0  0  0  0  0  0  0  0  0  0  0  0
   13.8348   41.8989    7.6114 C   0  0  0  0  0  0  0  0  0  0  0  0
   13.9245   44.2958    4.6380 C   0  0  0  0  0  0  0  0  0  0  0  0
   13.0593   44.6492    3.4992 C   0  0  0  0  0  0  0  0  0  0  0  0
   13.4579   45.6596    2.5894 C   0  0  0  0  0  0  0  0  0  0  0  0
   12.6470   46.0042    1.4935 C   0  0  0  0  0  0  0  0  0  0  0  0
   11.4485   45.3146    1.3401 C   0  0  0  0  0  0  0  0  0  0  0  0
   11.0583   44.3453    2.2057 C   0  0  0  0  0  0  0  0  0  0  0  0
    9.4359   44.5290    0.6162 C   0  0  0  0  0  0  0  0  0  0  0  0
   11.8324   43.9790    3.3036 C   0  0  0  0  0  0  0  0  0  0  0  0
   14.6172   39.9594   11.3714 C   0  0  0  0  0  0  0  0  0  0  0  0
   14.6052   38.9781   10.4279 C   0  0  0  0  0  0  0  0  0  0  0  0
   13.4430   38.2893   10.0902 C   0  0  0  0  0  0  0  0  0  0  0  0
   12.2618   38.6400   10.7708 C   0  0  0  0  0  0  0  0  0  0  0  0
   12.2754   39.6578   11.7513 C   0  0  0  0  0  0  0  0  0  0  0  0
   13.4688   40.3358   12.0629 C   0  0  0  0  0  0  0  0  0  0  0  0
   18.3202   40.0726    8.9476 N   0  0  0  0  0  0  0  0  0  0  0  0
   15.8954   42.3914    8.0564 N   0  0  0  0  0  0  0  0  0  0  0  0
   14.8628   41.6627    8.4492 N   0  0  0  0  0  0  0  0  0  0  0  0
   13.4950   43.3028    5.5798 N   0  0  0  0  0  0  0  0  0  0  0  0
   15.8508   40.4682   11.4964 N   0  0  0  0  0  0  0  0  0  0  0  0
   15.8304   38.8191    9.9087 N   0  0  0  0  0  0  0  0  0  0  0  0
   18.4192   41.2829    6.9517 O   0  0  0  0  0  0  0  0  0  0  0  0
   15.0369   44.8735    4.7825 O   0  0  0  0  0  0  0  0  0  0  0  0
    9.8377   43.8370    1.8073 O   0  0  0  0  0  0  0  0  0  0  0  0
   10.4927   45.4635    0.3549 O   0  0  0  0  0  0  0  0  0  0  0  0
   11.1026   38.0056   10.4760 F   0  0  0  0  0  0  0  0  0  0  0  0
  1 29  1  0
  2  1  1  6
  2  3  1  0
  2 25  1  0
  3  4  1  0
  4  5  1  0
  5 25  1  0
  7  6  1  0
  7 26  1  0
  9 10  1  0
  9 28  1  0
 11 12  1  0
 13 14  2  0
 15 16  2  0
 15 34  1  0
 16 33  1  0
 17 33  1  0
 17 34  1  0
 18 12  2  0
 20 21  2  0
 20 30  1  0
 22 23  2  0
 22 35  1  0
 24 19  2  0
 25  6  1  0
 26  8  1  0
 26 27  1  0
 28 11  1  0
 29 19  1  0
  1 30  2  0
  6 31  2  0
  8  9  2  0
 10 27  2  0
 11 32  2  0
 12 13  1  0
 14 15  1  0
 16 18  1  0
 19 20  1  0
 21 22  1  0
 23 24  1  0
M  END
>  <rmsd>  (752) 
0.203432187

$$$$
MolPort-007-595-937 CSSS00025689140 MCULE-2591272368 PubChem-22423742
     RDKit          3D

 19 20  0  0  0  0  0  0  0  0999 V2000
   13.4834   39.4307   11.2674 C   0  0  0  0  0  0  0  0  0  0  0  0
   13.4482   40.4342   10.1346 C   0  0  1  0  0  0  0  0  0  0  0  0
   14.5656   40.1222    9.1528 C   0  0  0  0  0  0  0  0  0  0  0  0
   14.7981   41.2655    8.2227 C   0  0  0  0  0  0  0  0  0  0  0  0
   14.2765   42.6932    6.5690 C   0  0  0  0  0  0  0  0  0  0  0  0
   13.8775   44.4057    4.7129 C   0  0  0  0  0  0  0  0  0  0  0  0
   12.9490   44.9596    3.6975 C   0  0  0  0  0  0  0  0  0  0  0  0
   11.5401   44.7989    3.7487 C   0  0  0  0  0  0  0  0  0  0  0  0
   10.7413   45.3462    2.7386 C   0  0  0  0  0  0  0  0  0  0  0  0
   11.3143   46.0519    1.6805 C   0  0  0  0  0  0  0  0  0  0  0  0
   12.6963   46.2235    1.6273 C   0  0  0  0  0  0  0  0  0  0  0  0
   13.5042   45.6831    2.6290 C   0  0  0  0  0  0  0  0  0  0  0  0
   12.2124   40.3571    9.4914 O   0  0  0  0  0  0  0  0  0  0  0  0
   15.0400   44.8856    4.8088 O   0  0  0  0  0  0  0  0  0  0  0  0
   15.9758   41.9502    8.2365 N   0  0  0  0  0  0  0  0  0  0  0  0
   13.4842   43.3085    5.5470 N   0  0  0  0  0  0  0  0  0  0  0  0
   13.8501   41.6533    7.3122 N   0  0  0  0  0  0  0  0  0  0  0  0
   15.8139   43.1053    7.0530 S   0  0  0  0  0  0  0  0  0  0  0  0
   10.7008   43.9895    5.0651 Cl  0  0  0  0  0  0  0  0  0  0  0  0
  2  1  1  1
  2 13  1  0
  2  3  1  0
  3  4  1  0
  4 17  1  0
  5 18  1  0
  5 16  1  0
  6  7  1  0
  8 19  1  0
  8  9  2  0
 10 11  2  0
 12  7  2  0
 15 18  1  0
 16  6  1  0
  4 15  2  0
  5 17  2  0
  6 14  2  0
  7  8  1  0
  9 10  1  0
 11 12  1  0
M  END
>  <rmsd>  (753) 
0.203366101

$$$$
MolPort-018-616-241 96190568 CSSS02267491935 MCULE-5501081623 PubChem-12828310
     RDKit          3D

 17 17  0  0  0  0  0  0  0  0999 V2000
   13.2500   39.1844   11.1675 C   0  0  0  0  0  0  0  0  0  0  0  0
   14.6826   40.4507    9.6168 C   0  0  0  0  0  0  0  0  0  0  0  0
   14.8221   41.3916    8.4905 C   0  0  0  0  0  0  0  0  0  0  0  0
   13.8648   41.7655    7.5382 C   0  0  0  0  0  0  0  0  0  0  0  0
   12.5372   41.1351    7.3806 C   0  0  0  0  0  0  0  0  0  0  0  0
   10.1696   41.3349    6.7349 C   0  0  0  0  0  0  0  0  0  0  0  0
   14.3263   42.7843    6.6762 C   0  0  0  0  0  0  0  0  0  0  0  0
   13.8925   44.3290    4.6811 C   0  0  0  0  0  0  0  0  0  0  0  0
   12.9320   44.7389    3.6243 C   0  0  0  0  0  0  0  0  0  0  0  0
   15.6326   43.2090    6.9185 C   0  0  0  0  0  0  0  0  0  0  0  0
   13.4190   40.0739   10.0741 O   0  0  0  0  0  0  0  0  0  0  0  0
   15.7185   40.0238   10.1967 O   0  0  0  0  0  0  0  0  0  0  0  0
   12.3870   39.9060    7.6203 O   0  0  0  0  0  0  0  0  0  0  0  0
   11.4598   41.8962    6.9223 O   0  0  0  0  0  0  0  0  0  0  0  0
   15.0168   44.8923    4.7464 O   0  0  0  0  0  0  0  0  0  0  0  0
   13.5194   43.3022    5.6074 N   0  0  0  0  0  0  0  0  0  0  0  0
   16.1990   42.3139    8.2207 S   0  0  0  0  0  0  0  0  0  0  0  0
  1 11  1  0
  2 11  1  0
  2  3  1  0
  3 17  1  0
  4  5  1  0
  4  7  1  0
  5 14  1  0
  6 14  1  0
  7 16  1  0
  9  8  1  0
 10 17  1  0
 16  8  1  0
  2 12  2  0
  3  4  2  0
  5 13  2  0
  7 10  2  0
  8 15  2  0
M  END
>  <rmsd>  (754) 
0.203004271

$$$$
MolPort-005-100-458 12467958 CHEMBL1308785 CSSS00159514878 PubChem-24819002 ZINC000012467958
     RDKit          3D

 28 31  0  0  0  0  0  0  0  0999 V2000
   15.0618   44.8802    4.8147 O   0  0  0  0  0  0  0  0  0  0  0  0
   13.9185   44.3670    4.6678 C   0  0  0  0  0  0  0  0  0  0  0  0
   14.2175   42.7454    6.6090 C   0  0  0  0  0  0  0  0  0  0  0  0
   15.4804   43.1239    7.0250 C   0  0  0  0  0  0  0  0  0  0  0  0
   15.7292   42.2833    8.1043 C   0  0  0  0  0  0  0  0  0  0  0  0
   12.4523   41.1121    7.2776 C   0  0  0  0  0  0  0  0  0  0  0  0
   11.4718   41.6951    8.3051 C   0  0  0  0  0  0  0  0  0  0  0  0
   11.6222   41.0969    9.7163 C   0  0  0  0  0  0  0  0  0  0  0  0
   12.4116   39.3400   11.0546 C   0  0  0  0  0  0  0  0  0  0  0  0
   13.7127   38.7797   11.5237 C   0  0  0  0  0  0  0  0  0  0  0  0
   14.7379   39.5807   11.7993 C   0  0  0  0  0  0  0  0  0  0  0  0
   16.0398   39.0751   12.2555 C   0  0  0  0  0  0  0  0  0  0  0  0
   16.2814   37.7016   12.4232 C   0  0  0  0  0  0  0  0  0  0  0  0
   17.5332   37.2547   12.8562 C   0  0  0  0  0  0  0  0  0  0  0  0
   18.5497   38.1761   13.1232 C   0  0  0  0  0  0  0  0  0  0  0  0
   18.3143   39.5441   12.9572 C   0  0  0  0  0  0  0  0  0  0  0  0
   17.0623   39.9917   12.5241 C   0  0  0  0  0  0  0  0  0  0  0  0
   12.2199   39.0247    8.7333 C   0  0  0  0  0  0  0  0  0  0  0  0
   12.5693   39.5804    7.3508 C   0  0  0  0  0  0  0  0  0  0  0  0
   13.0122   44.8517    3.5837 C   0  0  0  0  0  0  0  0  0  0  0  0
   13.6410   44.6644    2.2139 C   0  0  0  0  0  0  0  0  0  0  0  0
   13.4789   45.9814    1.4737 C   0  0  0  0  0  0  0  0  0  0  0  0
   12.5677   46.8444    2.3208 C   0  0  0  0  0  0  0  0  0  0  0  0
   12.7238   46.3304    3.7325 C   0  0  0  0  0  0  0  0  0  0  0  0
   13.4699   43.3124    5.5254 N   0  0  0  0  0  0  0  0  0  0  0  0
   14.6714   41.4680    8.2996 N   0  0  0  0  0  0  0  0  0  0  0  0
   13.7622   41.7513    7.3840 N   0  0  0  0  0  0  0  0  0  0  0  0
   12.5802   39.9913    9.7653 N   0  0  0  0  0  0  0  0  0  0  0  0
  2 25  1  0
  4  5  1  0
  6 27  1  0
  6  7  1  0
  7  8  1  0
  8 28  1  0
  9 28  1  0
  9 10  1  0
 11 12  1  0
 13 14  2  0
 15 16  2  0
 17 12  2  0
 18 28  1  0
 18 19  1  0
 19  6  1  0
 20  2  1  0
 20 21  1  0
 21 22  1  0
 22 23  1  0
 23 24  1  0
 24 20  1  0
 25  3  1  0
 27 26  1  0
 27  3  1  0
  2  1  2  0
  3  4  2  0
  5 26  2  0
 10 11  2  0
 12 13  1  0
 14 15  1  0
 16 17  1  0
M  END
>  <rmsd>  (755) 
0.202846587

$$$$
MolPort-002-624-954 2447586 LN00658684 PubChem-1621928 ZINC000002447586 ZINC02447586
     RDKit          3D

 29 32  0  0  0  0  0  0  0  0999 V2000
   12.8189   38.9962   11.4749 C   0  0  0  0  0  0  0  0  0  0  0  0
   14.3096   39.2171   11.2997 C   0  0  0  0  0  0  0  0  0  0  0  0
   14.5989   39.8251    9.9392 C   0  0  0  0  0  0  0  0  0  0  0  0
   14.2279   41.2997    9.9271 C   0  0  0  0  0  0  0  0  0  0  0  0
   14.2006   42.8092    6.6880 C   0  0  0  0  0  0  0  0  0  0  0  0
   14.0039   44.2186    4.5692 C   0  0  0  0  0  0  0  0  0  0  0  0
   13.2340   44.4521    3.3151 C   0  0  0  0  0  0  0  0  0  0  0  0
   11.2269   45.6987    4.0850 C   0  0  0  0  0  0  0  0  0  0  0  0
   10.6226   44.5490    4.6205 C   0  0  0  0  0  0  0  0  0  0  0  0
    9.3893   44.6392    5.2721 C   0  0  0  0  0  0  0  0  0  0  0  0
    8.7514   45.8769    5.3910 C   0  0  0  0  0  0  0  0  0  0  0  0
    9.3464   47.0237    4.8578 C   0  0  0  0  0  0  0  0  0  0  0  0
   10.5803   46.9335    4.2064 C   0  0  0  0  0  0  0  0  0  0  0  0
   15.5690   42.6357    6.8267 C   0  0  0  0  0  0  0  0  0  0  0  0
   16.6646   42.8600    6.0005 C   0  0  0  0  0  0  0  0  0  0  0  0
   17.9275   42.5001    6.5017 C   0  0  0  0  0  0  0  0  0  0  0  0
   19.0714   42.7104    5.7298 C   0  0  0  0  0  0  0  0  0  0  0  0
   20.3263   42.3510    6.2273 C   0  0  0  0  0  0  0  0  0  0  0  0
   20.4446   41.7789    7.4974 C   0  0  0  0  0  0  0  0  0  0  0  0
   19.3116   41.5580    8.2870 C   0  0  0  0  0  0  0  0  0  0  0  0
   19.4808   40.9431    9.6345 C   0  0  0  0  0  0  0  0  0  0  0  0
   18.0418   41.9146    7.8023 C   0  0  0  0  0  0  0  0  0  0  0  0
   15.7135   42.0612    8.0547 C   0  0  0  0  0  0  0  0  0  0  0  0
   14.5097   41.8796    8.6225 N   0  0  0  0  0  0  0  0  0  0  0  0
   13.5758   42.3291    7.7917 N   0  0  0  0  0  0  0  0  0  0  0  0
   13.4900   43.3136    5.5508 N   0  0  0  0  0  0  0  0  0  0  0  0
   16.9198   41.6978    8.5569 N   0  0  0  0  0  0  0  0  0  0  0  0
   15.0531   44.8806    4.7831 O   0  0  0  0  0  0  0  0  0  0  0  0
   12.4597   45.6423    3.4255 O   0  0  0  0  0  0  0  0  0  0  0  0
  1  2  1  0
  2  3  1  0
  3  4  1  0
  4 24  1  0
  5 26  1  0
  5 14  1  0
  7  6  1  0
  7 29  1  0
  8 29  1  0
  9 10  2  0
 11 12  2  0
 13  8  2  0
 15 16  2  0
 17 18  2  0
 19 20  2  0
 21 20  1  0
 22 27  2  0
 22 16  1  0
 23 24  1  0
 23 14  2  0
 24 25  1  0
 26  6  1  0
  5 25  2  0
  6 28  2  0
  8  9  1  0
 10 11  1  0
 12 13  1  0
 14 15  1  0
 16 17  1  0
 18 19  1  0
 20 22  1  0
 23 27  1  0
M  END
>  <rmsd>  (756) 
0.202748492

$$$$
MolPort-007-723-368 ChemDiv-E157-4858 MCULE-2177005398 PubChem-22517954
     RDKit          3D

 24 26  0  0  0  0  0  0  0  0999 V2000
   14.0646   39.0148   11.9591 C   0  0  0  0  0  0  0  0  0  0  0  0
   13.1169   39.6165   10.9388 C   0  0  0  0  0  0  0  0  0  0  0  0
   13.6398   39.3942    9.5290 C   0  0  0  0  0  0  0  0  0  0  0  0
   14.6957   40.3924    9.1837 C   0  0  0  0  0  0  0  0  0  0  0  0
   15.7417   41.9495    8.2394 C   0  0  0  0  0  0  0  0  0  0  0  0
   14.2196   42.7009    6.5838 C   0  0  0  0  0  0  0  0  0  0  0  0
   13.9073   44.3874    4.6870 C   0  0  0  0  0  0  0  0  0  0  0  0
   12.9869   44.8912    3.6219 C   0  0  2  0  0  0  0  0  0  0  0  0
   13.2758   44.2329    2.2715 C   0  0  0  0  0  0  0  0  0  0  0  0
   14.6074   44.6793    1.6885 C   0  0  0  0  0  0  0  0  0  0  0  0
   12.0569   47.0885    2.9191 C   0  0  0  0  0  0  0  0  0  0  0  0
   10.8899   46.5114    2.3914 C   0  0  0  0  0  0  0  0  0  0  0  0
    9.9194   47.3136    1.7843 C   0  0  0  0  0  0  0  0  0  0  0  0
   10.1078   48.6958    1.7019 C   0  0  0  0  0  0  0  0  0  0  0  0
   11.2663   49.2757    2.2268 C   0  0  0  0  0  0  0  0  0  0  0  0
   12.2370   48.4734    2.8341 C   0  0  0  0  0  0  0  0  0  0  0  0
   15.9150   40.4955    9.7792 N   0  0  0  0  0  0  0  0  0  0  0  0
   16.5841   41.4890    9.1797 N   0  0  0  0  0  0  0  0  0  0  0  0
   13.4716   43.3121    5.5260 N   0  0  0  0  0  0  0  0  0  0  0  0
   13.7083   41.6735    7.3200 N   0  0  0  0  0  0  0  0  0  0  0  0
   14.6060   41.3085    8.2202 N   0  0  0  0  0  0  0  0  0  0  0  0
   15.8210   43.1477    7.0730 S   0  0  0  0  0  0  0  0  0  0  0  0
   15.0563   44.8894    4.8147 O   0  0  0  0  0  0  0  0  0  0  0  0
   13.0458   46.3142    3.5355 O   0  0  0  0  0  0  0  0  0  0  0  0
  1  2  1  0
  2  3  1  0
  3  4  1  0
  5 22  1  0
  6 22  1  0
  6 19  1  0
  8  7  1  0
  8  9  1  6
  8 24  1  0
  9 10  1  0
 11 24  1  0
 12 13  2  0
 14 15  2  0
 16 11  2  0
 17 18  1  0
 19  7  1  0
 21 20  1  0
 21  4  1  0
 21  5  1  0
  4 17  2  0
  5 18  2  0
  6 20  2  0
  7 23  2  0
 11 12  1  0
 13 14  1  0
 15 16  1  0
M  END
>  <rmsd>  (757) 
0.202567473

$$$$
MolPort-003-082-981 4341995 CSSS03437176986 PubChem-7200178 ZINC000004341995
     RDKit          3D

 27 29  0  0  0  0  0  0  0  0999 V2000
   13.7282   38.6816   11.3359 C   0  0  0  0  0  0  0  0  0  0  0  0
   13.1537   40.0556   11.6096 C   0  0  0  0  0  0  0  0  0  0  0  0
   10.7107   40.5134   11.2669 C   0  0  0  0  0  0  0  0  0  0  0  0
   10.8440   41.2158   10.0389 C   0  0  0  0  0  0  0  0  0  0  0  0
   12.4314   42.0405    8.1877 C   0  0  0  0  0  0  0  0  0  0  0  0
   13.8217   42.0636    7.7127 C   0  0  0  0  0  0  0  0  0  0  0  0
   14.2966   42.6631    6.5486 C   0  0  0  0  0  0  0  0  0  0  0  0
   13.9466   44.2968    4.6206 C   0  0  0  0  0  0  0  0  0  0  0  0
   13.0907   44.6397    3.4807 C   0  0  0  0  0  0  0  0  0  0  0  0
   13.4388   45.5628    2.5936 C   0  0  0  0  0  0  0  0  0  0  0  0
   12.5373   45.8755    1.4545 C   0  0  0  0  0  0  0  0  0  0  0  0
   15.6508   42.3944    6.5221 C   0  0  0  0  0  0  0  0  0  0  0  0
   16.6437   42.6672    5.5821 C   0  0  0  0  0  0  0  0  0  0  0  0
   17.9462   42.2156    5.8592 C   0  0  0  0  0  0  0  0  0  0  0  0
   18.2209   41.5008    7.0451 C   0  0  0  0  0  0  0  0  0  0  0  0
   17.1950   41.2201    7.9651 C   0  0  0  0  0  0  0  0  0  0  0  0
   15.9145   41.6786    7.6645 C   0  0  0  0  0  0  0  0  0  0  0  0
    9.6962   41.7523    9.4333 C   0  0  0  0  0  0  0  0  0  0  0  0
    8.4388   41.6029   10.0182 C   0  0  0  0  0  0  0  0  0  0  0  0
    8.3103   40.9102   11.2200 C   0  0  0  0  0  0  0  0  0  0  0  0
    9.4395   40.3702   11.8362 C   0  0  0  0  0  0  0  0  0  0  0  0
   11.7835   39.9358   11.9654 O   0  0  0  0  0  0  0  0  0  0  0  0
   11.5263   42.6110    7.5218 O   0  0  0  0  0  0  0  0  0  0  0  0
   15.0374   44.9018    4.8049 O   0  0  0  0  0  0  0  0  0  0  0  0
   14.8196   41.4924    8.3640 O   0  0  0  0  0  0  0  0  0  0  0  0
   12.1291   41.3636    9.4153 N   0  0  0  0  0  0  0  0  0  0  0  0
   13.4950   43.3063    5.5482 N   0  0  0  0  0  0  0  0  0  0  0  0
  1  2  1  0
  2 22  1  0
  3 22  1  0
  4 26  1  0
  4 18  2  0
  5  6  1  0
  6 25  1  0
  7 27  1  0
  7 12  1  0
  8  9  1  0
 11 10  1  0
 13 14  2  0
 15 16  2  0
 17 25  1  0
 17 12  2  0
 19 20  2  0
 21  3  2  0
 26  5  1  0
 27  8  1  0
  3  4  1  0
  5 23  2  0
  6  7  2  0
  8 24  2  0
  9 10  2  0
 12 13  1  0
 14 15  1  0
 16 17  1  0
 18 19  1  0
 20 21  1  0
M  END
>  <rmsd>  (758) 
0.202487409

$$$$
MolPort-007-723-438 6818289 ChemDiv-E157-5455 MCULE-8623262614 PubChem-22518003 ZINC000006818289 ZINC06818289
     RDKit          3D

 26 28  0  0  0  0  0  0  0  0999 V2000
   13.5239   39.2715   11.2308 C   0  0  0  0  0  0  0  0  0  0  0  0
   13.5622   41.7659   11.5615 C   0  0  0  0  0  0  0  0  0  0  0  0
   14.1490   43.0226   11.3378 C   0  0  0  0  0  0  0  0  0  0  0  0
   13.6021   44.1766   11.9052 C   0  0  0  0  0  0  0  0  0  0  0  0
   12.4606   44.0878   12.7049 C   0  0  0  0  0  0  0  0  0  0  0  0
   11.8665   42.8453   12.9370 C   0  0  0  0  0  0  0  0  0  0  0  0
   12.4140   41.6917   12.3688 C   0  0  0  0  0  0  0  0  0  0  0  0
   15.1372   41.6330    8.5255 C   0  0  0  0  0  0  0  0  0  0  0  0
   14.2383   42.7841    6.6370 C   0  0  0  0  0  0  0  0  0  0  0  0
   13.9113   44.3468    4.6594 C   0  0  0  0  0  0  0  0  0  0  0  0
   13.0258   44.8026    3.5735 C   0  0  0  0  0  0  0  0  0  0  0  0
   13.4408   45.8161    2.6968 C   0  0  0  0  0  0  0  0  0  0  0  0
   12.6000   46.2479    1.6669 C   0  0  0  0  0  0  0  0  0  0  0  0
   11.3380   45.6698    1.5059 C   0  0  0  0  0  0  0  0  0  0  0  0
   10.9167   44.6598    2.3748 C   0  0  0  0  0  0  0  0  0  0  0  0
   11.7575   44.2279    3.4047 C   0  0  0  0  0  0  0  0  0  0  0  0
   14.1225   40.5742   10.9736 N   0  0  0  0  0  0  0  0  0  0  0  0
   15.9804   42.5603    8.0220 N   0  0  0  0  0  0  0  0  0  0  0  0
   15.4803   43.2022    6.9681 N   0  0  0  0  0  0  0  0  0  0  0  0
   13.4740   43.3102    5.5481 N   0  0  0  0  0  0  0  0  0  0  0  0
   15.5055   40.6416    9.9218 S   0  0  0  0  0  0  0  0  0  0  0  0
   13.6916   41.5683    7.6633 S   0  0  0  0  0  0  0  0  0  0  0  0
   15.8687   39.2595    9.4553 O   0  0  0  0  0  0  0  0  0  0  0  0
   16.6699   41.2251   10.6717 O   0  0  0  0  0  0  0  0  0  0  0  0
   15.0499   44.8709    4.8022 O   0  0  0  0  0  0  0  0  0  0  0  0
   13.1282   47.5130    0.5792 Cl  0  0  0  0  0  0  0  0  0  0  0  0
  1 17  1  0
  3  4  2  0
  5  6  2  0
  7  2  2  0
  8 22  1  0
  9 20  1  0
  9 22  1  0
 10 11  1  0
 12 13  2  0
 13 26  1  0
 14 15  2  0
 16 11  2  0
 17  2  1  0
 18 19  1  0
 20 10  1  0
 21 17  1  0
 21  8  1  0
  2  3  1  0
  4  5  1  0
  6  7  1  0
  8 18  2  0
  9 19  2  0
 10 25  2  0
 11 12  1  0
 13 14  1  0
 15 16  1  0
 21 23  2  0
 21 24  2  0
M  END
>  <rmsd>  (759) 
0.201083824

$$$$
MolPort-007-723-444 6818296 ChemDiv-E157-5470 MCULE-6617565337 PubChem-22518008 ZINC000006818296 ZINC06818296
     RDKit          3D

 23 24  0  0  0  0  0  0  0  0999 V2000
   10.7120   45.5437    3.0304 C   0  0  0  0  0  0  0  0  0  0  0  0
   11.7434   45.4367    4.1332 C   0  0  0  0  0  0  0  0  0  0  0  0
   12.0296   46.8221    4.6817 C   0  0  0  0  0  0  0  0  0  0  0  0
   13.0145   44.8173    3.5736 C   0  0  0  0  0  0  0  0  0  0  0  0
   13.9123   44.3509    4.6697 C   0  0  0  0  0  0  0  0  0  0  0  0
   14.2362   42.7855    6.6415 C   0  0  0  0  0  0  0  0  0  0  0  0
   15.1315   41.6371    8.5332 C   0  0  0  0  0  0  0  0  0  0  0  0
   13.5183   39.2609   11.2266 C   0  0  0  0  0  0  0  0  0  0  0  0
   13.5365   41.7554   11.5586 C   0  0  0  0  0  0  0  0  0  0  0  0
   14.1160   43.0164   11.3399 C   0  0  0  0  0  0  0  0  0  0  0  0
   13.5571   44.1660   11.9044 C   0  0  0  0  0  0  0  0  0  0  0  0
   12.4108   44.0686   12.6960 C   0  0  0  0  0  0  0  0  0  0  0  0
   11.8238   42.8219   12.9232 C   0  0  0  0  0  0  0  0  0  0  0  0
   12.3832   41.6725   12.3579 C   0  0  0  0  0  0  0  0  0  0  0  0
   15.0514   44.8728    4.7979 O   0  0  0  0  0  0  0  0  0  0  0  0
   15.8730   39.2671    9.4641 O   0  0  0  0  0  0  0  0  0  0  0  0
   16.6539   41.2361   10.6882 O   0  0  0  0  0  0  0  0  0  0  0  0
   13.4742   43.3101    5.5504 N   0  0  0  0  0  0  0  0  0  0  0  0
   15.4724   43.2130    6.9821 N   0  0  0  0  0  0  0  0  0  0  0  0
   15.9705   42.5724    8.0377 N   0  0  0  0  0  0  0  0  0  0  0  0
   14.1090   40.5681   10.9736 N   0  0  0  0  0  0  0  0  0  0  0  0
   13.6921   41.5632    7.6615 S   0  0  0  0  0  0  0  0  0  0  0  0
   15.4979   40.6460    9.9303 S   0  0  0  0  0  0  0  0  0  0  0  0
  1  2  1  0
  2  3  1  0
  2  4  1  0
  4  5  1  0
  5 18  1  0
  6 22  1  0
  7 22  1  0
  8 21  1  0
 10 11  2  0
 12 13  2  0
 14  9  2  0
 18  6  1  0
 19 20  1  0
 21  9  1  0
 23  7  1  0
 23 21  1  0
  5 15  2  0
  6 19  2  0
  7 20  2  0
  9 10  1  0
 11 12  1  0
 13 14  1  0
 23 16  2  0
 23 17  2  0
M  END
>  <rmsd>  (760) 
0.201048568

$$$$
MolPort-002-607-856 2401556 PubChem-1635589 ZINC000002401556 ZINC02401556
     RDKit          3D

 26 29  0  0  0  0  0  0  0  0999 V2000
   12.8234   39.0104   11.4832 C   0  0  0  0  0  0  0  0  0  0  0  0
   14.3145   39.2198   11.2975 C   0  0  0  0  0  0  0  0  0  0  0  0
   14.5989   39.8243    9.9346 C   0  0  0  0  0  0  0  0  0  0  0  0
   14.2392   41.3017    9.9234 C   0  0  0  0  0  0  0  0  0  0  0  0
   14.2027   42.8083    6.6832 C   0  0  0  0  0  0  0  0  0  0  0  0
   14.0062   44.2169    4.5635 C   0  0  0  0  0  0  0  0  0  0  0  0
   13.2798   44.4174    3.3057 C   0  0  0  0  0  0  0  0  0  0  0  0
   12.1123   43.7791    2.9444 C   0  0  0  0  0  0  0  0  0  0  0  0
   11.8080   44.2817    1.6913 C   0  0  0  0  0  0  0  0  0  0  0  0
   12.8061   45.1878    1.3751 C   0  0  0  0  0  0  0  0  0  0  0  0
   15.5704   42.6238    6.8131 C   0  0  0  0  0  0  0  0  0  0  0  0
   16.6620   42.8374    5.9786 C   0  0  0  0  0  0  0  0  0  0  0  0
   17.9253   42.4674    6.4716 C   0  0  0  0  0  0  0  0  0  0  0  0
   19.0655   42.6667    5.6914 C   0  0  0  0  0  0  0  0  0  0  0  0
   20.3207   42.2973    6.1806 C   0  0  0  0  0  0  0  0  0  0  0  0
   20.4430   41.7259    7.4507 C   0  0  0  0  0  0  0  0  0  0  0  0
   19.3137   41.5158    8.2485 C   0  0  0  0  0  0  0  0  0  0  0  0
   19.4871   40.9013    9.5957 C   0  0  0  0  0  0  0  0  0  0  0  0
   18.0436   41.8827    7.7721 C   0  0  0  0  0  0  0  0  0  0  0  0
   15.7185   42.0497    8.0407 C   0  0  0  0  0  0  0  0  0  0  0  0
   14.5170   41.8783    8.6166 N   0  0  0  0  0  0  0  0  0  0  0  0
   13.5813   42.3341    7.7912 N   0  0  0  0  0  0  0  0  0  0  0  0
   13.4895   43.3142    5.5481 N   0  0  0  0  0  0  0  0  0  0  0  0
   16.9252   41.6765    8.5349 N   0  0  0  0  0  0  0  0  0  0  0  0
   15.0542   44.8795    4.7854 O   0  0  0  0  0  0  0  0  0  0  0  0
   13.6655   45.2402    2.3640 O   0  0  0  0  0  0  0  0  0  0  0  0
  1  2  1  0
  2  3  1  0
  3  4  1  0
  4 21  1  0
  5 23  1  0
  5 11  1  0
  6  7  1  0
  7 26  1  0
  8  9  1  0
 10 26  1  0
 12 13  2  0
 14 15  2  0
 16 17  2  0
 18 17  1  0
 19 24  2  0
 19 13  1  0
 20 21  1  0
 20 11  2  0
 21 22  1  0
 23  6  1  0
  5 22  2  0
  6 25  2  0
  7  8  2  0
  9 10  2  0
 11 12  1  0
 13 14  1  0
 15 16  1  0
 17 19  1  0
 20 24  1  0
M  END
>  <rmsd>  (761) 
0.200935543

$$$$
MolPort-003-082-986 CSSS03437203362 MCULE-5949923303 PubChem-16817414
     RDKit          3D

 27 29  0  0  0  0  0  0  0  0999 V2000
   13.7211   38.6774   11.3348 C   0  0  0  0  0  0  0  0  0  0  0  0
   13.1464   40.0513   11.6089 C   0  0  0  0  0  0  0  0  0  0  0  0
   10.7039   40.5099   11.2630 C   0  0  0  0  0  0  0  0  0  0  0  0
    9.4319   40.3665   11.8304 C   0  0  0  0  0  0  0  0  0  0  0  0
    8.3037   40.9072   11.2130 C   0  0  0  0  0  0  0  0  0  0  0  0
    8.4342   41.6009   10.0120 C   0  0  0  0  0  0  0  0  0  0  0  0
    9.6924   41.7506    9.4291 C   0  0  0  0  0  0  0  0  0  0  0  0
   10.8393   41.2132   10.0358 C   0  0  0  0  0  0  0  0  0  0  0  0
   12.4295   42.0391    8.1877 C   0  0  0  0  0  0  0  0  0  0  0  0
   13.8203   42.0621    7.7143 C   0  0  0  0  0  0  0  0  0  0  0  0
   14.2961   42.6624    6.5512 C   0  0  0  0  0  0  0  0  0  0  0  0
   15.6501   42.3933    6.5252 C   0  0  0  0  0  0  0  0  0  0  0  0
   16.6434   42.6670    5.5859 C   0  0  0  0  0  0  0  0  0  0  0  0
   17.9457   42.2147    5.8633 C   0  0  0  0  0  0  0  0  0  0  0  0
   18.2196   41.4988    7.0486 C   0  0  0  0  0  0  0  0  0  0  0  0
   17.1932   41.2175    7.9680 C   0  0  0  0  0  0  0  0  0  0  0  0
   15.9130   41.6767    7.6671 C   0  0  0  0  0  0  0  0  0  0  0  0
   13.9502   44.2928    4.6179 C   0  0  0  0  0  0  0  0  0  0  0  0
   13.1004   44.6616    3.4492 C   0  0  2  0  0  0  0  0  0  0  0  0
   11.8000   45.2854    3.9172 C   0  0  0  0  0  0  0  0  0  0  0  0
   11.7757   39.9314   11.9626 O   0  0  0  0  0  0  0  0  0  0  0  0
   11.5253   42.6103    7.5209 O   0  0  0  0  0  0  0  0  0  0  0  0
   14.8176   41.4900    8.3658 O   0  0  0  0  0  0  0  0  0  0  0  0
   15.0359   44.9028    4.8026 O   0  0  0  0  0  0  0  0  0  0  0  0
   12.1253   41.3614    9.4142 N   0  0  0  0  0  0  0  0  0  0  0  0
   13.4954   43.3055    5.5508 N   0  0  0  0  0  0  0  0  0  0  0  0
   12.7594   43.2272    2.4507 Cl  0  0  0  0  0  0  0  0  0  0  0  0
  1  2  1  0
  2 21  1  0
  3 21  1  0
  4  5  2  0
  6  7  2  0
  8 25  1  0
  8  3  2  0
  9 10  1  0
 10 23  1  0
 11 12  1  0
 11 26  1  0
 13 14  2  0
 15 16  2  0
 17 23  1  0
 17 12  2  0
 19 18  1  0
 19 20  1  1
 19 27  1  0
 25  9  1  0
 26 18  1  0
  3  4  1  0
  5  6  1  0
  7  8  1  0
  9 22  2  0
 10 11  2  0
 12 13  1  0
 14 15  1  0
 16 17  1  0
 18 24  2  0
M  END
>  <rmsd>  (762) 
0.200472757

$$$$
MolPort-007-723-520 20486745 ChemDiv-E157-6096 PubChem-46271961 ZINC000020486745 ZINC20486745
     RDKit          3D

 28 30  0  0  0  0  0  0  0  0999 V2000
   13.5209   39.2689   11.2304 C   0  0  0  0  0  0  0  0  0  0  0  0
   13.5535   41.7634   11.5596 C   0  0  0  0  0  0  0  0  0  0  0  0
   12.4020   41.6877   12.3618 C   0  0  0  0  0  0  0  0  0  0  0  0
   11.8506   42.8405   12.9279 C   0  0  0  0  0  0  0  0  0  0  0  0
   10.6325   42.7430   13.7732 C   0  0  0  0  0  0  0  0  0  0  0  0
   12.4441   44.0838   12.6987 C   0  0  0  0  0  0  0  0  0  0  0  0
   13.5890   44.1742   11.9041 C   0  0  0  0  0  0  0  0  0  0  0  0
   14.1397   43.0209   11.3388 C   0  0  0  0  0  0  0  0  0  0  0  0
   15.1349   41.6332    8.5277 C   0  0  0  0  0  0  0  0  0  0  0  0
   14.2371   42.7840    6.6385 C   0  0  0  0  0  0  0  0  0  0  0  0
   13.9130   44.3439    4.6624 C   0  0  0  0  0  0  0  0  0  0  0  0
   13.0168   44.7812    3.5879 C   0  0  0  0  0  0  0  0  0  0  0  0
   13.3619   45.7374    2.7284 C   0  0  0  0  0  0  0  0  0  0  0  0
   12.4772   46.1887    1.6456 C   0  0  0  0  0  0  0  0  0  0  0  0
   11.2023   45.6322    1.4520 C   0  0  0  0  0  0  0  0  0  0  0  0
   10.3867   46.0860    0.4112 C   0  0  0  0  0  0  0  0  0  0  0  0
   10.8395   47.0970   -0.4410 C   0  0  0  0  0  0  0  0  0  0  0  0
   12.1075   47.6541   -0.2527 C   0  0  0  0  0  0  0  0  0  0  0  0
   12.9234   47.2006    0.7883 C   0  0  0  0  0  0  0  0  0  0  0  0
   14.1177   40.5726   10.9739 N   0  0  0  0  0  0  0  0  0  0  0  0
   15.9792   42.5590    8.0234 N   0  0  0  0  0  0  0  0  0  0  0  0
   15.4797   43.2009    6.9691 N   0  0  0  0  0  0  0  0  0  0  0  0
   13.4735   43.3101    5.5489 N   0  0  0  0  0  0  0  0  0  0  0  0
   15.5024   40.6422    9.9246 S   0  0  0  0  0  0  0  0  0  0  0  0
   13.6891   41.5696    7.6659 S   0  0  0  0  0  0  0  0  0  0  0  0
   15.8686   39.2607    9.4587 O   0  0  0  0  0  0  0  0  0  0  0  0
   16.6644   41.2277   10.6768 O   0  0  0  0  0  0  0  0  0  0  0  0
   15.0505   44.8718    4.8000 O   0  0  0  0  0  0  0  0  0  0  0  0
  1 20  1  0
  3  4  2  0
  5  4  1  0
  6  7  2  0
  8  2  2  0
  9 25  1  0
 10 23  1  0
 10 25  1  0
 11 12  1  0
 13 14  1  0
 15 16  2  0
 17 18  2  0
 19 14  2  0
 20  2  1  0
 21 22  1  0
 23 11  1  0
 24 20  1  0
 24  9  1  0
  2  3  1  0
  4  6  1  0
  7  8  1  0
  9 21  2  0
 10 22  2  0
 11 28  2  0
 12 13  2  0
 14 15  1  0
 16 17  1  0
 18 19  1  0
 24 26  2  0
 24 27  2  0
M  END
>  <rmsd>  (763) 
0.200466961

$$$$
MolPort-051-610-737 CSSS09312299681 MCULE-6652970942
     RDKit          3D

 21 22  0  0  0  0  0  0  0  0999 V2000
   12.8512   39.7030   10.1233 F   0  0  0  0  0  0  0  0  0  0  0  0
   14.4350   38.5305   11.2189 F   0  0  0  0  0  0  0  0  0  0  0  0
   12.5709   39.1824   12.2892 F   0  0  0  0  0  0  0  0  0  0  0  0
   13.5034   39.5465   11.3319 C   0  0  0  0  0  0  0  0  0  0  0  0
   14.1967   40.8333   11.7097 C   0  0  0  0  0  0  0  0  0  0  0  0
   13.8314   41.4881   12.8970 C   0  0  0  0  0  0  0  0  0  0  0  0
   14.4659   42.6688   13.2875 C   0  0  0  0  0  0  0  0  0  0  0  0
   15.4793   43.2100   12.4969 C   0  0  0  0  0  0  0  0  0  0  0  0
   15.8553   42.5730   11.3136 C   0  0  0  0  0  0  0  0  0  0  0  0
   15.2190   41.3923   10.9060 C   0  0  0  0  0  0  0  0  0  0  0  0
   15.6605   40.7424    9.6296 C   0  0  0  0  0  0  0  0  0  0  0  0
   15.2951   41.5771    8.4479 C   0  0  0  0  0  0  0  0  0  0  0  0
   14.3075   42.7610    6.6203 C   0  0  0  0  0  0  0  0  0  0  0  0
   13.8941   44.3498    4.6853 C   0  0  0  0  0  0  0  0  0  0  0  0
   12.9392   44.8371    3.6551 C   0  0  0  0  0  0  0  0  0  0  0  0
   13.8060   41.5378    7.6597 S   0  0  0  0  0  0  0  0  0  0  0  0
   15.5659   43.1694    6.8957 N   0  0  0  0  0  0  0  0  0  0  0  0
   16.1132   42.5123    7.9166 N   0  0  0  0  0  0  0  0  0  0  0  0
   13.4931   43.3052    5.5776 N   0  0  0  0  0  0  0  0  0  0  0  0
   11.9069   46.1107    4.3470 Cl  0  0  0  0  0  0  0  0  0  0  0  0
   15.0313   44.8836    4.7781 O   0  0  0  0  0  0  0  0  0  0  0  0
  4  1  1  0
  4  5  1  0
  4  2  1  0
  4  3  1  0
  6  7  2  0
  8  9  2  0
 10  5  2  0
 11 10  1  0
 11 12  1  0
 12 16  1  0
 13 16  1  0
 13 19  1  0
 15 14  1  0
 15 20  1  0
 17 18  1  0
 19 14  1  0
  5  6  1  0
  7  8  1  0
  9 10  1  0
 12 18  2  0
 13 17  2  0
 14 21  2  0
M  END
>  <rmsd>  (764) 
0.200302303

$$$$
MolPort-047-459-752 238259116 MCULE-6165726472 PubChem-121002143
     RDKit          3D

 18 18  0  0  0  0  0  0  0  0999 V2000
   12.7649   39.2590   11.7573 C   0  0  0  0  0  0  0  0  0  0  0  0
   13.9115   38.9487   10.8180 C   0  0  0  0  0  0  0  0  0  0  0  0
   15.0095   40.7146    9.4996 C   0  0  0  0  0  0  0  0  0  0  0  0
   14.9605   41.6657    8.3841 C   0  0  0  0  0  0  0  0  0  0  0  0
   13.8842   41.8148    7.5287 C   0  0  0  0  0  0  0  0  0  0  0  0
   14.2965   42.8037    6.6644 C   0  0  0  0  0  0  0  0  0  0  0  0
   15.5688   43.2114    7.0104 C   0  0  0  0  0  0  0  0  0  0  0  0
   13.8982   44.3339    4.6674 C   0  0  0  0  0  0  0  0  0  0  0  0
   13.2691   45.7268    2.6798 C   0  0  0  0  0  0  0  0  0  0  0  0
   14.4718   45.3496    1.8319 C   0  0  0  0  0  0  0  0  0  0  0  0
   13.5089   47.0718    3.3435 C   0  0  0  0  0  0  0  0  0  0  0  0
   12.0635   45.8492    1.7724 C   0  0  0  0  0  0  0  0  0  0  0  0
   13.9154   39.8835    9.7494 O   0  0  0  0  0  0  0  0  0  0  0  0
   16.0390   40.6542   10.2259 O   0  0  0  0  0  0  0  0  0  0  0  0
   15.0307   44.8811    4.7651 O   0  0  0  0  0  0  0  0  0  0  0  0
   13.0043   44.7192    3.6590 O   0  0  0  0  0  0  0  0  0  0  0  0
   15.9748   42.5009    8.0786 N   0  0  0  0  0  0  0  0  0  0  0  0
   13.5027   43.3079    5.5843 N   0  0  0  0  0  0  0  0  0  0  0  0
  1  2  1  0
  2 13  1  0
  3 13  1  0
  3  4  1  0
  5  6  1  0
  6 18  1  0
  7 17  1  0
  8 16  1  0
  9 16  1  0
  9 10  1  0
  9 11  1  0
  9 12  1  0
 17  4  1  0
 18  8  1  0
  3 14  2  0
  4  5  2  0
  6  7  2  0
  8 15  2  0
M  END
>  <rmsd>  (765) 
0.199571803

$$$$
MolPort-002-764-926 MCULE-8940206986 PubChem-19587676
     RDKit          3D

 28 30  0  0  0  0  0  0  0  0999 V2000
   12.9474   39.4864   11.9349 C   0  0  0  0  0  0  0  0  0  0  0  0
   13.9836   39.3433   10.8394 C   0  0  0  0  0  0  0  0  0  0  0  0
   14.9923   40.2701    9.1090 C   0  0  0  0  0  0  0  0  0  0  0  0
   13.8948   41.6164    7.3313 C   0  0  0  0  0  0  0  0  0  0  0  0
   14.2950   42.6685    6.5395 C   0  0  0  0  0  0  0  0  0  0  0  0
   13.8894   44.3945    4.7120 C   0  0  0  0  0  0  0  0  0  0  0  0
   12.9437   44.9590    3.7061 C   0  0  1  0  0  0  0  0  0  0  0  0
   12.5306   43.8929    2.7024 C   0  0  0  0  0  0  0  0  0  0  0  0
   11.5731   44.5027    1.6933 C   0  0  0  0  0  0  0  0  0  0  0  0
   10.3543   45.0803    2.4162 C   0  0  0  0  0  0  0  0  0  0  0  0
   11.7069   45.5358    4.4002 C   0  0  0  0  0  0  0  0  0  0  0  0
   11.5351   48.7499    4.0010 C   0  0  0  0  0  0  0  0  0  0  0  0
   12.7000   48.9793    4.6988 C   0  0  0  0  0  0  0  0  0  0  0  0
   14.0025   48.2695    4.5336 C   0  0  0  0  0  0  0  0  0  0  0  0
   13.4162   50.5322    6.5199 C   0  0  0  0  0  0  0  0  0  0  0  0
   10.6035   49.6372    4.5127 C   0  0  0  0  0  0  0  0  0  0  0  0
   15.5999   42.9805    6.8762 C   0  0  0  0  0  0  0  0  0  0  0  0
   14.0695   40.5364   10.1213 O   0  0  0  0  0  0  0  0  0  0  0  0
   15.0421   44.8921    4.8149 O   0  0  0  0  0  0  0  0  0  0  0  0
   12.5132   47.3625    1.9444 O   0  0  0  0  0  0  0  0  0  0  0  0
   10.1834   48.0828    1.8151 O   0  0  0  0  0  0  0  0  0  0  0  0
   14.9497   41.3277    8.1138 N   0  0  0  0  0  0  0  0  0  0  0  0
   13.4810   43.3021    5.5472 N   0  0  0  0  0  0  0  0  0  0  0  0
   10.7161   46.0629    3.4496 N   0  0  0  0  0  0  0  0  0  0  0  0
   12.4637   49.9645    5.5801 N   0  0  0  0  0  0  0  0  0  0  0  0
   11.2073   50.3663    5.4776 N   0  0  0  0  0  0  0  0  0  0  0  0
   15.9710   42.1286    7.8521 N   0  0  0  0  0  0  0  0  0  0  0  0
   11.2508   47.5619    2.7374 S   0  0  0  0  0  0  0  0  0  0  0  0
  1  2  1  0
  2 18  1  0
  3 18  1  0
  3 22  1  0
  5 23  1  0
  5 17  1  0
  7  6  1  1
  7  8  1  0
  8  9  1  0
  9 10  1  0
 10 24  1  0
 11 24  1  0
 11  7  1  0
 13 25  1  0
 14 13  1  0
 15 25  1  0
 16 12  1  0
 22  4  1  0
 22 27  1  0
 23  6  1  0
 25 26  1  0
 28 24  1  0
 28 12  1  0
  4  5  2  0
  6 19  2  0
 12 13  2  0
 16 26  2  0
 17 27  2  0
 28 20  2  0
 28 21  2  0
M  END
>  <rmsd>  (766) 
0.1994441

$$$$
MolPort-051-589-860
     RDKit          3D

 31 33  0  0  0  0  0  0  0  0999 V2000
   17.1867   42.2860    8.6272 C   0  0  0  0  0  0  0  0  0  0  0  0
   15.5586   43.0709    6.9303 C   0  0  0  0  0  0  0  0  0  0  0  0
   14.2694   42.7163    6.5787 C   0  0  0  0  0  0  0  0  0  0  0  0
   13.8986   44.3813    4.6854 C   0  0  0  0  0  0  0  0  0  0  0  0
   13.2916   45.9138    2.7962 C   0  0  0  0  0  0  0  0  0  0  0  0
   14.4745   45.5565    1.9127 C   0  0  0  0  0  0  0  0  0  0  0  0
   13.5770   47.2071    3.5400 C   0  0  0  0  0  0  0  0  0  0  0  0
   12.0814   46.1274    1.9120 C   0  0  0  0  0  0  0  0  0  0  0  0
   14.8463   41.4530    8.1786 C   0  0  0  0  0  0  0  0  0  0  0  0
   14.7887   40.4044    9.2131 C   0  0  0  0  0  0  0  0  0  0  0  0
   13.4263   38.6169   10.3928 C   0  0  0  0  0  0  0  0  0  0  0  0
   12.9271   39.2667   11.6741 C   0  0  0  0  0  0  0  0  0  0  0  0
   14.0869   39.7131   12.5511 C   0  0  0  0  0  0  0  0  0  0  0  0
   14.1520   37.6978   14.1730 C   0  0  0  0  0  0  0  0  0  0  0  0
   15.1596   36.7468   14.6282 C   0  0  0  0  0  0  0  0  0  0  0  0
   15.0797   35.7195   15.5658 C   0  0  0  0  0  0  0  0  0  0  0  0
   16.2390   34.9600   15.8034 C   0  0  0  0  0  0  0  0  0  0  0  0
   17.4365   35.2399   15.1108 C   0  0  0  0  0  0  0  0  0  0  0  0
   17.4928   36.2835   14.1702 C   0  0  0  0  0  0  0  0  0  0  0  0
   16.3312   37.0207   13.9506 C   0  0  0  0  0  0  0  0  0  0  0  0
   16.0755   38.1475   13.0605 C   0  0  0  0  0  0  0  0  0  0  0  0
   15.9043   42.2605    7.9432 N   0  0  0  0  0  0  0  0  0  0  0  0
   13.4820   43.3115    5.5408 N   0  0  0  0  0  0  0  0  0  0  0  0
   13.8141   41.7093    7.3495 N   0  0  0  0  0  0  0  0  0  0  0  0
   13.6007   39.6209    9.3529 N   0  0  0  0  0  0  0  0  0  0  0  0
   14.7160   38.5630   13.1861 N   0  0  0  0  0  0  0  0  0  0  0  0
   15.0475   44.8889    4.8042 O   0  0  0  0  0  0  0  0  0  0  0  0
   13.0069   44.8547    3.7134 O   0  0  0  0  0  0  0  0  0  0  0  0
   15.7787   40.1905    9.9624 O   0  0  0  0  0  0  0  0  0  0  0  0
   12.9641   37.7682   14.5858 O   0  0  0  0  0  0  0  0  0  0  0  0
   16.9189   38.6927   12.3008 O   0  0  0  0  0  0  0  0  0  0  0  0
  1 22  1  0
  3 23  1  0
  3 24  1  0
  4 28  1  0
  5 28  1  0
  5  6  1  0
  5  7  1  0
  5  8  1  0
  9 10  1  0
  9 22  1  0
 10 25  1  0
 11 25  1  0
 11 12  1  0
 12 13  1  0
 13 26  1  0
 14 15  1  0
 16 17  2  0
 18 19  2  0
 20 21  1  0
 20 15  2  0
 21 26  1  0
 22  2  1  0
 23  4  1  0
 26 14  1  0
  2  3  2  0
  4 27  2  0
  9 24  2  0
 10 29  2  0
 14 30  2  0
 15 16  1  0
 17 18  1  0
 19 20  1  0
 21 31  2  0
M  END
>  <rmsd>  (767) 
0.199387506

$$$$
MolPort-016-633-464 5592833 MCULE-8029622606 PubChem-6117359 ZINC000005592833
     RDKit          3D

 25 27  0  0  0  0  0  0  0  0999 V2000
   13.3506   38.6478   11.2705 C   0  0  0  0  0  0  0  0  0  0  0  0
   13.4984   40.1234   11.5938 C   0  0  0  0  0  0  0  0  0  0  0  0
   14.8381   40.8519    9.6437 C   0  0  0  0  0  0  0  0  0  0  0  0
   14.9271   41.6235    8.3915 C   0  0  0  0  0  0  0  0  0  0  0  0
   13.9176   42.3599    7.7677 C   0  0  0  0  0  0  0  0  0  0  0  0
   12.5338   42.5692    8.2859 C   0  0  0  0  0  0  0  0  0  0  0  0
   13.9266   44.3208    4.6457 C   0  0  0  0  0  0  0  0  0  0  0  0
   15.5811   42.2858    6.3900 C   0  0  0  0  0  0  0  0  0  0  0  0
   15.9787   41.6173    7.4895 C   0  0  0  0  0  0  0  0  0  0  0  0
   17.0370   40.6089    7.2157 C   0  0  0  0  0  0  0  0  0  0  0  0
   17.2553   40.7310    5.6901 C   0  0  0  0  0  0  0  0  0  0  0  0
   16.2675   41.7685    5.2231 C   0  0  0  0  0  0  0  0  0  0  0  0
   15.9988   42.1124    3.9594 C   0  0  0  0  0  0  0  0  0  0  0  0
   16.6416   41.5906    2.7387 C   0  0  0  0  0  0  0  0  0  0  0  0
   17.6749   40.6412    2.7691 C   0  0  0  0  0  0  0  0  0  0  0  0
   18.2506   40.1830    1.5804 C   0  0  0  0  0  0  0  0  0  0  0  0
   17.7977   40.6712    0.3522 C   0  0  0  0  0  0  0  0  0  0  0  0
   16.7702   41.6173    0.3136 C   0  0  0  0  0  0  0  0  0  0  0  0
   16.1956   42.0744    1.5034 C   0  0  0  0  0  0  0  0  0  0  0  0
   13.6617   40.8786   10.3992 O   0  0  0  0  0  0  0  0  0  0  0  0
   15.8307   40.1794   10.0360 O   0  0  0  0  0  0  0  0  0  0  0  0
   15.0358   44.8939    4.8106 O   0  0  0  0  0  0  0  0  0  0  0  0
   14.3252   42.7558    6.5406 N   0  0  0  0  0  0  0  0  0  0  0  0
   13.4907   43.3049    5.5515 N   0  0  0  0  0  0  0  0  0  0  0  0
   13.0846   44.7119    3.5686 N   0  0  0  0  0  0  0  0  0  0  0  0
  1  2  1  0
  2 20  1  0
  3 20  1  0
  3  4  1  0
  5 23  1  0
  6  5  1  0
  7 25  1  0
  9  4  1  0
 10  9  1  0
 10 11  1  0
 11 12  1  0
 12  8  1  0
 13 14  1  0
 15 16  2  0
 17 18  2  0
 19 14  2  0
 23 24  1  0
 23  8  1  0
 24  7  1  0
  3 21  2  0
  4  5  2  0
  7 22  2  0
  8  9  2  0
 12 13  2  0
 14 15  1  0
 16 17  1  0
 18 19  1  0
M  END
>  <rmsd>  (768) 
0.199083373

$$$$
MolPort-008-194-644 40745923 CSSS03437773503 MCULE-1851492700 PubChem-51999182 ZINC000040745923 ZINC40745923
     RDKit          3D

 23 24  0  0  0  0  0  0  0  0999 V2000
   11.3015   39.6010    7.9347 C   0  0  0  0  0  0  0  0  0  0  0  0
   11.3003   38.9676    9.3104 C   0  0  0  0  0  0  0  0  0  0  0  0
   12.5590   38.4052   11.0366 C   0  0  0  0  0  0  0  0  0  0  0  0
   13.8265   38.9445   11.6812 C   0  0  0  0  0  0  0  0  0  0  0  0
   13.7674   40.4600   11.8348 C   0  0  0  0  0  0  0  0  0  0  0  0
   14.9950   41.0985    9.7056 C   0  0  0  0  0  0  0  0  0  0  0  0
   14.9501   41.7041    8.3707 C   0  0  0  0  0  0  0  0  0  0  0  0
   16.4090   42.3997    5.2176 C   0  0  0  0  0  0  0  0  0  0  0  0
   14.3086   42.6965    6.5656 C   0  0  0  0  0  0  0  0  0  0  0  0
   13.9484   44.2847    4.6124 C   0  0  0  0  0  0  0  0  0  0  0  0
   13.1150   44.6138    3.4506 C   0  0  0  0  0  0  0  0  0  0  0  0
   13.4174   45.5536    2.4773 C   0  0  0  0  0  0  0  0  0  0  0  0
   12.4291   45.6458    1.4863 C   0  0  0  0  0  0  0  0  0  0  0  0
   11.3480   44.7859    1.6683 C   0  0  0  0  0  0  0  0  0  0  0  0
   13.8343   42.3056    7.8021 C   0  0  0  0  0  0  0  0  0  0  0  0
   12.6019   38.6071    9.6562 O   0  0  0  0  0  0  0  0  0  0  0  0
   16.0582   40.5571   10.1128 O   0  0  0  0  0  0  0  0  0  0  0  0
   15.0336   44.8987    4.7982 O   0  0  0  0  0  0  0  0  0  0  0  0
   13.8319   41.1221   10.5381 N   0  0  0  0  0  0  0  0  0  0  0  0
   15.9950   41.7111    7.5184 N   0  0  0  0  0  0  0  0  0  0  0  0
   15.5947   42.3205    6.4186 N   0  0  0  0  0  0  0  0  0  0  0  0
   13.4968   43.3074    5.5556 N   0  0  0  0  0  0  0  0  0  0  0  0
   11.6390   43.9118    3.0758 S   0  0  0  0  0  0  0  0  0  0  0  0
  1  2  1  0
  2 16  1  0
  3 16  1  0
  3  4  1  0
  4  5  1  0
  5 19  1  0
  6  7  1  0
  8 21  1  0
  9 22  1  0
 10 11  1  0
 11 23  1  0
 12 13  1  0
 14 23  1  0
 15  7  1  0
 19  6  1  0
 21 20  1  0
 21  9  1  0
 22 10  1  0
  6 17  2  0
  7 20  2  0
  9 15  2  0
 10 18  2  0
 11 12  2  0
 13 14  2  0
M  END
>  <rmsd>  (769) 
0.198990181

$$$$
MolPort-002-305-695 5557033 PubChem-1628717 ZINC000005557033 ZINC05557033
     RDKit          3D

 25 27  0  0  0  0  0  0  0  0999 V2000
   12.8200   39.0162   11.4829 C   0  0  0  0  0  0  0  0  0  0  0  0
   14.3120   39.2187   11.2962 C   0  0  0  0  0  0  0  0  0  0  0  0
   14.5983   39.8227    9.9334 C   0  0  0  0  0  0  0  0  0  0  0  0
   14.2457   41.3018    9.9236 C   0  0  0  0  0  0  0  0  0  0  0  0
   14.2042   42.8068    6.6824 C   0  0  0  0  0  0  0  0  0  0  0  0
   14.0063   44.2133    4.5643 C   0  0  0  0  0  0  0  0  0  0  0  0
   13.2478   44.4082    3.2932 C   0  0  0  0  0  0  0  0  0  0  0  0
   12.7168   45.8259    3.2022 C   0  0  0  0  0  0  0  0  0  0  0  0
   14.1271   44.1075    2.0945 C   0  0  0  0  0  0  0  0  0  0  0  0
   15.5720   42.6203    6.8088 C   0  0  0  0  0  0  0  0  0  0  0  0
   16.6621   42.8330    5.9710 C   0  0  0  0  0  0  0  0  0  0  0  0
   17.9254   42.4615    6.4626 C   0  0  0  0  0  0  0  0  0  0  0  0
   19.0687   42.6564    5.6857 C   0  0  0  0  0  0  0  0  0  0  0  0
   20.3309   42.2834    6.1773 C   0  0  0  0  0  0  0  0  0  0  0  0
   21.4805   43.0380    4.1211 C   0  0  0  0  0  0  0  0  0  0  0  0
   20.4369   41.7131    7.4515 C   0  0  0  0  0  0  0  0  0  0  0  0
   19.3004   41.5102    8.2403 C   0  0  0  0  0  0  0  0  0  0  0  0
   18.0419   41.8787    7.7614 C   0  0  0  0  0  0  0  0  0  0  0  0
   15.7225   42.0462    8.0372 C   0  0  0  0  0  0  0  0  0  0  0  0
   14.5219   41.8772    8.6158 N   0  0  0  0  0  0  0  0  0  0  0  0
   13.5849   42.3342    7.7924 N   0  0  0  0  0  0  0  0  0  0  0  0
   13.4891   43.3138    5.5491 N   0  0  0  0  0  0  0  0  0  0  0  0
   16.9303   41.6721    8.5294 N   0  0  0  0  0  0  0  0  0  0  0  0
   15.0534   44.8805    4.7855 O   0  0  0  0  0  0  0  0  0  0  0  0
   21.4926   42.4676    5.4226 O   0  0  0  0  0  0  0  0  0  0  0  0
  1  2  1  0
  2  3  1  0
  3  4  1  0
  4 20  1  0
  5 22  1  0
  5 10  1  0
  7  6  1  0
  7  8  1  0
  7  9  1  0
 11 12  2  0
 13 14  2  0
 14 25  1  0
 15 25  1  0
 16 17  2  0
 18 23  2  0
 18 12  1  0
 19 20  1  0
 19 10  2  0
 20 21  1  0
 22  6  1  0
  5 21  2  0
  6 24  2  0
 10 11  1  0
 12 13  1  0
 14 16  1  0
 17 18  1  0
 19 23  1  0
M  END
>  <rmsd>  (770) 
0.198963702

$$$$
MolPort-002-599-334 16975781 CHEMBL1547457 CSSS00160675839 MCULE-7236428736 PubChem-662537 ZINC000016975781 ZINC16975781
     RDKit          3D

 25 28  0  0  0  0  0  0  0  0999 V2000
   12.8199   39.0168   11.4819 C   0  0  0  0  0  0  0  0  0  0  0  0
   14.3119   39.2189   11.2952 C   0  0  0  0  0  0  0  0  0  0  0  0
   14.5984   39.8232    9.9326 C   0  0  0  0  0  0  0  0  0  0  0  0
   14.2462   41.3024    9.9231 C   0  0  0  0  0  0  0  0  0  0  0  0
   14.2044   42.8075    6.6820 C   0  0  0  0  0  0  0  0  0  0  0  0
   14.0048   44.2162    4.5633 C   0  0  0  0  0  0  0  0  0  0  0  0
   13.2761   44.4120    3.3054 C   0  0  0  0  0  0  0  0  0  0  0  0
   12.1025   43.7701    2.9422 C   0  0  0  0  0  0  0  0  0  0  0  0
   11.6406   44.1594    1.6764 C   0  0  0  0  0  0  0  0  0  0  0  0
   12.4402   45.1038    1.0361 C   0  0  0  0  0  0  0  0  0  0  0  0
   15.5722   42.6208    6.8081 C   0  0  0  0  0  0  0  0  0  0  0  0
   16.6620   42.8333    5.9698 C   0  0  0  0  0  0  0  0  0  0  0  0
   17.9255   42.4616    6.4608 C   0  0  0  0  0  0  0  0  0  0  0  0
   19.0692   42.6564    5.6831 C   0  0  0  0  0  0  0  0  0  0  0  0
   20.3222   42.2826    6.1784 C   0  0  0  0  0  0  0  0  0  0  0  0
   20.4378   41.7120    7.4506 C   0  0  0  0  0  0  0  0  0  0  0  0
   19.3013   41.5093    8.2399 C   0  0  0  0  0  0  0  0  0  0  0  0
   18.0422   41.8784    7.7606 C   0  0  0  0  0  0  0  0  0  0  0  0
   15.7228   42.0468    8.0365 C   0  0  0  0  0  0  0  0  0  0  0  0
   14.5223   41.8779    8.6154 N   0  0  0  0  0  0  0  0  0  0  0  0
   13.5853   42.3349    7.7920 N   0  0  0  0  0  0  0  0  0  0  0  0
   13.4891   43.3140    5.5486 N   0  0  0  0  0  0  0  0  0  0  0  0
   16.9306   41.6722    8.5286 N   0  0  0  0  0  0  0  0  0  0  0  0
   15.0523   44.8798    4.7863 O   0  0  0  0  0  0  0  0  0  0  0  0
   13.7266   45.4462    2.0646 S   0  0  0  0  0  0  0  0  0  0  0  0
  1  2  1  0
  2  3  1  0
  3  4  1  0
  4 20  1  0
  5 22  1  0
  5 11  1  0
  6  7  1  0
  7 25  1  0
  8  9  1  0
 10 25  1  0
 12 13  2  0
 14 15  2  0
 16 17  2  0
 18 23  2  0
 18 13  1  0
 19 20  1  0
 19 11  2  0
 20 21  1  0
 22  6  1  0
  5 21  2  0
  6 24  2  0
  7  8  2  0
  9 10  2  0
 11 12  1  0
 13 14  1  0
 15 16  1  0
 17 18  1  0
 19 23  1  0
M  END
>  <rmsd>  (771) 
0.198744252

$$$$
MolPort-008-869-463 36182764 CSSS00160342980 ChemDiv-Y300-3262 MCULE-7091247739 PubChem-56919441 ZINC000036182764 ZINC36182764
     RDKit          3D

 20 21  0  0  0  0  0  0  0  0999 V2000
   13.5166   39.2693   11.2317 C   0  0  0  0  0  0  0  0  0  0  0  0
   13.5698   41.7625   11.5686 C   0  0  0  0  0  0  0  0  0  0  0  0
   12.4245   41.6925   12.3804 C   0  0  0  0  0  0  0  0  0  0  0  0
   11.8852   42.8476   12.9533 C   0  0  0  0  0  0  0  0  0  0  0  0
   12.4846   44.0876   12.7214 C   0  0  0  0  0  0  0  0  0  0  0  0
   13.6234   44.1724   11.9174 C   0  0  0  0  0  0  0  0  0  0  0  0
   14.1620   43.0168   11.3453 C   0  0  0  0  0  0  0  0  0  0  0  0
   15.1346   41.6258    8.5262 C   0  0  0  0  0  0  0  0  0  0  0  0
   14.2371   42.7804    6.6391 C   0  0  0  0  0  0  0  0  0  0  0  0
   13.9157   44.3433    4.6660 C   0  0  0  0  0  0  0  0  0  0  0  0
   13.0198   44.8000    3.5723 C   0  0  0  0  0  0  0  0  0  0  0  0
   14.1218   40.5694   10.9761 N   0  0  0  0  0  0  0  0  0  0  0  0
   15.9794   42.5519    8.0232 N   0  0  0  0  0  0  0  0  0  0  0  0
   15.4799   43.1959    6.9700 N   0  0  0  0  0  0  0  0  0  0  0  0
   13.4739   43.3087    5.5503 N   0  0  0  0  0  0  0  0  0  0  0  0
   15.5022   40.6316    9.9207 S   0  0  0  0  0  0  0  0  0  0  0  0
   13.6886   41.5646    7.6646 S   0  0  0  0  0  0  0  0  0  0  0  0
   15.8583   39.2483    9.4522 O   0  0  0  0  0  0  0  0  0  0  0  0
   16.6712   41.2094   10.6681 O   0  0  0  0  0  0  0  0  0  0  0  0
   15.0505   44.8730    4.7993 O   0  0  0  0  0  0  0  0  0  0  0  0
  1 12  1  0
  3  4  2  0
  5  6  2  0
  7  2  2  0
  8 17  1  0
  9 15  1  0
  9 17  1  0
 11 10  1  0
 12  2  1  0
 13 14  1  0
 15 10  1  0
 16 12  1  0
 16  8  1  0
  2  3  1  0
  4  5  1  0
  6  7  1  0
  8 13  2  0
  9 14  2  0
 10 20  2  0
 16 18  2  0
 16 19  2  0
M  END
>  <rmsd>  (772) 
0.198167011

$$$$
MolPort-007-686-722 ChemDiv-D039-0031 MCULE-4244727285 PubChem-23605069 ZINC000006809950 ZINC06809950
     RDKit          3D

 23 24  0  0  0  0  0  0  0  0999 V2000
   12.7789   39.2577   11.8269 C   0  0  0  0  0  0  0  0  0  0  0  0
   13.9086   38.9248   10.8750 C   0  0  0  0  0  0  0  0  0  0  0  0
   15.0106   40.6657    9.5255 C   0  0  0  0  0  0  0  0  0  0  0  0
   14.9582   41.6181    8.3974 C   0  0  0  0  0  0  0  0  0  0  0  0
   15.9547   42.4943    7.9836 C   0  0  0  0  0  0  0  0  0  0  0  0
   17.2998   42.6515    8.6048 C   0  0  0  0  0  0  0  0  0  0  0  0
   14.3071   42.8004    6.6480 C   0  0  0  0  0  0  0  0  0  0  0  0
   13.9063   44.3269    4.6581 C   0  0  0  0  0  0  0  0  0  0  0  0
   13.3335   45.5780    2.5222 C   0  0  0  0  0  0  0  0  0  0  0  0
   14.4707   45.3458    1.7148 C   0  0  0  0  0  0  0  0  0  0  0  0
   15.3680   44.1743    1.9263 C   0  0  0  0  0  0  0  0  0  0  0  0
   14.7365   46.1910    0.6322 C   0  0  0  0  0  0  0  0  0  0  0  0
   13.8795   47.2534    0.3371 C   0  0  0  0  0  0  0  0  0  0  0  0
   12.7412   47.4679    1.1159 C   0  0  0  0  0  0  0  0  0  0  0  0
   12.4671   46.6283    2.1981 C   0  0  0  0  0  0  0  0  0  0  0  0
   13.9005   41.8230    7.5300 C   0  0  0  0  0  0  0  0  0  0  0  0
   12.5765   41.1365    7.5302 C   0  0  0  0  0  0  0  0  0  0  0  0
   13.9101   39.8508    9.7989 O   0  0  0  0  0  0  0  0  0  0  0  0
   16.0470   40.5894   10.2405 O   0  0  0  0  0  0  0  0  0  0  0  0
   15.0329   44.8826    4.7688 O   0  0  0  0  0  0  0  0  0  0  0  0
   15.5611   43.2176    6.9156 N   0  0  0  0  0  0  0  0  0  0  0  0
   13.5016   43.3087    5.5781 N   0  0  0  0  0  0  0  0  0  0  0  0
   12.9954   44.7395    3.6349 N   0  0  0  0  0  0  0  0  0  0  0  0
  1  2  1  0
  2 18  1  0
  3 18  1  0
  3  4  1  0
  5 21  1  0
  6  5  1  0
  7 22  1  0
  8 23  1  0
 10 12  2  0
 11 10  1  0
 13 14  2  0
 15  9  2  0
 16  4  1  0
 17 16  1  0
 21  7  1  0
 22  8  1  0
 23  9  1  0
  3 19  2  0
  4  5  2  0
  7 16  2  0
  8 20  2  0
  9 10  1  0
 12 13  1  0
 14 15  1  0
M  END
>  <rmsd>  (773) 
0.19746609

$$$$
MolPort-002-455-714 568498 CSC026735676 CSSS00026735676 ChemDiv-D039-0035 MCULE-8704836685 PubChem-959515 Z57244559 ZINC000000568498 ZINC00568498
     RDKit          3D

 24 25  0  0  0  0  0  0  0  0999 V2000
   12.7785   39.2574   11.8277 C   0  0  0  0  0  0  0  0  0  0  0  0
   13.9082   38.9245   10.8757 C   0  0  0  0  0  0  0  0  0  0  0  0
   15.0102   40.6655    9.5262 C   0  0  0  0  0  0  0  0  0  0  0  0
   14.9577   41.6178    8.3981 C   0  0  0  0  0  0  0  0  0  0  0  0
   15.9542   42.4940    7.9842 C   0  0  0  0  0  0  0  0  0  0  0  0
   17.2993   42.6513    8.6054 C   0  0  0  0  0  0  0  0  0  0  0  0
   14.3065   42.8002    6.6486 C   0  0  0  0  0  0  0  0  0  0  0  0
   13.9057   44.3266    4.6587 C   0  0  0  0  0  0  0  0  0  0  0  0
   13.3328   45.5779    2.5232 C   0  0  0  0  0  0  0  0  0  0  0  0
   12.4667   46.6287    2.2000 C   0  0  0  0  0  0  0  0  0  0  0  0
   12.7408   47.4688    1.1182 C   0  0  0  0  0  0  0  0  0  0  0  0
   11.8205   48.5901    0.7966 C   0  0  0  0  0  0  0  0  0  0  0  0
   13.8788   47.2542    0.3388 C   0  0  0  0  0  0  0  0  0  0  0  0
   14.7356   46.1913    0.6331 C   0  0  0  0  0  0  0  0  0  0  0  0
   14.4697   45.3458    1.7154 C   0  0  0  0  0  0  0  0  0  0  0  0
   15.3666   44.1740    1.9263 C   0  0  0  0  0  0  0  0  0  0  0  0
   13.9001   41.8226    7.5307 C   0  0  0  0  0  0  0  0  0  0  0  0
   12.5761   41.1360    7.5309 C   0  0  0  0  0  0  0  0  0  0  0  0
   13.9096   39.8505    9.7996 O   0  0  0  0  0  0  0  0  0  0  0  0
   16.0466   40.5892   10.2412 O   0  0  0  0  0  0  0  0  0  0  0  0
   15.0324   44.8822    4.7694 O   0  0  0  0  0  0  0  0  0  0  0  0
   15.5605   43.2173    6.9162 N   0  0  0  0  0  0  0  0  0  0  0  0
   13.5010   43.3082    5.5788 N   0  0  0  0  0  0  0  0  0  0  0  0
   12.9947   44.7391    3.6356 N   0  0  0  0  0  0  0  0  0  0  0  0
  1  2  1  0
  2 19  1  0
  3 19  1  0
  3  4  1  0
  5 22  1  0
  6  5  1  0
  7 23  1  0
  8 24  1  0
 10 11  2  0
 12 11  1  0
 13 14  2  0
 15  9  2  0
 16 15  1  0
 17  4  1  0
 18 17  1  0
 22  7  1  0
 23  8  1  0
 24  9  1  0
  3 20  2  0
  4  5  2  0
  7 17  2  0
  8 21  2  0
  9 10  1  0
 11 13  1  0
 14 15  1  0
M  END
>  <rmsd>  (774) 
0.197391197

$$$$
MolPort-002-278-585 1077129 CHEMBL1366508 CSSS00160326221 ChemDiv-D039-0089 MCULE-8992737878 PubChem-1264627 ZINC000001077129 ZINC01077129
     RDKit          3D

 30 32  0  0  0  0  0  0  0  0999 V2000
   12.7798   39.2599   11.8276 C   0  0  0  0  0  0  0  0  0  0  0  0
   13.9091   38.9262   10.8756 C   0  0  0  0  0  0  0  0  0  0  0  0
   15.0115   40.6664    9.5252 C   0  0  0  0  0  0  0  0  0  0  0  0
   14.9591   41.6184    8.3969 C   0  0  0  0  0  0  0  0  0  0  0  0
   15.9558   42.4943    7.9826 C   0  0  0  0  0  0  0  0  0  0  0  0
   17.3011   42.6513    8.6035 C   0  0  0  0  0  0  0  0  0  0  0  0
   14.3079   42.8006    6.6473 C   0  0  0  0  0  0  0  0  0  0  0  0
   13.9060   44.3271    4.6569 C   0  0  0  0  0  0  0  0  0  0  0  0
   13.3059   45.5508    2.4992 C   0  0  0  0  0  0  0  0  0  0  0  0
   12.4019   46.2597    1.7359 C   0  0  0  0  0  0  0  0  0  0  0  0
   10.9403   46.3927    2.0049 C   0  0  0  0  0  0  0  0  0  0  0  0
   12.4500   47.7197   -0.2807 C   0  0  0  0  0  0  0  0  0  0  0  0
   14.5168   45.7074    1.8480 C   0  0  0  0  0  0  0  0  0  0  0  0
   15.3731   46.8965   -0.1728 C   0  0  0  0  0  0  0  0  0  0  0  0
   16.7076   47.0221    0.2470 C   0  0  0  0  0  0  0  0  0  0  0  0
   17.7067   47.3935   -0.6571 C   0  0  0  0  0  0  0  0  0  0  0  0
   17.3827   47.6405   -1.9931 C   0  0  0  0  0  0  0  0  0  0  0  0
   16.0603   47.5143   -2.4246 C   0  0  0  0  0  0  0  0  0  0  0  0
   15.0622   47.1427   -1.5194 C   0  0  0  0  0  0  0  0  0  0  0  0
   13.9013   41.8234    7.5298 C   0  0  0  0  0  0  0  0  0  0  0  0
   12.5770   41.1374    7.5306 C   0  0  0  0  0  0  0  0  0  0  0  0
   13.9107   39.8519    9.7991 O   0  0  0  0  0  0  0  0  0  0  0  0
   16.0480   40.5900   10.2400 O   0  0  0  0  0  0  0  0  0  0  0  0
   15.0319   44.8820    4.7695 O   0  0  0  0  0  0  0  0  0  0  0  0
   15.6039   45.1524    2.1609 O   0  0  0  0  0  0  0  0  0  0  0  0
   15.5620   43.2173    6.9145 N   0  0  0  0  0  0  0  0  0  0  0  0
   13.5021   43.3091    5.5777 N   0  0  0  0  0  0  0  0  0  0  0  0
   12.9895   44.7418    3.6400 N   0  0  0  0  0  0  0  0  0  0  0  0
   13.0575   46.8299    0.7015 N   0  0  0  0  0  0  0  0  0  0  0  0
   14.3470   46.4993    0.7635 N   0  0  0  0  0  0  0  0  0  0  0  0
  1  2  1  0
  2 22  1  0
  3 22  1  0
  3  4  1  0
  5 26  1  0
  6  5  1  0
  7 27  1  0
  8 28  1  0
 10 29  1  0
 11 10  1  0
 12 29  1  0
 13  9  1  0
 15 16  2  0
 17 18  2  0
 19 14  2  0
 20  4  1  0
 21 20  1  0
 26  7  1  0
 27  8  1  0
 28  9  1  0
 29 30  1  0
 30 13  1  0
 30 14  1  0
  3 23  2  0
  4  5  2  0
  7 20  2  0
  8 24  2  0
  9 10  2  0
 13 25  2  0
 14 15  1  0
 16 17  1  0
 18 19  1  0
M  END
>  <rmsd>  (775) 
0.197364062

$$$$
MolPort-002-958-417 4694967 CSSS00039171529 MCULE-5656315913 PubChem-3897640 ZINC000004694967 ZINC04694967
     RDKit          3D

 16 16  0  0  0  0  0  0  0  0999 V2000
   15.0210   38.5261   12.8954 C   0  0  0  0  0  0  0  0  0  0  0  0
   13.5794   38.4343   12.4333 C   0  0  0  0  0  0  0  0  0  0  0  0
   13.4628   38.8053   10.9632 C   0  0  0  0  0  0  0  0  0  0  0  0
   13.3508   40.3139   10.7798 C   0  0  0  0  0  0  0  0  0  0  0  0
   14.7130   40.9932   10.8479 C   0  0  0  0  0  0  0  0  0  0  0  0
   15.5523   40.6901    9.6135 C   0  0  0  0  0  0  0  0  0  0  0  0
   15.1847   41.5807    8.4738 C   0  0  0  0  0  0  0  0  0  0  0  0
   14.2568   42.7675    6.6141 C   0  0  0  0  0  0  0  0  0  0  0  0
   13.9053   44.3593    4.6677 C   0  0  0  0  0  0  0  0  0  0  0  0
   13.4000   45.8287    2.7600 C   0  0  0  0  0  0  0  0  0  0  0  0
   16.0241   42.5069    7.9608 N   0  0  0  0  0  0  0  0  0  0  0  0
   15.5077   43.1708    6.9281 N   0  0  0  0  0  0  0  0  0  0  0  0
   13.4772   43.3135    5.5458 N   0  0  0  0  0  0  0  0  0  0  0  0
   15.0474   44.8801    4.7963 O   0  0  0  0  0  0  0  0  0  0  0  0
   13.0396   44.7960    3.6650 O   0  0  0  0  0  0  0  0  0  0  0  0
   13.7250   41.5362    7.6285 S   0  0  0  0  0  0  0  0  0  0  0  0
  1  2  1  0
  2  3  1  0
  3  4  1  0
  4  5  1  0
  5  6  1  0
  6  7  1  0
  7 16  1  0
  8 13  1  0
  8 16  1  0
  9 15  1  0
 10 15  1  0
 11 12  1  0
 13  9  1  0
  7 11  2  0
  8 12  2  0
  9 14  2  0
M  END
>  <rmsd>  (776) 
0.197229877

$$$$
MolPort-002-455-717 2685898 CSSS03437110693 ChemDiv-D039-0045 MCULE-8838929789 PubChem-2134006 ZINC000002685898 ZINC02685898
     RDKit          3D

 26 27  0  0  0  0  0  0  0  0999 V2000
   12.7800   39.2599   11.8288 C   0  0  0  0  0  0  0  0  0  0  0  0
   13.9087   38.9258   10.8759 C   0  0  0  0  0  0  0  0  0  0  0  0
   15.0109   40.6656    9.5251 C   0  0  0  0  0  0  0  0  0  0  0  0
   14.9584   41.6178    8.3969 C   0  0  0  0  0  0  0  0  0  0  0  0
   15.9552   42.4931    7.9821 C   0  0  0  0  0  0  0  0  0  0  0  0
   17.3010   42.6493    8.6021 C   0  0  0  0  0  0  0  0  0  0  0  0
   14.3067   42.8005    6.6480 C   0  0  0  0  0  0  0  0  0  0  0  0
   13.9057   44.3266    4.6582 C   0  0  0  0  0  0  0  0  0  0  0  0
   13.3367   45.5844    2.5245 C   0  0  0  0  0  0  0  0  0  0  0  0
   12.4878   46.6611    2.1993 C   0  0  0  0  0  0  0  0  0  0  0  0
   11.2736   46.9614    3.0162 C   0  0  0  0  0  0  0  0  0  0  0  0
   11.6318   47.8813    4.1682 C   0  0  0  0  0  0  0  0  0  0  0  0
   12.7980   47.4992    1.1237 C   0  0  0  0  0  0  0  0  0  0  0  0
   13.9301   47.2584    0.3459 C   0  0  0  0  0  0  0  0  0  0  0  0
   14.7568   46.1733    0.6362 C   0  0  0  0  0  0  0  0  0  0  0  0
   14.4712   45.3315    1.7165 C   0  0  0  0  0  0  0  0  0  0  0  0
   15.3378   44.1309    1.9180 C   0  0  0  0  0  0  0  0  0  0  0  0
   14.7604   42.9372    1.1814 C   0  0  0  0  0  0  0  0  0  0  0  0
   13.9001   41.8235    7.5305 C   0  0  0  0  0  0  0  0  0  0  0  0
   12.5756   41.1380    7.5319 C   0  0  0  0  0  0  0  0  0  0  0  0
   13.9099   39.8518    9.7997 O   0  0  0  0  0  0  0  0  0  0  0  0
   16.0479   40.5885   10.2392 O   0  0  0  0  0  0  0  0  0  0  0  0
   15.0326   44.8821    4.7683 O   0  0  0  0  0  0  0  0  0  0  0  0
   15.5612   43.2165    6.9143 N   0  0  0  0  0  0  0  0  0  0  0  0
   13.5009   43.3090    5.5786 N   0  0  0  0  0  0  0  0  0  0  0  0
   12.9963   44.7370    3.6333 N   0  0  0  0  0  0  0  0  0  0  0  0
  1  2  1  0
  2 21  1  0
  3 21  1  0
  3  4  1  0
  5 24  1  0
  6  5  1  0
  7 25  1  0
  8 26  1  0
 10 13  2  0
 11 10  1  0
 11 12  1  0
 14 15  2  0
 16  9  2  0
 17 16  1  0
 17 18  1  0
 19  4  1  0
 20 19  1  0
 24  7  1  0
 25  8  1  0
 26  9  1  0
  3 22  2  0
  4  5  2  0
  7 19  2  0
  8 23  2  0
  9 10  1  0
 13 14  1  0
 15 16  1  0
M  END
>  <rmsd>  (777) 
0.197191805

$$$$
MolPort-047-152-205 1772718345 CSSS02495358449 MCULE-4541011171 PubChem-138106020
     RDKit          3D

 19 21  0  0  0  0  0  0  0  0999 V2000
   17.1088   42.5741    8.7178 C   0  0  0  0  0  0  0  0  0  0  0  0
   14.8348   41.6059    8.3402 C   0  0  0  0  0  0  0  0  0  0  0  0
   13.6815   39.9176    9.4971 C   0  0  0  0  0  0  0  0  0  0  0  0
   12.5839   40.0638    8.5960 C   0  0  0  0  0  0  0  0  0  0  0  0
   12.6434   41.0202    7.5646 C   0  0  0  0  0  0  0  0  0  0  0  0
   13.8006   41.7800    7.4769 C   0  0  0  0  0  0  0  0  0  0  0  0
   14.2227   42.7788    6.6275 C   0  0  0  0  0  0  0  0  0  0  0  0
   13.9233   44.3519    4.6575 C   0  0  0  0  0  0  0  0  0  0  0  0
   13.0696   44.8268    3.5648 C   0  0  0  0  0  0  0  0  0  0  0  0
   11.8626   44.3210    3.3483 C   0  0  0  0  0  0  0  0  0  0  0  0
   13.6474   38.8790   10.5815 C   0  0  0  0  0  0  0  0  0  0  0  0
   12.7963   39.3753   11.7376 C   0  0  0  0  0  0  0  0  0  0  0  0
   14.3021   39.3920   11.8543 C   0  0  0  0  0  0  0  0  0  0  0  0
   15.8329   42.4503    8.0357 N   0  0  0  0  0  0  0  0  0  0  0  0
   14.8031   40.6913    9.3395 N   0  0  0  0  0  0  0  0  0  0  0  0
   15.4706   43.1783    6.9844 N   0  0  0  0  0  0  0  0  0  0  0  0
   13.4690   43.3126    5.5343 N   0  0  0  0  0  0  0  0  0  0  0  0
   15.0599   44.8721    4.8119 O   0  0  0  0  0  0  0  0  0  0  0  0
   11.0129   38.9773    8.7262 Br  0  0  0  0  0  0  0  0  0  0  0  0
  1 14  1  0
  3 15  2  0
  4  5  2  0
  4 19  1  0
  6  7  1  0
  6  2  2  0
  7 17  1  0
  8  9  1  0
 11  3  1  0
 11 12  1  0
 12 13  1  0
 13 11  1  0
 14  2  1  0
 14 16  1  0
 17  8  1  0
  2 15  1  0
  3  4  1  0
  5  6  1  0
  7 16  2  0
  8 18  2  0
  9 10  2  0
M  END
>  <rmsd>  (778) 
0.197188407

$$$$
MolPort-002-784-756 20616519 CSSS00160413342 MCULE-3638599793 ZINC000020616519
     RDKit          3D

 22 23  0  0  0  0  0  0  0  0999 V2000
   12.8496   39.2472   11.7807 C   0  0  0  0  0  0  0  0  0  0  0  0
   14.0073   38.9771   10.8426 C   0  0  0  0  0  0  0  0  0  0  0  0
   15.0238   40.7741    9.5013 C   0  0  0  0  0  0  0  0  0  0  0  0
   14.9303   41.7085    8.3754 C   0  0  0  0  0  0  0  0  0  0  0  0
   14.2691   42.8151    6.6615 C   0  0  0  0  0  0  0  0  0  0  0  0
   13.9008   44.3481    4.6689 C   0  0  0  0  0  0  0  0  0  0  0  0
   13.0059   44.7760    3.5731 C   0  0  0  0  0  0  0  0  0  0  0  0
   11.6159   44.7670    3.5492 C   0  0  0  0  0  0  0  0  0  0  0  0
   11.2615   45.1843    2.2763 C   0  0  0  0  0  0  0  0  0  0  0  0
   14.8033   45.3179    1.9093 C   0  0  0  0  0  0  0  0  0  0  0  0
   10.6559   44.4817    4.6291 C   0  0  0  0  0  0  0  0  0  0  0  0
   13.8533   41.8116    7.5125 C   0  0  0  0  0  0  0  0  0  0  0  0
   13.9680   39.8985    9.7631 O   0  0  0  0  0  0  0  0  0  0  0  0
   16.0564   40.7681   10.2257 O   0  0  0  0  0  0  0  0  0  0  0  0
   15.0415   44.8723    4.7805 O   0  0  0  0  0  0  0  0  0  0  0  0
    9.3099   44.3167    4.3268 O   0  0  0  0  0  0  0  0  0  0  0  0
   11.0264   44.4294    5.8301 O   0  0  0  0  0  0  0  0  0  0  0  0
   15.8978   42.5872    8.0496 N   0  0  0  0  0  0  0  0  0  0  0  0
   15.4911   43.2696    6.9937 N   0  0  0  0  0  0  0  0  0  0  0  0
   13.4919   43.3102    5.5670 N   0  0  0  0  0  0  0  0  0  0  0  0
   12.3892   45.4313    1.5788 N   0  0  0  0  0  0  0  0  0  0  0  0
   13.4272   45.1927    2.3620 N   0  0  0  0  0  0  0  0  0  0  0  0
  1  2  1  0
  2 13  1  0
  3 13  1  0
  3  4  1  0
  5 20  1  0
  6  7  1  0
  8  9  1  0
  8 11  1  0
 10 22  1  0
 11 16  1  0
 12  4  1  0
 19 18  1  0
 19  5  1  0
 20  6  1  0
 22 21  1  0
 22  7  1  0
  3 14  2  0
  4 18  2  0
  5 12  2  0
  6 15  2  0
  7  8  2  0
  9 21  2  0
 11 17  2  0
M  END
>  <rmsd>  (779) 
0.197185472

$$$$
Molport-053-349-738
     RDKit          3D

 16 17  0  0  0  0  0  0  0  0999 V2000
   17.3414   42.4122    8.4079 C   0  0  0  0  0  0  0  0  0  0  0  0
   14.2662   42.7990    6.6262 C   0  0  0  0  0  0  0  0  0  0  0  0
   13.9767   44.2519    4.5792 C   0  0  0  0  0  0  0  0  0  0  0  0
   13.2458   44.5516    3.3321 C   0  0  0  0  0  0  0  0  0  0  0  0
   12.2808   43.7764    2.8392 C   0  0  0  0  0  0  0  0  0  0  0  0
   13.8240   41.9580    7.6285 C   0  0  0  0  0  0  0  0  0  0  0  0
   12.5839   41.3905    7.9147 C   0  0  0  0  0  0  0  0  0  0  0  0
   12.4953   40.5580    9.0463 C   0  0  0  0  0  0  0  0  0  0  0  0
   13.6335   40.3162    9.8519 C   0  0  0  0  0  0  0  0  0  0  0  0
   14.8722   40.9062    9.5318 C   0  0  0  0  0  0  0  0  0  0  0  0
   14.9261   41.7269    8.4043 C   0  0  0  0  0  0  0  0  0  0  0  0
   15.9783   42.3945    7.8916 N   0  0  0  0  0  0  0  0  0  0  0  0
   15.5864   43.0495    6.8034 N   0  0  0  0  0  0  0  0  0  0  0  0
   13.4740   43.3111    5.5445 N   0  0  0  0  0  0  0  0  0  0  0  0
   15.0508   44.8722    4.8028 O   0  0  0  0  0  0  0  0  0  0  0  0
   13.4909   39.1828   11.3818 Br  0  0  0  0  0  0  0  0  0  0  0  0
  1 12  1  0
  2 14  1  0
  2  6  1  0
  3  4  1  0
  7  8  2  0
  9 16  1  0
  9 10  2  0
 11 12  1  0
 11  6  2  0
 12 13  1  0
 14  3  1  0
  2 13  2  0
  3 15  2  0
  4  5  2  0
  6  7  1  0
  8  9  1  0
 10 11  1  0
M  END
>  <rmsd>  (780) 
0.197166309

$$$$
MolPort-001-895-901 6783020 CSSS00160246305 PubChem-1950138 ZINC000006783020 ZINC06783020
     RDKit          3D

 21 22  0  0  0  0  0  0  0  0999 V2000
   13.8330   36.9824   12.5894 C   0  0  0  0  0  0  0  0  0  0  0  0
   13.7115   38.4821   12.4230 C   0  0  0  0  0  0  0  0  0  0  0  0
   13.4388   38.8084   10.9669 C   0  0  0  0  0  0  0  0  0  0  0  0
   13.3225   40.3125   10.7724 C   0  0  0  0  0  0  0  0  0  0  0  0
   14.6857   40.9899   10.8473 C   0  0  0  0  0  0  0  0  0  0  0  0
   15.5302   40.6868    9.6163 C   0  0  0  0  0  0  0  0  0  0  0  0
   15.1683   41.5784    8.4755 C   0  0  0  0  0  0  0  0  0  0  0  0
   14.2496   42.7666    6.6122 C   0  0  0  0  0  0  0  0  0  0  0  0
   13.9067   44.3597    4.6649 C   0  0  0  0  0  0  0  0  0  0  0  0
   13.2704   45.8345    2.6652 C   0  0  0  0  0  0  0  0  0  0  0  0
   14.4804   46.5453    2.6331 C   0  0  0  0  0  0  0  0  0  0  0  0
   14.6901   47.5415    1.6751 C   0  0  0  0  0  0  0  0  0  0  0  0
   13.6915   47.8342    0.7425 C   0  0  0  0  0  0  0  0  0  0  0  0
   12.4843   47.1307    0.7685 C   0  0  0  0  0  0  0  0  0  0  0  0
   12.2760   46.1346    1.7272 C   0  0  0  0  0  0  0  0  0  0  0  0
   16.0106   42.5044    7.9669 N   0  0  0  0  0  0  0  0  0  0  0  0
   15.4993   43.1691    6.9321 N   0  0  0  0  0  0  0  0  0  0  0  0
   13.4749   43.3137    5.5407 N   0  0  0  0  0  0  0  0  0  0  0  0
   13.0183   44.8058    3.6324 N   0  0  0  0  0  0  0  0  0  0  0  0
   15.0481   44.8772    4.8015 O   0  0  0  0  0  0  0  0  0  0  0  0
   13.7123   41.5351    7.6234 S   0  0  0  0  0  0  0  0  0  0  0  0
  1  2  1  0
  2  3  1  0
  3  4  1  0
  4  5  1  0
  5  6  1  0
  6  7  1  0
  7 21  1  0
  8 18  1  0
  8 21  1  0
  9 19  1  0
 11 12  2  0
 13 14  2  0
 15 10  2  0
 16 17  1  0
 18  9  1  0
 19 10  1  0
  7 16  2  0
  8 17  2  0
  9 20  2  0
 10 11  1  0
 12 13  1  0
 14 15  1  0
M  END
>  <rmsd>  (781) 
0.196749046

$$$$
Molport-053-332-402 MCULE-4622279178
     RDKit          3D

 19 20  0  0  0  0  0  0  0  0999 V2000
   11.3697   42.4270   -0.4384 C   0  0  0  0  0  0  0  0  0  0  0  0
   12.5059   43.3073   -0.0145 C   0  0  0  0  0  0  0  0  0  0  0  0
   12.3457   44.2538    1.1433 C   0  0  0  0  0  0  0  0  0  0  0  0
   13.2287   43.8259    2.3203 C   0  0  0  0  0  0  0  0  0  0  0  0
   13.0493   44.7682    3.5143 C   0  0  0  0  0  0  0  0  0  0  0  0
   13.9193   44.3374    4.6567 C   0  0  0  0  0  0  0  0  0  0  0  0
   14.2598   42.7994    6.6351 C   0  0  0  0  0  0  0  0  0  0  0  0
   13.8265   41.9317    7.6153 C   0  0  0  0  0  0  0  0  0  0  0  0
   14.9173   41.7400    8.4149 C   0  0  0  0  0  0  0  0  0  0  0  0
   14.8703   40.9239    9.5426 C   0  0  0  0  0  0  0  0  0  0  0  0
   13.6456   40.2940    9.8414 C   0  0  0  0  0  0  0  0  0  0  0  0
   12.5155   40.4950    9.0121 C   0  0  0  0  0  0  0  0  0  0  0  0
   12.5995   41.3262    7.8784 C   0  0  0  0  0  0  0  0  0  0  0  0
   13.4708   43.3067    5.5495 N   0  0  0  0  0  0  0  0  0  0  0  0
   15.9556   42.4506    7.9431 N   0  0  0  0  0  0  0  0  0  0  0  0
   15.5630   43.1023    6.8532 N   0  0  0  0  0  0  0  0  0  0  0  0
   13.5195   39.2602   11.2523 Cl  0  0  0  0  0  0  0  0  0  0  0  0
   15.0529   44.8694    4.8045 O   0  0  0  0  0  0  0  0  0  0  0  0
   13.5688   43.2591   -0.6156 O   0  0  0  0  0  0  0  0  0  0  0  0
  1  2  1  0
  3  2  1  0
  3  4  1  0
  4  5  1  0
  5  6  1  0
  6 14  1  0
  7  8  1  0
  9 10  2  0
  9 15  1  0
 11 12  2  0
 11 17  1  0
 13  8  2  0
 14  7  1  0
 15 16  1  0
  2 19  2  0
  6 18  2  0
  7 16  2  0
  8  9  1  0
 10 11  1  0
 12 13  1  0
M  END
>  <rmsd>  (782) 
0.196570739

$$$$
MolPort-028-600-077 94568761 LN01806253 MCULE-5008418291 PubChem-53404549 ZINC000094568761 ZINC94568761
     RDKit          3D

 18 18  0  0  0  0  0  0  0  0999 V2000
   12.7713   39.3137   11.6898 C   0  0  0  0  0  0  0  0  0  0  0  0
   13.9181   39.0029   10.7509 C   0  0  0  0  0  0  0  0  0  0  0  0
   15.0207   40.7689    9.4372 C   0  0  0  0  0  0  0  0  0  0  0  0
   14.9694   41.7198    8.3222 C   0  0  0  0  0  0  0  0  0  0  0  0
   15.9756   42.5971    7.9636 C   0  0  0  0  0  0  0  0  0  0  0  0
   14.3178   42.8180    6.6589 C   0  0  0  0  0  0  0  0  0  0  0  0
   13.8974   44.3291    4.6728 C   0  0  0  0  0  0  0  0  0  0  0  0
   13.2697   45.7244    2.6867 C   0  0  0  0  0  0  0  0  0  0  0  0
   14.4721   45.3472    1.8387 C   0  0  0  0  0  0  0  0  0  0  0  0
   13.5105   47.0686    3.3520 C   0  0  0  0  0  0  0  0  0  0  0  0
   12.0643   45.8489    1.7792 C   0  0  0  0  0  0  0  0  0  0  0  0
   13.9250   39.9398    9.6842 O   0  0  0  0  0  0  0  0  0  0  0  0
   16.0497   40.7056   10.1644 O   0  0  0  0  0  0  0  0  0  0  0  0
   15.5257   43.2594    6.9244 O   0  0  0  0  0  0  0  0  0  0  0  0
   15.0307   44.8748    4.7722 O   0  0  0  0  0  0  0  0  0  0  0  0
   13.0039   44.7161    3.6649 O   0  0  0  0  0  0  0  0  0  0  0  0
   13.9108   41.8509    7.5006 N   0  0  0  0  0  0  0  0  0  0  0  0
   13.5029   43.3037    5.5886 N   0  0  0  0  0  0  0  0  0  0  0  0
  1  2  1  0
  2 12  1  0
  3 12  1  0
  3  4  1  0
  4 17  1  0
  5 14  1  0
  6 14  1  0
  6 18  1  0
  7 16  1  0
  8 16  1  0
  8  9  1  0
  8 10  1  0
  8 11  1  0
 18  7  1  0
  3 13  2  0
  4  5  2  0
  6 17  2  0
  7 15  2  0
M  END
>  <rmsd>  (783) 
0.196499437

$$$$
MolPort-005-074-788 CSSS09880945578 MCULE-8079263191 PubChem-45207808
     RDKit          3D

 29 32  0  0  0  0  0  0  0  0999 V2000
   16.2678   41.8362    2.6939 C   0  0  0  0  0  0  0  0  0  0  0  0
   16.2929   42.0001    5.1500 C   0  0  0  0  0  0  0  0  0  0  0  0
   15.5745   42.2238    6.4155 C   0  0  0  0  0  0  0  0  0  0  0  0
   14.2803   42.7520    6.5840 C   0  0  0  0  0  0  0  0  0  0  0  0
   13.9260   44.3276    4.6370 C   0  0  0  0  0  0  0  0  0  0  0  0
   13.0684   44.7252    3.4801 C   0  0  0  0  0  0  0  0  0  0  0  0
   11.7085   45.1825    3.9761 C   0  0  0  0  0  0  0  0  0  0  0  0
   12.7416   46.2055    3.5625 C   0  0  0  0  0  0  0  0  0  0  0  0
   13.8426   42.6903    7.9111 C   0  0  0  0  0  0  0  0  0  0  0  0
   12.6143   43.1188    8.4138 C   0  0  0  0  0  0  0  0  0  0  0  0
   12.3738   42.9813    9.7896 C   0  0  0  0  0  0  0  0  0  0  0  0
   13.3656   42.4268   10.6236 C   0  0  0  0  0  0  0  0  0  0  0  0
   13.1055   42.2621   12.0815 C   0  0  0  0  0  0  0  0  0  0  0  0
   11.3772   41.4492   13.4509 C   0  0  0  0  0  0  0  0  0  0  0  0
   12.9696   39.8867   12.6389 C   0  0  1  0  0  0  0  0  0  0  0  0
   13.4914   39.2053   11.3845 C   0  0  0  0  0  0  0  0  0  0  0  0
   14.0393   40.0322   13.6915 C   0  0  0  0  0  0  0  0  0  0  0  0
   13.9377   39.5523   14.9862 C   0  0  0  0  0  0  0  0  0  0  0  0
   15.0951   39.7824   15.7443 C   0  0  0  0  0  0  0  0  0  0  0  0
   16.1172   40.4314   15.0552 C   0  0  0  0  0  0  0  0  0  0  0  0
   14.7827   42.1559    8.7703 C   0  0  0  0  0  0  0  0  0  0  0  0
   15.6110   42.0530    3.9334 O   0  0  0  0  0  0  0  0  0  0  0  0
   17.5232   41.7224    5.1763 O   0  0  0  0  0  0  0  0  0  0  0  0
   15.0491   44.8771    4.8017 O   0  0  0  0  0  0  0  0  0  0  0  0
   13.4742   43.3134    5.5412 N   0  0  0  0  0  0  0  0  0  0  0  0
   12.2266   41.1184   12.3178 N   0  0  0  0  0  0  0  0  0  0  0  0
   14.5585   42.0199   10.1000 N   0  0  0  0  0  0  0  0  0  0  0  0
   15.5624   40.7132   13.4929 S   0  0  0  0  0  0  0  0  0  0  0  0
   16.1642   41.7236    7.9272 S   0  0  0  0  0  0  0  0  0  0  0  0
  1 22  1  0
  2 22  1  0
  2  3  1  0
  3 29  1  0
  4 25  1  0
  4  9  1  0
  6  5  1  0
  6  7  1  0
  7  8  1  0
  8  6  1  0
 10 11  2  0
 12 27  2  0
 13 12  1  0
 13 26  1  0
 14 26  1  0
 15 26  1  0
 15 16  1  6
 15 17  1  0
 17 28  1  0
 18 19  1  0
 20 28  1  0
 21 29  1  0
 21  9  2  0
 25  5  1  0
  2 23  2  0
  3  4  2  0
  5 24  2  0
  9 10  1  0
 11 12  1  0
 17 18  2  0
 19 20  2  0
 21 27  1  0
M  END
>  <rmsd>  (784) 
0.196401909

$$$$
MolPort-010-852-196 41076408 ChemDiv-G952-1299 MCULE-1760288747 PubChem-52095940 ZINC000041076408 ZINC41076408
     RDKit          3D

 24 26  0  0  0  0  0  0  0  0999 V2000
   14.0533   39.0101   11.9548 C   0  0  0  0  0  0  0  0  0  0  0  0
   13.1112   39.5939   10.9189 C   0  0  0  0  0  0  0  0  0  0  0  0
   13.6605   39.3802    9.5179 C   0  0  0  0  0  0  0  0  0  0  0  0
   14.7036   40.3971    9.1884 C   0  0  0  0  0  0  0  0  0  0  0  0
   15.7344   41.9750    8.2620 C   0  0  0  0  0  0  0  0  0  0  0  0
   14.2210   42.7045    6.5889 C   0  0  0  0  0  0  0  0  0  0  0  0
   13.9067   44.3897    4.6920 C   0  0  0  0  0  0  0  0  0  0  0  0
   12.9764   44.9378    3.6648 C   0  0  0  0  0  0  0  0  0  0  0  0
   11.9393   46.8467    4.8726 C   0  0  0  0  0  0  0  0  0  0  0  0
   10.8086   47.3615    5.5160 C   0  0  0  0  0  0  0  0  0  0  0  0
   10.8474   48.6281    6.1069 C   0  0  0  0  0  0  0  0  0  0  0  0
    9.6422   49.1666    6.7891 C   0  0  0  0  0  0  0  0  0  0  0  0
   12.0195   49.3879    6.0563 C   0  0  0  0  0  0  0  0  0  0  0  0
   13.1528   48.8818    5.4141 C   0  0  0  0  0  0  0  0  0  0  0  0
   14.3992   49.6888    5.3595 C   0  0  0  0  0  0  0  0  0  0  0  0
   13.1138   47.6159    4.8230 C   0  0  0  0  0  0  0  0  0  0  0  0
   15.9106   40.5235    9.8040 N   0  0  0  0  0  0  0  0  0  0  0  0
   16.5698   41.5307    9.2163 N   0  0  0  0  0  0  0  0  0  0  0  0
   13.4732   43.3112    5.5285 N   0  0  0  0  0  0  0  0  0  0  0  0
   13.7192   41.6647    7.3139 N   0  0  0  0  0  0  0  0  0  0  0  0
   14.6120   41.3116    8.2237 N   0  0  0  0  0  0  0  0  0  0  0  0
   15.8058   43.1814    7.1036 S   0  0  0  0  0  0  0  0  0  0  0  0
   15.0562   44.8889    4.8109 O   0  0  0  0  0  0  0  0  0  0  0  0
   11.8675   45.5761    4.2909 O   0  0  0  0  0  0  0  0  0  0  0  0
  1  2  1  0
  2  3  1  0
  3  4  1  0
  5 22  1  0
  6 22  1  0
  6 19  1  0
  8  7  1  0
  8 24  1  0
  9 24  1  0
 10 11  2  0
 12 11  1  0
 13 14  2  0
 15 14  1  0
 16  9  2  0
 17 18  1  0
 19  7  1  0
 21 20  1  0
 21  4  1  0
 21  5  1  0
  4 17  2  0
  5 18  2  0
  6 20  2  0
  7 23  2  0
  9 10  1  0
 11 13  1  0
 14 16  1  0
M  END
>  <rmsd>  (785) 
0.196091086

$$$$
MolPort-002-455-712 568486 CSC026737907 CSSS00026737907 ChemDiv-D039-0036 MCULE-3172344502 PubChem-959504 Z57394225 ZINC000000568486 ZINC00568486
     RDKit          3D

 24 25  0  0  0  0  0  0  0  0999 V2000
   12.7800   39.2644   11.8314 C   0  0  0  0  0  0  0  0  0  0  0  0
   13.9051   38.9260   10.8759 C   0  0  0  0  0  0  0  0  0  0  0  0
   15.0105   40.6615    9.5221 C   0  0  0  0  0  0  0  0  0  0  0  0
   14.9587   41.6137    8.3939 C   0  0  0  0  0  0  0  0  0  0  0  0
   15.9577   42.4853    7.9764 C   0  0  0  0  0  0  0  0  0  0  0  0
   17.3054   42.6368    8.5932 C   0  0  0  0  0  0  0  0  0  0  0  0
   14.3071   42.7982    6.6460 C   0  0  0  0  0  0  0  0  0  0  0  0
   13.9064   44.3261    4.6572 C   0  0  0  0  0  0  0  0  0  0  0  0
   13.3301   45.5475    2.4994 C   0  0  0  0  0  0  0  0  0  0  0  0
   12.4126   46.5189    2.0837 C   0  0  0  0  0  0  0  0  0  0  0  0
   12.6829   47.3257    0.9766 C   0  0  0  0  0  0  0  0  0  0  0  0
   13.8713   47.1579    0.2654 C   0  0  0  0  0  0  0  0  0  0  0  0
   14.7815   46.1724    0.6520 C   0  0  0  0  0  0  0  0  0  0  0  0
   14.5176   45.3493    1.7602 C   0  0  0  0  0  0  0  0  0  0  0  0
   16.6080   44.0661    1.4074 C   0  0  0  0  0  0  0  0  0  0  0  0
   13.8991   41.8228    7.5298 C   0  0  0  0  0  0  0  0  0  0  0  0
   12.5721   41.1420    7.5344 C   0  0  0  0  0  0  0  0  0  0  0  0
   13.9072   39.8517    9.7994 O   0  0  0  0  0  0  0  0  0  0  0  0
   16.0488   40.5809   10.2337 O   0  0  0  0  0  0  0  0  0  0  0  0
   15.0325   44.8823    4.7697 O   0  0  0  0  0  0  0  0  0  0  0  0
   15.4007   44.3220    2.1122 O   0  0  0  0  0  0  0  0  0  0  0  0
   15.5638   43.2098    6.9093 N   0  0  0  0  0  0  0  0  0  0  0  0
   13.5006   43.3090    5.5781 N   0  0  0  0  0  0  0  0  0  0  0  0
   12.9942   44.7406    3.6356 N   0  0  0  0  0  0  0  0  0  0  0  0
  1  2  1  0
  2 18  1  0
  3 18  1  0
  3  4  1  0
  5 22  1  0
  6  5  1  0
  7 23  1  0
  8 24  1  0
 10 11  2  0
 12 13  2  0
 14 21  1  0
 14  9  2  0
 15 21  1  0
 16  4  1  0
 17 16  1  0
 22  7  1  0
 23  8  1  0
 24  9  1  0
  3 19  2  0
  4  5  2  0
  7 16  2  0
  8 20  2  0
  9 10  1  0
 11 12  1  0
 13 14  1  0
M  END
>  <rmsd>  (786) 
0.195869729

$$$$
MolPort-002-865-759 5681527 CHEMBL1549343 CSSS00138423839 MCULE-5667514739 PubChem-4303516 ZINC000005681527 ZINC05681527
     RDKit          3D

 27 29  0  0  0  0  0  0  0  0999 V2000
   14.5363   35.9450   11.9076 F   0  0  0  0  0  0  0  0  0  0  0  0
   15.1927   37.2415   13.6298 F   0  0  0  0  0  0  0  0  0  0  0  0
   13.0674   36.5109   13.5156 F   0  0  0  0  0  0  0  0  0  0  0  0
   14.1479   36.9533   12.7708 C   0  0  0  0  0  0  0  0  0  0  0  0
   13.7939   38.1805   11.9818 C   0  0  0  0  0  0  0  0  0  0  0  0
   12.5105   38.7397   12.0523 C   0  0  0  0  0  0  0  0  0  0  0  0
   12.1999   39.8846   11.3156 C   0  0  0  0  0  0  0  0  0  0  0  0
   13.1691   40.4754   10.5017 C   0  0  0  0  0  0  0  0  0  0  0  0
   14.4550   39.9246   10.4091 C   0  0  0  0  0  0  0  0  0  0  0  0
   14.7596   38.7810   11.1626 C   0  0  0  0  0  0  0  0  0  0  0  0
   15.5029   40.5548    9.5746 C   0  0  0  0  0  0  0  0  0  0  0  0
   14.2673   42.7577    6.6067 C   0  0  0  0  0  0  0  0  0  0  0  0
   13.9000   44.3626    4.6740 C   0  0  0  0  0  0  0  0  0  0  0  0
   12.9930   44.8463    3.6182 C   0  0  0  0  0  0  0  0  0  0  0  0
   11.7183   44.2814    3.4654 C   0  0  0  0  0  0  0  0  0  0  0  0
   10.8571   44.7396    2.4640 C   0  0  0  0  0  0  0  0  0  0  0  0
   11.2643   45.7663    1.6080 C   0  0  0  0  0  0  0  0  0  0  0  0
   12.5325   46.3350    1.7529 C   0  0  0  0  0  0  0  0  0  0  0  0
   13.3938   45.8767    2.7544 C   0  0  0  0  0  0  0  0  0  0  0  0
   16.0129   42.4229    7.9760 C   0  0  0  0  0  0  0  0  0  0  0  0
   16.7109   40.2683    9.7991 O   0  0  0  0  0  0  0  0  0  0  0  0
   15.0443   44.8777    4.8029 O   0  0  0  0  0  0  0  0  0  0  0  0
   17.1730   42.6303    8.4210 O   0  0  0  0  0  0  0  0  0  0  0  0
   15.1857   41.4809    8.5177 N   0  0  0  0  0  0  0  0  0  0  0  0
   13.4773   43.3091    5.5495 N   0  0  0  0  0  0  0  0  0  0  0  0
   15.5235   43.1456    6.9225 N   0  0  0  0  0  0  0  0  0  0  0  0
   13.7831   41.5332    7.6222 S   0  0  0  0  0  0  0  0  0  0  0  0
  4  1  1  0
  4  2  1  0
  4  3  1  0
  4  5  1  0
  6  7  2  0
  8  9  2  0
  9 11  1  0
 10  5  2  0
 11 24  1  0
 12 27  1  0
 12 25  1  0
 13 14  1  0
 15 16  2  0
 17 18  2  0
 19 14  2  0
 20 26  1  0
 20 24  1  0
 24 27  1  0
 25 13  1  0
  5  6  1  0
  7  8  1  0
  9 10  1  0
 11 21  2  0
 12 26  2  0
 13 22  2  0
 14 15  1  0
 16 17  1  0
 18 19  1  0
 20 23  2  0
M  END
>  <rmsd>  (787) 
0.19551152

$$$$
MolPort-007-723-643 6818398 CHEMBL1311429 ChemDiv-E157-6969 MCULE-8039060778 PubChem-22518151 ZINC000006818398 ZINC06818398
     RDKit          3D

 24 25  0  0  0  0  0  0  0  0999 V2000
   12.6681   46.2810    3.7469 C   0  0  0  0  0  0  0  0  0  0  0  0
   13.0008   44.8111    3.5767 C   0  0  0  0  0  0  0  0  0  0  0  0
   13.6337   44.5795    2.2180 C   0  0  0  0  0  0  0  0  0  0  0  0
   13.9121   44.3497    4.6658 C   0  0  0  0  0  0  0  0  0  0  0  0
   14.2358   42.7723    6.6276 C   0  0  0  0  0  0  0  0  0  0  0  0
   15.1346   41.6037    8.5053 C   0  0  0  0  0  0  0  0  0  0  0  0
   13.5282   39.2756   11.2639 C   0  0  0  0  0  0  0  0  0  0  0  0
   13.5797   41.7769   11.5339 C   0  0  0  0  0  0  0  0  0  0  0  0
   12.4384   41.7279   12.3527 C   0  0  0  0  0  0  0  0  0  0  0  0
   11.9023   42.8976   12.8985 C   0  0  0  0  0  0  0  0  0  0  0  0
   10.6949   42.8289   13.7618 C   0  0  0  0  0  0  0  0  0  0  0  0
   12.5005   44.1312   12.6314 C   0  0  0  0  0  0  0  0  0  0  0  0
   13.6354   44.1946   11.8199 C   0  0  0  0  0  0  0  0  0  0  0  0
   14.2727   45.5057   11.5333 C   0  0  0  0  0  0  0  0  0  0  0  0
   14.1712   43.0246   11.2760 C   0  0  0  0  0  0  0  0  0  0  0  0
   15.0520   44.8729    4.8032 O   0  0  0  0  0  0  0  0  0  0  0  0
   16.6836   41.1678   10.6340 O   0  0  0  0  0  0  0  0  0  0  0  0
   15.8281   39.2170    9.4301 O   0  0  0  0  0  0  0  0  0  0  0  0
   13.4709   43.3101    5.5448 N   0  0  0  0  0  0  0  0  0  0  0  0
   15.4810   43.1816    6.9574 N   0  0  0  0  0  0  0  0  0  0  0  0
   15.9809   42.5301    8.0056 N   0  0  0  0  0  0  0  0  0  0  0  0
   14.1277   40.5695   10.9675 N   0  0  0  0  0  0  0  0  0  0  0  0
   13.6857   41.5529    7.6479 S   0  0  0  0  0  0  0  0  0  0  0  0
   15.4989   40.6068    9.8989 S   0  0  0  0  0  0  0  0  0  0  0  0
  1  2  1  0
  2  3  1  0
  2  4  1  0
  4 19  1  0
  5 23  1  0
  6 23  1  0
  7 22  1  0
  9 10  2  0
 11 10  1  0
 12 13  2  0
 14 13  1  0
 15  8  2  0
 19  5  1  0
 20 21  1  0
 22  8  1  0
 24  6  1  0
 24 22  1  0
  4 16  2  0
  5 20  2  0
  6 21  2  0
  8  9  1  0
 10 12  1  0
 13 15  1  0
 24 17  2  0
 24 18  2  0
M  END
>  <rmsd>  (788) 
0.19533886

$$$$
MolPort-035-873-043 CSSS00160825063 MCULE-7681890348 PubChem-100020889 ZINC000218602886
     RDKit          3D

 27 29  0  0  0  0  0  0  0  0999 V2000
   12.9010   38.5881   13.6268 C   0  0  0  0  0  0  0  0  0  0  0  0
   13.3273   38.5277   12.1755 C   0  0  0  0  0  0  0  0  0  0  0  0
   13.1244   39.8866   11.5321 C   0  0  0  0  0  0  0  0  0  0  0  0
   13.5511   39.8523   10.0757 C   0  0  0  0  0  0  0  0  0  0  0  0
   15.0669   39.8598    9.9667 C   0  0  0  0  0  0  0  0  0  0  0  0
   15.4907   39.8384    8.5069 C   0  0  0  0  0  0  0  0  0  0  0  0
   15.2622   43.2263    7.4225 C   0  0  0  0  0  0  0  0  0  0  0  0
   15.5609   44.6730    7.6062 C   0  0  0  0  0  0  0  0  0  0  0  0
   14.3614   42.6578    6.5332 C   0  0  0  0  0  0  0  0  0  0  0  0
   13.8241   44.5024    4.8576 C   0  0  0  0  0  0  0  0  0  0  0  0
   12.7412   45.2333    4.1472 C   0  0  0  0  0  0  0  0  0  0  0  0
   11.4525   44.6841    4.1769 C   0  0  0  0  0  0  0  0  0  0  0  0
   10.5665   46.4578    2.8706 C   0  0  0  0  0  0  0  0  0  0  0  0
   11.8286   47.0662    2.8017 C   0  0  0  0  0  0  0  0  0  0  0  0
   12.0064   48.2720    2.1065 C   0  0  0  0  0  0  0  0  0  0  0  0
   13.2639   48.8738    2.0457 C   0  0  0  0  0  0  0  0  0  0  0  0
   14.3539   48.2771    2.6792 C   0  0  0  0  0  0  0  0  0  0  0  0
   14.1885   47.0769    3.3735 C   0  0  0  0  0  0  0  0  0  0  0  0
   12.9326   46.4513    3.4467 C   0  0  0  0  0  0  0  0  0  0  0  0
   14.3358   41.3211    6.8567 C   0  0  0  0  0  0  0  0  0  0  0  0
   13.4884   40.2711    6.2208 C   0  0  0  0  0  0  0  0  0  0  0  0
   15.2002   41.1160    7.8693 N   0  0  0  0  0  0  0  0  0  0  0  0
   15.7626   42.2631    8.2235 N   0  0  0  0  0  0  0  0  0  0  0  0
   13.5101   43.3036    5.5780 N   0  0  0  0  0  0  0  0  0  0  0  0
   10.4137   45.2939    3.5511 N   0  0  0  0  0  0  0  0  0  0  0  0
   15.0202   44.8937    4.7905 O   0  0  0  0  0  0  0  0  0  0  0  0
    9.5668   46.9799    2.3076 O   0  0  0  0  0  0  0  0  0  0  0  0
  1  2  1  0
  2  3  1  0
  3  4  1  0
  4  5  1  0
  5  6  1  0
  6 22  1  0
  7  9  1  0
  8  7  1  0
  9 24  1  0
 10 11  1  0
 12 25  1  0
 13 14  1  0
 15 16  2  0
 17 18  2  0
 19 11  1  0
 19 14  2  0
 20 22  1  0
 21 20  1  0
 22 23  1  0
 24 10  1  0
 25 13  1  0
  7 23  2  0
  9 20  2  0
 10 26  2  0
 11 12  2  0
 13 27  2  0
 14 15  1  0
 16 17  1  0
 18 19  1  0
M  END
>  <rmsd>  (789) 
0.194993153

$$$$
MolPort-009-751-414 62023056 CSSS03437054427 MCULE-8813905927 PubChem-52907960 ZINC000062023056 ZINC62023056
     RDKit          3D

 18 19  0  0  0  0  0  0  0  0999 V2000
   13.3715   39.2430   11.4632 C   0  0  0  0  0  0  0  0  0  0  0  0
   15.0773   40.4420    9.1460 C   0  0  0  0  0  0  0  0  0  0  0  0
   15.0114   41.4753    8.1067 C   0  0  0  0  0  0  0  0  0  0  0  0
   16.0305   42.3474    7.7729 C   0  0  0  0  0  0  0  0  0  0  0  0
   14.3316   42.7146    6.5574 C   0  0  0  0  0  0  0  0  0  0  0  0
   13.8851   44.3844    4.7075 C   0  0  0  0  0  0  0  0  0  0  0  0
   12.9415   44.9127    3.7170 C   0  0  0  0  0  0  0  0  0  0  0  0
   11.6565   44.4566    3.5118 C   0  0  0  0  0  0  0  0  0  0  0  0
   11.1595   45.2479    2.4908 C   0  0  0  0  0  0  0  0  0  0  0  0
   12.1703   46.1286    2.1446 C   0  0  0  0  0  0  0  0  0  0  0  0
   13.9684   38.6482   10.3500 O   0  0  0  0  0  0  0  0  0  0  0  0
   16.1298   40.2926    9.8233 O   0  0  0  0  0  0  0  0  0  0  0  0
   15.5625   43.0991    6.8050 O   0  0  0  0  0  0  0  0  0  0  0  0
   15.0365   44.8890    4.7980 O   0  0  0  0  0  0  0  0  0  0  0  0
   13.2172   45.8965    2.8991 O   0  0  0  0  0  0  0  0  0  0  0  0
   13.9458   39.6036    9.3891 N   0  0  0  0  0  0  0  0  0  0  0  0
   13.4921   43.3034    5.5607 N   0  0  0  0  0  0  0  0  0  0  0  0
   13.9265   41.6993    7.3409 N   0  0  0  0  0  0  0  0  0  0  0  0
  1 11  1  0
  2  3  1  0
  3 18  1  0
  4 13  1  0
  5 13  1  0
  5 17  1  0
  6  7  1  0
  7 15  1  0
  8  9  1  0
 10 15  1  0
 16 11  1  0
 16  2  1  0
 17  6  1  0
  2 12  2  0
  3  4  2  0
  5 18  2  0
  6 14  2  0
  7  8  2  0
  9 10  2  0
M  END
>  <rmsd>  (790) 
0.194543272

$$$$
MolPort-003-022-299 CSSS01006092655 LN01393284 MCULE-4198873419 PubChem-4094527
     RDKit          3D

 32 36  0  0  0  0  0  0  0  0999 V2000
   15.0516   44.8744    4.8058 O   0  0  0  0  0  0  0  0  0  0  0  0
   16.6741   40.0131    9.5336 O   0  0  0  0  0  0  0  0  0  0  0  0
   14.3997   44.8481    1.6819 O   0  0  0  0  0  0  0  0  0  0  0  0
   13.0203   46.3311    3.5689 O   0  0  0  0  0  0  0  0  0  0  0  0
   13.8927   44.3882    4.7002 C   0  0  0  0  0  0  0  0  0  0  0  0
   14.2428   42.7639    6.6150 C   0  0  0  0  0  0  0  0  0  0  0  0
   15.9517   42.5508    8.0656 C   0  0  0  0  0  0  0  0  0  0  0  0
   15.1425   41.4853    8.5024 C   0  0  0  0  0  0  0  0  0  0  0  0
   15.4872   40.4375    9.4875 C   0  0  0  0  0  0  0  0  0  0  0  0
   14.4749   39.8473   10.3923 C   0  0  0  0  0  0  0  0  0  0  0  0
   14.7805   38.6868   11.1205 C   0  0  0  0  0  0  0  0  0  0  0  0
   13.8429   38.1294   11.9947 C   0  0  0  0  0  0  0  0  0  0  0  0
   12.5929   38.7319   12.1549 C   0  0  0  0  0  0  0  0  0  0  0  0
   12.2809   39.8920   11.4415 C   0  0  0  0  0  0  0  0  0  0  0  0
   13.2187   40.4484   10.5669 C   0  0  0  0  0  0  0  0  0  0  0  0
   17.2308   42.9659    8.6811 C   0  0  0  0  0  0  0  0  0  0  0  0
   18.1794   43.6514    7.9086 C   0  0  0  0  0  0  0  0  0  0  0  0
   19.3791   44.0855    8.4797 C   0  0  0  0  0  0  0  0  0  0  0  0
   19.6359   43.8467    9.8322 C   0  0  0  0  0  0  0  0  0  0  0  0
   18.6908   43.1796   10.6146 C   0  0  0  0  0  0  0  0  0  0  0  0
   17.4916   42.7466   10.0425 C   0  0  0  0  0  0  0  0  0  0  0  0
   12.9545   44.9020    3.6539 C   0  0  2  0  0  0  0  0  0  0  0  0
   13.2529   44.2545    2.2944 C   0  0  0  0  0  0  0  0  0  0  0  0
   14.6363   46.2210    1.7758 C   0  0  0  0  0  0  0  0  0  0  0  0
   15.5749   46.8405    0.9466 C   0  0  0  0  0  0  0  0  0  0  0  0
   15.7835   48.2205    1.0429 C   0  0  0  0  0  0  0  0  0  0  0  0
   15.0560   48.9782    1.9685 C   0  0  0  0  0  0  0  0  0  0  0  0
   14.1249   48.3559    2.8070 C   0  0  0  0  0  0  0  0  0  0  0  0
   13.9228   46.9759    2.7172 C   0  0  0  0  0  0  0  0  0  0  0  0
   13.4714   43.3108    5.5420 N   0  0  0  0  0  0  0  0  0  0  0  0
   15.4365   43.2496    7.0154 N   0  0  0  0  0  0  0  0  0  0  0  0
   13.7632   41.4470    7.5310 S   0  0  0  0  0  0  0  0  0  0  0  0
  5 30  1  0
  6 32  1  0
  7 31  1  0
  7 16  1  0
  8 32  1  0
  8  9  1  0
  9 10  1  0
 11 12  2  0
 13 14  2  0
 15 10  2  0
 17 18  2  0
 19 20  2  0
 21 16  2  0
 22  5  1  1
 22 23  1  0
 22  4  1  0
 23  3  1  0
 24  3  1  0
 25 26  2  0
 27 28  2  0
 29  4  1  0
 29 24  2  0
 30  6  1  0
  5  1  2  0
  6 31  2  0
  7  8  2  0
  9  2  2  0
 10 11  1  0
 12 13  1  0
 14 15  1  0
 16 17  1  0
 18 19  1  0
 20 21  1  0
 24 25  1  0
 26 27  1  0
 28 29  1  0
M  END
>  <rmsd>  (791) 
0.194342539

$$$$
MolPort-009-751-443 62023085 CSSS03437051065 MCULE-6511131651 PubChem-52907991 ZINC000062023085 ZINC62023085
     RDKit          3D

 18 19  0  0  0  0  0  0  0  0999 V2000
   13.3716   39.2426   11.4626 C   0  0  0  0  0  0  0  0  0  0  0  0
   15.0772   40.4418    9.1453 C   0  0  0  0  0  0  0  0  0  0  0  0
   15.0112   41.4753    8.1063 C   0  0  0  0  0  0  0  0  0  0  0  0
   16.0304   42.3473    7.7725 C   0  0  0  0  0  0  0  0  0  0  0  0
   14.3312   42.7152    6.5575 C   0  0  0  0  0  0  0  0  0  0  0  0
   13.8844   44.3854    4.7080 C   0  0  0  0  0  0  0  0  0  0  0  0
   12.9375   44.9117    3.7186 C   0  0  0  0  0  0  0  0  0  0  0  0
   11.6455   44.4539    3.5119 C   0  0  0  0  0  0  0  0  0  0  0  0
   10.9782   45.1531    2.4955 C   0  0  0  0  0  0  0  0  0  0  0  0
   11.7326   46.1599    1.8969 C   0  0  0  0  0  0  0  0  0  0  0  0
   13.9681   38.6480   10.3491 O   0  0  0  0  0  0  0  0  0  0  0  0
   16.1297   40.2921    9.8224 O   0  0  0  0  0  0  0  0  0  0  0  0
   15.5623   43.0994    6.8049 O   0  0  0  0  0  0  0  0  0  0  0  0
   15.0363   44.8890    4.7994 O   0  0  0  0  0  0  0  0  0  0  0  0
   13.9454   39.6035    9.3884 N   0  0  0  0  0  0  0  0  0  0  0  0
   13.4917   43.3044    5.5610 N   0  0  0  0  0  0  0  0  0  0  0  0
   13.9260   41.6996    7.3408 N   0  0  0  0  0  0  0  0  0  0  0  0
   13.2376   46.1677    2.6486 S   0  0  0  0  0  0  0  0  0  0  0  0
  1 11  1  0
  2  3  1  0
  3 17  1  0
  4 13  1  0
  5 13  1  0
  5 16  1  0
  6  7  1  0
  7 18  1  0
  8  9  1  0
 10 18  1  0
 15 11  1  0
 15  2  1  0
 16  6  1  0
  2 12  2  0
  3  4  2  0
  5 17  2  0
  6 14  2  0
  7  8  2  0
  9 10  2  0
M  END
>  <rmsd>  (792) 
0.19413659

$$$$
MolPort-020-269-162 19749433 MCULE-2171737813 PubChem-92634681 ZINC000019749433 ZINC19749433
     RDKit          3D

 27 29  0  0  0  0  0  0  0  0999 V2000
   13.3147   39.1277   11.4261 C   0  0  0  0  0  0  0  0  0  0  0  0
   14.6866   39.0340   10.8618 C   0  0  0  0  0  0  0  0  0  0  0  0
   15.6978   39.9493   11.0787 C   0  0  0  0  0  0  0  0  0  0  0  0
   16.7334   39.4093   10.3411 C   0  0  0  0  0  0  0  0  0  0  0  0
   18.1024   39.9951   10.2406 C   0  0  0  0  0  0  0  0  0  0  0  0
   19.2961   39.0521    8.2578 C   0  0  0  0  0  0  0  0  0  0  0  0
   18.1363   41.2656    8.0575 C   0  0  0  0  0  0  0  0  0  0  0  0
   17.2631   42.3411    8.6227 C   0  0  0  0  0  0  0  0  0  0  0  0
   15.6136   43.1237    6.9400 C   0  0  0  0  0  0  0  0  0  0  0  0
   14.3251   42.7561    6.6106 C   0  0  0  0  0  0  0  0  0  0  0  0
   13.9468   41.7360    7.4587 C   0  0  0  0  0  0  0  0  0  0  0  0
   13.8864   44.3648    4.6850 C   0  0  0  0  0  0  0  0  0  0  0  0
   12.9386   44.8384    3.6609 C   0  0  0  0  0  0  0  0  0  0  0  0
   11.6647   44.2612    3.5532 C   0  0  0  0  0  0  0  0  0  0  0  0
   10.7649   44.7098    2.5820 C   0  0  0  0  0  0  0  0  0  0  0  0
   11.1323   45.7391    1.7112 C   0  0  0  0  0  0  0  0  0  0  0  0
   12.3993   46.3200    1.8113 C   0  0  0  0  0  0  0  0  0  0  0  0
   13.2992   45.8713    2.7824 C   0  0  0  0  0  0  0  0  0  0  0  0
   16.3611   38.2588    9.7505 N   0  0  0  0  0  0  0  0  0  0  0  0
   15.0990   38.0303   10.0680 N   0  0  0  0  0  0  0  0  0  0  0  0
   18.5069   40.1233    8.8458 N   0  0  0  0  0  0  0  0  0  0  0  0
   15.9656   42.3310    7.9668 N   0  0  0  0  0  0  0  0  0  0  0  0
   14.9866   41.4972    8.2813 N   0  0  0  0  0  0  0  0  0  0  0  0
   13.5038   43.3079    5.5760 N   0  0  0  0  0  0  0  0  0  0  0  0
   18.5428   41.3730    6.8689 O   0  0  0  0  0  0  0  0  0  0  0  0
   15.0295   44.8912    4.7725 O   0  0  0  0  0  0  0  0  0  0  0  0
   10.2604   46.1737    0.7703 F   0  0  0  0  0  0  0  0  0  0  0  0
  1  2  1  0
  3  4  1  0
  5  4  1  0
  5 21  1  0
  6 21  1  0
  8  7  1  0
  8 22  1  0
 10 11  1  0
 10 24  1  0
 12 13  1  0
 14 15  2  0
 16 17  2  0
 16 27  1  0
 18 13  2  0
 20 19  1  0
 20  2  1  0
 21  7  1  0
 22  9  1  0
 22 23  1  0
 24 12  1  0
  2  3  2  0
  4 19  2  0
  7 25  2  0
  9 10  2  0
 11 23  2  0
 12 26  2  0
 13 14  1  0
 15 16  1  0
 17 18  1  0
M  END
>  <rmsd>  (793) 
0.193952873

$$$$
MolPort-002-859-470 CSSS00138420674 MCULE-7654401932
     RDKit          3D

 26 28  0  0  0  0  0  0  0  0999 V2000
   16.6921   46.4904    4.0206 C   0  0  0  0  0  0  0  0  0  0  0  0
   13.9016   44.3150    4.6731 C   0  0  0  0  0  0  0  0  0  0  0  0
   14.2432   42.7816    6.6785 C   0  0  0  0  0  0  0  0  0  0  0  0
   15.7510   42.4493    8.0726 C   0  0  0  0  0  0  0  0  0  0  0  0
   17.0089   41.6115    9.8574 C   0  0  0  0  0  0  0  0  0  0  0  0
   15.9626   40.7253   10.1804 C   0  0  0  0  0  0  0  0  0  0  0  0
   14.7911   40.7426    9.4013 C   0  0  0  0  0  0  0  0  0  0  0  0
   13.6419   39.8032    9.6560 C   0  0  2  0  0  0  0  0  0  0  0  0
   13.5236   39.3324   11.1006 C   0  0  0  0  0  0  0  0  0  0  0  0
   14.5739   37.6865    8.6570 C   0  0  0  0  0  0  0  0  0  0  0  0
   15.6484   37.5991    9.5556 C   0  0  0  0  0  0  0  0  0  0  0  0
   16.5758   36.5596    9.4503 C   0  0  0  0  0  0  0  0  0  0  0  0
   16.4428   35.5912    8.4462 C   0  0  0  0  0  0  0  0  0  0  0  0
   15.3674   35.6782    7.5498 C   0  0  0  0  0  0  0  0  0  0  0  0
   14.4407   36.7190    7.6564 C   0  0  0  0  0  0  0  0  0  0  0  0
   15.4273   45.8663    3.8971 O   0  0  0  0  0  0  0  0  0  0  0  0
   13.6218   38.7145    8.7285 O   0  0  0  0  0  0  0  0  0  0  0  0
   18.4494   34.4457    9.2228 O   0  0  0  0  0  0  0  0  0  0  0  0
   17.2836   33.6595    7.4481 O   0  0  0  0  0  0  0  0  0  0  0  0
   15.0558   44.8854    4.7848 N   0  0  0  0  0  0  0  0  0  0  0  0
   13.4791   43.2891    5.5788 N   0  0  0  0  0  0  0  0  0  0  0  0
   13.7770   41.8058    7.4945 N   0  0  0  0  0  0  0  0  0  0  0  0
   14.7494   41.6174    8.3642 N   0  0  0  0  0  0  0  0  0  0  0  0
   15.4895   43.2213    7.0045 N   0  0  0  0  0  0  0  0  0  0  0  0
   16.8927   42.4695    8.8019 N   0  0  0  0  0  0  0  0  0  0  0  0
   17.3965   34.5256    8.3403 N   0  0  0  0  0  0  0  0  0  0  0  0
  1 16  1  0
  2 21  1  0
  3 24  1  0
  4 25  1  0
  5  6  1  0
  7 23  1  0
  8  7  1  0
  8  9  1  1
  8 17  1  0
 10 17  1  0
 11 12  2  0
 13 14  2  0
 13 26  1  0
 15 10  2  0
 16 20  1  0
 21  3  1  0
 23 22  1  0
 23  4  1  0
 26 18  1  0
  2 20  2  0
  3 22  2  0
  4 24  2  0
  5 25  2  0
  6  7  2  0
 10 11  1  0
 12 13  1  0
 14 15  1  0
 26 19  2  0
M  CHG  2  18  -1  26   1
M  END
>  <rmsd>  (794) 
0.193882823

$$$$
Molport-053-366-839
     RDKit          3D

 20 22  0  0  0  0  0  0  0  0999 V2000
   11.1245   45.3056   -0.1955 O   0  0  0  0  0  0  0  0  0  0  0  0
   15.0504   44.8679    4.8089 O   0  0  0  0  0  0  0  0  0  0  0  0
   11.8302   45.0548    0.9766 C   0  0  0  0  0  0  0  0  0  0  0  0
   12.7267   46.0050    1.4669 C   0  0  0  0  0  0  0  0  0  0  0  0
   13.4277   45.7414    2.6448 C   0  0  0  0  0  0  0  0  0  0  0  0
   13.2252   44.5342    3.3349 C   0  0  0  0  0  0  0  0  0  0  0  0
   12.3190   43.6037    2.7954 C   0  0  0  0  0  0  0  0  0  0  0  0
   13.9735   44.2507    4.5836 C   0  0  0  0  0  0  0  0  0  0  0  0
   14.2626   42.7998    6.6333 C   0  0  0  0  0  0  0  0  0  0  0  0
   14.9217   41.7341    8.4090 C   0  0  0  0  0  0  0  0  0  0  0  0
   14.8756   40.9163    9.5356 C   0  0  0  0  0  0  0  0  0  0  0  0
   13.6417   40.3151    9.8553 C   0  0  0  0  0  0  0  0  0  0  0  0
   12.5019   40.5459    9.0474 C   0  0  0  0  0  0  0  0  0  0  0  0
   12.5849   41.3785    7.9148 C   0  0  0  0  0  0  0  0  0  0  0  0
   13.8208   41.9559    7.6311 C   0  0  0  0  0  0  0  0  0  0  0  0
   11.6512   43.8838    1.6444 N   0  0  0  0  0  0  0  0  0  0  0  0
   13.4733   43.3088    5.5481 N   0  0  0  0  0  0  0  0  0  0  0  0
   15.5802   43.0575    6.8197 N   0  0  0  0  0  0  0  0  0  0  0  0
   15.9735   42.4043    7.9083 N   0  0  0  0  0  0  0  0  0  0  0  0
   13.5183   39.2745   11.2615 Cl  0  0  0  0  0  0  0  0  0  0  0  0
  3  1  1  0
  3 16  2  0
  4  5  2  0
  6  7  2  0
  6  8  1  0
  8 17  1  0
 11 12  2  0
 12 20  1  0
 13 14  2  0
 15  9  1  0
 15 10  2  0
 17  9  1  0
 19 18  1  0
 19 10  1  0
  3  4  1  0
  5  6  1  0
  7 16  1  0
  8  2  2  0
  9 18  2  0
 10 11  1  0
 12 13  1  0
 14 15  1  0
M  END
>  <rmsd>  (795) 
0.193207785

$$$$
MolPort-010-852-084 MolPort-019-840-459 41076404 ChemDiv-G952-0634 MCULE-9438056820 PubChem-52095936 ZINC000041076404 ZINC41076404
     RDKit          3D

 24 28  0  0  0  0  0  0  0  0999 V2000
   14.0536   38.9986   11.9466 C   0  0  0  0  0  0  0  0  0  0  0  0
   13.1154   39.5619   10.8960 C   0  0  0  0  0  0  0  0  0  0  0  0
   13.6958   39.3698    9.5044 C   0  0  0  0  0  0  0  0  0  0  0  0
   14.7171   40.4157    9.1986 C   0  0  0  0  0  0  0  0  0  0  0  0
   15.7220   42.0251    8.2984 C   0  0  0  0  0  0  0  0  0  0  0  0
   14.2204   42.7221    6.6009 C   0  0  0  0  0  0  0  0  0  0  0  0
   13.8961   44.4024    4.6950 C   0  0  0  0  0  0  0  0  0  0  0  0
   12.9745   44.9073    3.6172 C   0  0  2  0  0  0  0  0  0  0  0  0
   13.3648   46.3346    3.1745 C   0  0  0  0  0  0  0  0  0  0  0  0
   12.4260   46.8239    2.0604 C   0  0  1  0  0  0  0  0  0  0  0  0
   12.5223   45.8677    0.8609 C   0  0  0  0  0  0  0  0  0  0  0  0
   12.1177   44.4474    1.2871 C   0  0  2  0  0  0  0  0  0  0  0  0
   10.6752   44.4684    1.8175 C   0  0  0  0  0  0  0  0  0  0  0  0
   10.5716   45.4190    3.0208 C   0  0  2  0  0  0  0  0  0  0  0  0
   10.9818   46.8344    2.5855 C   0  0  0  0  0  0  0  0  0  0  0  0
   11.5197   44.9368    4.1301 C   0  0  0  0  0  0  0  0  0  0  0  0
   13.0597   43.9659    2.4017 C   0  0  0  0  0  0  0  0  0  0  0  0
   15.9088   40.5715    9.8369 N   0  0  0  0  0  0  0  0  0  0  0  0
   16.5513   41.5988    9.2660 N   0  0  0  0  0  0  0  0  0  0  0  0
   13.4751   43.3141    5.5303 N   0  0  0  0  0  0  0  0  0  0  0  0
   13.7335   41.6658    7.3121 N   0  0  0  0  0  0  0  0  0  0  0  0
   14.6188   41.3322    8.2363 N   0  0  0  0  0  0  0  0  0  0  0  0
   15.7819   43.2389    7.1471 S   0  0  0  0  0  0  0  0  0  0  0  0
   15.0555   44.8857    4.8107 O   0  0  0  0  0  0  0  0  0  0  0  0
  1  2  1  0
  2  3  1  0
  3  4  1  0
  5 23  1  0
  6 23  1  0
  6 20  1  0
  8  7  1  1
  8  9  1  0
 10  9  1  1
 10 11  1  0
 12 11  1  1
 12 13  1  0
 12 17  1  0
 14 13  1  6
 14 15  1  0
 14 16  1  0
 15 10  1  0
 16  8  1  0
 17  8  1  0
 18 19  1  0
 20  7  1  0
 22 21  1  0
 22  4  1  0
 22  5  1  0
  4 18  2  0
  5 19  2  0
  6 21  2  0
  7 24  2  0
M  END
>  <rmsd>  (796) 
0.192970961

$$$$
MolPort-007-723-532 ChemDiv-E157-6122 MCULE-1436261333 PubChem-22518072 ZINC000009405017 ZINC09405017
     RDKit          3D

 29 31  0  0  0  0  0  0  0  0999 V2000
   13.5302   39.3463   11.2910 C   0  0  0  0  0  0  0  0  0  0  0  0
   13.8511   41.8252   11.5809 C   0  0  0  0  0  0  0  0  0  0  0  0
   12.7825   41.8719   12.4925 C   0  0  0  0  0  0  0  0  0  0  0  0
   12.4045   43.0792   13.0868 C   0  0  0  0  0  0  0  0  0  0  0  0
   11.2718   43.1111   14.0479 C   0  0  0  0  0  0  0  0  0  0  0  0
   13.0909   44.2553   12.7768 C   0  0  0  0  0  0  0  0  0  0  0  0
   14.1552   44.2240   11.8730 C   0  0  0  0  0  0  0  0  0  0  0  0
   14.5324   43.0163   11.2795 C   0  0  0  0  0  0  0  0  0  0  0  0
   15.1590   41.5190    8.4362 C   0  0  0  0  0  0  0  0  0  0  0  0
   14.2461   42.7360    6.5965 C   0  0  0  0  0  0  0  0  0  0  0  0
   13.9144   44.3562    4.6722 C   0  0  0  0  0  0  0  0  0  0  0  0
   13.0041   44.8618    3.6117 C   0  0  0  0  0  0  0  0  0  0  0  0
   11.0902   46.4164    3.4202 C   0  0  0  0  0  0  0  0  0  0  0  0
   10.2033   47.2891    4.0601 C   0  0  0  0  0  0  0  0  0  0  0  0
    9.2114   47.9495    3.3286 C   0  0  0  0  0  0  0  0  0  0  0  0
    9.1020   47.7404    1.9510 C   0  0  0  0  0  0  0  0  0  0  0  0
    9.9839   46.8704    1.3041 C   0  0  0  0  0  0  0  0  0  0  0  0
   10.9753   46.2097    2.0353 C   0  0  0  0  0  0  0  0  0  0  0  0
   14.2362   40.5785   10.9671 N   0  0  0  0  0  0  0  0  0  0  0  0
   16.0208   42.4226    7.9214 N   0  0  0  0  0  0  0  0  0  0  0  0
   15.5131   43.1009    6.8943 N   0  0  0  0  0  0  0  0  0  0  0  0
   13.4697   43.3090    5.5403 N   0  0  0  0  0  0  0  0  0  0  0  0
   15.5294   40.4951    9.8082 S   0  0  0  0  0  0  0  0  0  0  0  0
   13.6853   41.5249    7.6206 S   0  0  0  0  0  0  0  0  0  0  0  0
   16.8069   40.9499   10.4567 O   0  0  0  0  0  0  0  0  0  0  0  0
   15.7040   39.0816    9.3270 O   0  0  0  0  0  0  0  0  0  0  0  0
   15.0521   44.8781    4.8122 O   0  0  0  0  0  0  0  0  0  0  0  0
   12.0705   45.7714    4.1787 O   0  0  0  0  0  0  0  0  0  0  0  0
    8.1400   48.3793    1.2435 F   0  0  0  0  0  0  0  0  0  0  0  0
  1 19  1  0
  3  4  2  0
  5  4  1  0
  6  7  2  0
  8  2  2  0
  9 24  1  0
 10 22  1  0
 10 24  1  0
 12 11  1  0
 12 28  1  0
 13 28  1  0
 14 15  2  0
 16 29  1  0
 16 17  2  0
 18 13  2  0
 19  2  1  0
 20 21  1  0
 22 11  1  0
 23 19  1  0
 23  9  1  0
  2  3  1  0
  4  6  1  0
  7  8  1  0
  9 20  2  0
 10 21  2  0
 11 27  2  0
 13 14  1  0
 15 16  1  0
 17 18  1  0
 23 25  2  0
 23 26  2  0
M  END
>  <rmsd>  (797) 
0.192907065

$$$$
MolPort-039-054-753 252496875 MCULE-1315327226 PubChem-119056290 ZINC000252496875
     RDKit          3D

 20 21  0  0  0  0  0  0  0  0999 V2000
   12.8054   39.2731   11.7701 C   0  0  0  0  0  0  0  0  0  0  0  0
   13.9512   38.9666   10.8285 C   0  0  0  0  0  0  0  0  0  0  0  0
   15.0339   40.7352    9.5001 C   0  0  0  0  0  0  0  0  0  0  0  0
   14.9644   41.6829    8.3733 C   0  0  0  0  0  0  0  0  0  0  0  0
   13.8756   41.8123    7.5261 C   0  0  0  0  0  0  0  0  0  0  0  0
   14.2903   42.8071    6.6573 C   0  0  0  0  0  0  0  0  0  0  0  0
   13.9038   44.3353    4.6654 C   0  0  0  0  0  0  0  0  0  0  0  0
   12.9936   44.7600    3.5958 C   0  0  0  0  0  0  0  0  0  0  0  0
   11.7220   44.2425    3.3695 C   0  0  0  0  0  0  0  0  0  0  0  0
   11.0760   44.8367    2.2764 C   0  0  0  0  0  0  0  0  0  0  0  0
   11.8506   45.8104    1.6631 C   0  0  0  0  0  0  0  0  0  0  0  0
   17.2325   42.7395    8.6253 C   0  0  0  0  0  0  0  0  0  0  0  0
   13.9462   39.8976    9.7566 O   0  0  0  0  0  0  0  0  0  0  0  0
   16.0636   40.6802   10.2263 O   0  0  0  0  0  0  0  0  0  0  0  0
   15.0362   44.8784    4.7732 O   0  0  0  0  0  0  0  0  0  0  0  0
   13.4969   43.3074    5.5767 N   0  0  0  0  0  0  0  0  0  0  0  0
   15.5289   43.2430    6.9558 N   0  0  0  0  0  0  0  0  0  0  0  0
   15.9315   42.5507    8.0047 N   0  0  0  0  0  0  0  0  0  0  0  0
   11.4725   46.5408    0.5868 F   0  0  0  0  0  0  0  0  0  0  0  0
   13.3250   45.9492    2.4521 S   0  0  0  0  0  0  0  0  0  0  0  0
  1  2  1  0
  2 13  1  0
  3 13  1  0
  3  4  1  0
  5  6  1  0
  6 16  1  0
  7  8  1  0
  8 20  1  0
  9 10  1  0
 11 19  1  0
 11 20  1  0
 12 18  1  0
 16  7  1  0
 18 17  1  0
 18  4  1  0
  3 14  2  0
  4  5  2  0
  6 17  2  0
  7 15  2  0
  8  9  2  0
 10 11  2  0
M  END
>  <rmsd>  (798) 
0.191900194

$$$$
MolPort-009-741-553 36709122 CSSS03437049413 MCULE-8154873311 PubChem-45503550 ZINC000036709122 ZINC36709122
     RDKit          3D

 23 24  0  0  0  0  0  0  0  0999 V2000
   12.7746   39.3348   11.7032 C   0  0  0  0  0  0  0  0  0  0  0  0
   13.9083   39.0073   10.7542 C   0  0  0  0  0  0  0  0  0  0  0  0
   15.0217   40.7563    9.4269 C   0  0  0  0  0  0  0  0  0  0  0  0
   14.9725   41.7058    8.3106 C   0  0  0  0  0  0  0  0  0  0  0  0
   15.9868   42.5690    7.9409 C   0  0  0  0  0  0  0  0  0  0  0  0
   14.3200   42.8094    6.6515 C   0  0  0  0  0  0  0  0  0  0  0  0
   13.9013   44.3242    4.6688 C   0  0  0  0  0  0  0  0  0  0  0  0
   13.3236   45.6505    2.5952 C   0  0  0  0  0  0  0  0  0  0  0  0
   12.4937   46.7631    2.4194 C   0  0  0  0  0  0  0  0  0  0  0  0
   12.8140   47.7486    1.4843 C   0  0  0  0  0  0  0  0  0  0  0  0
   13.9780   47.6359    0.7241 C   0  0  0  0  0  0  0  0  0  0  0  0
   14.8008   46.5176    0.8706 C   0  0  0  0  0  0  0  0  0  0  0  0
   14.4737   45.5024    1.7769 C   0  0  0  0  0  0  0  0  0  0  0  0
   14.8107   43.0575    2.0242 C   0  0  0  0  0  0  0  0  0  0  0  0
   13.9175   39.9422    9.6857 O   0  0  0  0  0  0  0  0  0  0  0  0
   16.0565   40.6806   10.1446 O   0  0  0  0  0  0  0  0  0  0  0  0
   15.5361   43.2352    6.9046 O   0  0  0  0  0  0  0  0  0  0  0  0
   15.0303   44.8769    4.7736 O   0  0  0  0  0  0  0  0  0  0  0  0
   15.3002   44.3733    1.8071 O   0  0  0  0  0  0  0  0  0  0  0  0
   13.5021   43.3032    5.5873 N   0  0  0  0  0  0  0  0  0  0  0  0
   12.9934   44.7269    3.6387 N   0  0  0  0  0  0  0  0  0  0  0  0
   13.9081   41.8493    7.4986 N   0  0  0  0  0  0  0  0  0  0  0  0
   11.7716   49.1405    1.2881 Cl  0  0  0  0  0  0  0  0  0  0  0  0
  1  2  1  0
  2 15  1  0
  3 15  1  0
  3  4  1  0
  4 22  1  0
  5 17  1  0
  6 17  1  0
  6 20  1  0
  7 21  1  0
  9 10  2  0
 10 23  1  0
 11 12  2  0
 13 19  1  0
 13  8  2  0
 14 19  1  0
 20  7  1  0
 21  8  1  0
  3 16  2  0
  4  5  2  0
  6 22  2  0
  7 18  2  0
  8  9  1  0
 10 11  1  0
 12 13  1  0
M  END
>  <rmsd>  (799) 
0.190740824

$$$$
MolPort-019-920-828 70638804 CSSS00035737450 MCULE-7100943101 PubChem-56765163 ZINC000070638804 ZINC70638804
     RDKit          3D

 16 17  0  0  0  0  0  0  0  0999 V2000
   13.3672   39.2220   11.4518 C   0  0  0  0  0  0  0  0  0  0  0  0
   15.0817   40.4577    9.1605 C   0  0  0  0  0  0  0  0  0  0  0  0
   15.0113   41.4931    8.1235 C   0  0  0  0  0  0  0  0  0  0  0  0
   16.0194   42.3838    7.8057 C   0  0  0  0  0  0  0  0  0  0  0  0
   14.3300   42.7258    6.5695 C   0  0  0  0  0  0  0  0  0  0  0  0
   13.8802   44.3917    4.7172 C   0  0  0  0  0  0  0  0  0  0  0  0
   12.9213   44.9092    3.6949 C   0  0  0  0  0  0  0  0  0  0  0  0
   11.6404   45.3650    4.3702 C   0  0  0  0  0  0  0  0  0  0  0  0
   12.6627   46.3869    3.9283 C   0  0  0  0  0  0  0  0  0  0  0  0
   13.9885   38.6412   10.3445 O   0  0  0  0  0  0  0  0  0  0  0  0
   16.1278   40.3242    9.8507 O   0  0  0  0  0  0  0  0  0  0  0  0
   15.5508   43.1306    6.8343 O   0  0  0  0  0  0  0  0  0  0  0  0
   15.0365   44.8888    4.7957 O   0  0  0  0  0  0  0  0  0  0  0  0
   13.9617   39.5992    9.3864 N   0  0  0  0  0  0  0  0  0  0  0  0
   13.4932   43.3039    5.5644 N   0  0  0  0  0  0  0  0  0  0  0  0
   13.9325   41.7009    7.3446 N   0  0  0  0  0  0  0  0  0  0  0  0
  1 10  1  0
  2  3  1  0
  3 16  1  0
  4 12  1  0
  5 12  1  0
  5 15  1  0
  7  6  1  0
  7  8  1  0
  8  9  1  0
  9  7  1  0
 14 10  1  0
 14  2  1  0
 15  6  1  0
  2 11  2  0
  3  4  2  0
  5 16  2  0
  6 13  2  0
M  END
>  <rmsd>  (800) 
0.189903185

$$$$
Molport-053-241-663 PubChem-158888792 PubChem-161456835 PubChem-824241
     RDKit          3D

 14 14  0  0  0  0  0  0  0  0999 V2000
   12.7700   39.3056   11.6993 C   0  0  0  0  0  0  0  0  0  0  0  0
   13.9143   38.9965   10.7567 C   0  0  0  0  0  0  0  0  0  0  0  0
   15.0063   40.7630    9.4350 C   0  0  0  0  0  0  0  0  0  0  0  0
   14.9499   41.7114    8.3194 C   0  0  0  0  0  0  0  0  0  0  0  0
   14.3061   42.8049    6.6660 C   0  0  0  0  0  0  0  0  0  0  0  0
   13.9018   44.3279    4.6760 C   0  0  0  0  0  0  0  0  0  0  0  0
   12.9670   44.7506    3.6012 C   0  0  0  0  0  0  0  0  0  0  0  0
   13.9142   39.9310    9.6878 O   0  0  0  0  0  0  0  0  0  0  0  0
   16.0383   40.7053   10.1578 O   0  0  0  0  0  0  0  0  0  0  0  0
   15.0308   44.8784    4.7669 O   0  0  0  0  0  0  0  0  0  0  0  0
   13.8860   41.8364    7.5012 N   0  0  0  0  0  0  0  0  0  0  0  0
   15.5453   43.2453    6.9522 N   0  0  0  0  0  0  0  0  0  0  0  0
   15.9529   42.5516    8.0005 N   0  0  0  0  0  0  0  0  0  0  0  0
   13.5033   43.3019    5.5905 N   0  0  0  0  0  0  0  0  0  0  0  0
  1  2  1  0
  2  8  1  0
  3  8  1  0
  3  4  1  0
  5 11  1  0
  5 14  1  0
  7  6  1  0
 13 12  1  0
 13  4  1  0
 14  6  1  0
  3  9  2  0
  4 11  2  0
  5 12  2  0
  6 10  2  0
M  END
>  <rmsd>  (801) 
0.189716831

$$$$
MolPort-002-278-582 568467 CSSS00030047638 MCULE-7370993696 PubChem-959490 ZINC000000568467 ZINC00568467
     RDKit          3D

 23 24  0  0  0  0  0  0  0  0999 V2000
   13.4424   39.5379   12.0755 C   0  0  0  0  0  0  0  0  0  0  0  0
   13.6431   38.8145   10.7562 C   0  0  0  0  0  0  0  0  0  0  0  0
   14.8272   40.5761    9.4810 C   0  0  0  0  0  0  0  0  0  0  0  0
   14.8191   41.5557    8.3753 C   0  0  0  0  0  0  0  0  0  0  0  0
   15.8283   42.4458    8.0270 C   0  0  0  0  0  0  0  0  0  0  0  0
   17.1443   42.5928    8.7100 C   0  0  0  0  0  0  0  0  0  0  0  0
   14.2385   42.7792    6.6293 C   0  0  0  0  0  0  0  0  0  0  0  0
   13.9176   44.3514    4.6602 C   0  0  0  0  0  0  0  0  0  0  0  0
   13.4361   45.8383    2.6834 C   0  0  0  0  0  0  0  0  0  0  0  0
   12.3360   46.0754    1.7101 C   0  0  0  0  0  0  0  0  0  0  0  0
   12.2855   45.3436    0.5184 C   0  0  0  0  0  0  0  0  0  0  0  0
   11.2397   45.5510   -0.3864 C   0  0  0  0  0  0  0  0  0  0  0  0
   10.2409   46.4862   -0.0982 C   0  0  0  0  0  0  0  0  0  0  0  0
   10.2863   47.2127    1.0958 C   0  0  0  0  0  0  0  0  0  0  0  0
   11.3320   47.0057    2.0009 C   0  0  0  0  0  0  0  0  0  0  0  0
   13.7989   41.7786    7.4686 C   0  0  0  0  0  0  0  0  0  0  0  0
   12.4789   41.0882    7.3950 C   0  0  0  0  0  0  0  0  0  0  0  0
   13.7187   39.7484    9.6854 O   0  0  0  0  0  0  0  0  0  0  0  0
   15.8342   40.4829   10.2347 O   0  0  0  0  0  0  0  0  0  0  0  0
   15.0552   44.8771    4.8025 O   0  0  0  0  0  0  0  0  0  0  0  0
   15.4776   43.1944    6.9615 N   0  0  0  0  0  0  0  0  0  0  0  0
   13.4764   43.3131    5.5404 N   0  0  0  0  0  0  0  0  0  0  0  0
   13.0519   44.7884    3.6134 N   0  0  0  0  0  0  0  0  0  0  0  0
  1  2  1  0
  2 18  1  0
  3 18  1  0
  3  4  1  0
  5 21  1  0
  6  5  1  0
  7 22  1  0
  8 23  1  0
  9 23  1  0
  9 10  1  0
 11 12  2  0
 13 14  2  0
 15 10  2  0
 16  4  1  0
 17 16  1  0
 21  7  1  0
 22  8  1  0
  3 19  2  0
  4  5  2  0
  7 16  2  0
  8 20  2  0
 10 11  1  0
 12 13  1  0
 14 15  1  0
M  END
>  <rmsd>  (802) 
0.189452291

$$$$
MolPort-002-773-378 36613101 CSSS00133004254 MCULE-9834902928 ZINC000036613101 ZINC36613101
     RDKit          3D

 26 28  0  0  0  0  0  0  0  0999 V2000
   12.8574   39.2779   11.8041 C   0  0  0  0  0  0  0  0  0  0  0  0
   13.9946   38.9814   10.8490 C   0  0  0  0  0  0  0  0  0  0  0  0
   15.0273   40.7536    9.4872 C   0  0  0  0  0  0  0  0  0  0  0  0
   14.9359   41.6868    8.3602 C   0  0  0  0  0  0  0  0  0  0  0  0
   14.2717   42.8023    6.6530 C   0  0  0  0  0  0  0  0  0  0  0  0
   13.9083   44.3371    4.6619 C   0  0  0  0  0  0  0  0  0  0  0  0
   13.0079   44.7676    3.5852 C   0  0  0  0  0  0  0  0  0  0  0  0
   13.3211   45.7737    2.6479 C   0  0  0  0  0  0  0  0  0  0  0  0
   12.2465   45.9184    1.7814 C   0  0  0  0  0  0  0  0  0  0  0  0
   11.2047   45.1219    2.0135 C   0  0  0  0  0  0  0  0  0  0  0  0
    8.9005   44.7382    1.1225 C   0  0  0  0  0  0  0  0  0  0  0  0
   11.8714   46.7004    0.7066 C   0  0  0  0  0  0  0  0  0  0  0  0
   12.6486   47.8231    0.0977 C   0  0  0  0  0  0  0  0  0  0  0  0
   13.8483   41.8097    7.5133 C   0  0  0  0  0  0  0  0  0  0  0  0
   13.9578   39.9008    9.7677 O   0  0  0  0  0  0  0  0  0  0  0  0
   16.0705   40.7281   10.1957 O   0  0  0  0  0  0  0  0  0  0  0  0
   15.0420   44.8757    4.7815 O   0  0  0  0  0  0  0  0  0  0  0  0
   15.9165   42.5439    8.0167 N   0  0  0  0  0  0  0  0  0  0  0  0
   15.5081   43.2316    6.9649 N   0  0  0  0  0  0  0  0  0  0  0  0
   13.4899   43.3084    5.5667 N   0  0  0  0  0  0  0  0  0  0  0  0
   10.2057   45.3722    1.1613 N   0  0  0  0  0  0  0  0  0  0  0  0
   10.6010   46.3528    0.3520 N   0  0  0  0  0  0  0  0  0  0  0  0
   11.4376   44.1150    3.3247 S   0  0  0  0  0  0  0  0  0  0  0  0
   13.9745   47.4560   -0.0421 F   0  0  0  0  0  0  0  0  0  0  0  0
   12.5662   48.9350    0.9145 F   0  0  0  0  0  0  0  0  0  0  0  0
   12.1336   48.1339   -1.1475 F   0  0  0  0  0  0  0  0  0  0  0  0
  1  2  1  0
  2 15  1  0
  3 15  1  0
  3  4  1  0
  5 20  1  0
  6  7  1  0
  7 23  1  0
  8  9  1  0
 10 23  1  0
 10 21  1  0
 11 21  1  0
 12  9  1  0
 13 12  1  0
 13 24  1  0
 13 25  1  0
 13 26  1  0
 14  4  1  0
 19 18  1  0
 19  5  1  0
 20  6  1  0
 21 22  1  0
  3 16  2  0
  4 18  2  0
  5 14  2  0
  6 17  2  0
  7  8  2  0
  9 10  2  0
 12 22  2  0
M  END
>  <rmsd>  (803) 
0.1885726

$$$$
Molport-051-790-868 LN03269416 MCULE-8334916970 PubChem-127263975
     RDKit          3D

 18 18  0  0  0  0  0  0  0  0999 V2000
   12.8375   39.3317   11.7180 C   0  0  0  0  0  0  0  0  0  0  0  0
   13.9777   39.0301   10.7679 C   0  0  0  0  0  0  0  0  0  0  0  0
   15.0362   40.8007    9.4244 C   0  0  0  0  0  0  0  0  0  0  0  0
   14.9584   41.7401    8.3026 C   0  0  0  0  0  0  0  0  0  0  0  0
   14.2940   42.8129    6.6520 C   0  0  0  0  0  0  0  0  0  0  0  0
   13.9037   44.3326    4.6680 C   0  0  0  0  0  0  0  0  0  0  0  0
   13.3072   45.7394    2.6803 C   0  0  0  0  0  0  0  0  0  0  0  0
   14.5176   45.3590    1.8451 C   0  0  0  0  0  0  0  0  0  0  0  0
   13.5475   47.0795    3.3539 C   0  0  0  0  0  0  0  0  0  0  0  0
   12.1134   45.8741    1.7592 C   0  0  0  0  0  0  0  0  0  0  0  0
   13.9567   39.9569    9.6926 O   0  0  0  0  0  0  0  0  0  0  0  0
   16.0749   40.7612   10.1389 O   0  0  0  0  0  0  0  0  0  0  0  0
   15.4984   43.2395    6.9399 O   0  0  0  0  0  0  0  0  0  0  0  0
   15.0387   44.8717    4.7832 O   0  0  0  0  0  0  0  0  0  0  0  0
   13.0244   44.7286    3.6511 O   0  0  0  0  0  0  0  0  0  0  0  0
   15.9499   42.5913    7.9696 N   0  0  0  0  0  0  0  0  0  0  0  0
   13.8840   41.8452    7.4920 N   0  0  0  0  0  0  0  0  0  0  0  0
   13.4930   43.3057    5.5749 N   0  0  0  0  0  0  0  0  0  0  0  0
  1  2  1  0
  2 11  1  0
  3 11  1  0
  3  4  1  0
  4 17  1  0
  5 13  1  0
  5 18  1  0
  6 15  1  0
  7 15  1  0
  7  8  1  0
  7  9  1  0
  7 10  1  0
 16 13  1  0
 18  6  1  0
  3 12  2  0
  4 16  2  0
  5 17  2  0
  6 14  2  0
M  END
>  <rmsd>  (804) 
0.188322738

$$$$
MolPort-002-849-489 8715579 LN01247785 MCULE-8954675726 PubChem-11842445 ZINC000008715579 ZINC08715579
     RDKit          3D

 24 25  0  0  0  0  0  0  0  0999 V2000
   13.3095   47.1886    3.5114 C   0  0  0  0  0  0  0  0  0  0  0  0
   13.3497   45.8565    2.7849 C   0  0  0  0  0  0  0  0  0  0  0  0
   13.9013   44.3584    4.6756 C   0  0  0  0  0  0  0  0  0  0  0  0
   14.2664   42.7640    6.6172 C   0  0  0  0  0  0  0  0  0  0  0  0
   16.0266   42.4791    7.9784 C   0  0  0  0  0  0  0  0  0  0  0  0
   17.3928   42.7741    8.4949 C   0  0  0  0  0  0  0  0  0  0  0  0
   15.1725   41.5120    8.5253 C   0  0  0  0  0  0  0  0  0  0  0  0
   15.4884   40.5773    9.6333 C   0  0  0  0  0  0  0  0  0  0  0  0
   14.4415   39.9145   10.4456 C   0  0  0  0  0  0  0  0  0  0  0  0
   14.7712   38.7925   11.2217 C   0  0  0  0  0  0  0  0  0  0  0  0
   13.8052   38.1674   12.0148 C   0  0  0  0  0  0  0  0  0  0  0  0
   12.4972   38.6601   12.0452 C   0  0  0  0  0  0  0  0  0  0  0  0
   12.1627   39.7870   11.2884 C   0  0  0  0  0  0  0  0  0  0  0  0
   13.1300   40.4109   10.4961 C   0  0  0  0  0  0  0  0  0  0  0  0
   11.2896   38.6208   14.6653 C   0  0  0  0  0  0  0  0  0  0  0  0
   13.0280   44.7952    3.6764 O   0  0  0  0  0  0  0  0  0  0  0  0
   15.0448   44.8778    4.7963 O   0  0  0  0  0  0  0  0  0  0  0  0
   16.6981   40.3293    9.8900 O   0  0  0  0  0  0  0  0  0  0  0  0
    9.9294   38.0479   12.4243 O   0  0  0  0  0  0  0  0  0  0  0  0
   11.5920   36.4161   13.1663 O   0  0  0  0  0  0  0  0  0  0  0  0
   13.4803   43.3094    5.5534 N   0  0  0  0  0  0  0  0  0  0  0  0
   15.5156   43.1731    6.9263 N   0  0  0  0  0  0  0  0  0  0  0  0
   13.7427   41.5317    7.6262 S   0  0  0  0  0  0  0  0  0  0  0  0
   11.2865   37.8828   13.0488 S   0  0  0  0  0  0  0  0  0  0  0  0
  1  2  1  0
  2 16  1  0
  3 16  1  0
  3 21  1  0
  4 23  1  0
  5 22  1  0
  6  5  1  0
  7 23  1  0
  7  8  1  0
  8  9  1  0
 10 11  2  0
 12 13  2  0
 14  9  2  0
 21  4  1  0
 24 12  1  0
 24 15  1  0
  3 17  2  0
  4 22  2  0
  5  7  2  0
  8 18  2  0
  9 10  1  0
 11 12  1  0
 13 14  1  0
 24 19  2  0
 24 20  2  0
M  END
>  <rmsd>  (805) 
0.188183174

$$$$
MolPort-035-783-698 CSSS00010743493 LN04744983 PubChem-58810185
     RDKit          3D

 14 14  0  0  0  0  0  0  0  0999 V2000
   12.8527   39.2756   11.8046 C   0  0  0  0  0  0  0  0  0  0  0  0
   13.9901   38.9786   10.8498 C   0  0  0  0  0  0  0  0  0  0  0  0
   15.0244   40.7505    9.4889 C   0  0  0  0  0  0  0  0  0  0  0  0
   14.9341   41.6839    8.3619 C   0  0  0  0  0  0  0  0  0  0  0  0
   13.8470   41.8079    7.5145 C   0  0  0  0  0  0  0  0  0  0  0  0
   14.2713   42.8004    6.6546 C   0  0  0  0  0  0  0  0  0  0  0  0
   13.9119   44.3352    4.6657 C   0  0  0  0  0  0  0  0  0  0  0  0
   12.9994   44.7695    3.5766 C   0  0  0  0  0  0  0  0  0  0  0  0
   13.9542   39.8983    9.7687 O   0  0  0  0  0  0  0  0  0  0  0  0
   16.0674   40.7242   10.1977 O   0  0  0  0  0  0  0  0  0  0  0  0
   15.0428   44.8776    4.7795 O   0  0  0  0  0  0  0  0  0  0  0  0
   15.5078   43.2288    6.9672 N   0  0  0  0  0  0  0  0  0  0  0  0
   15.9154   42.5407    8.0191 N   0  0  0  0  0  0  0  0  0  0  0  0
   13.4905   43.3074    5.5678 N   0  0  0  0  0  0  0  0  0  0  0  0
  1  2  1  0
  2  9  1  0
  3  9  1  0
  3  4  1  0
  5  6  1  0
  6 14  1  0
  8  7  1  0
 13 12  1  0
 13  4  1  0
 14  7  1  0
  3 10  2  0
  4  5  2  0
  6 12  2  0
  7 11  2  0
M  END
>  <rmsd>  (806) 
0.188152194

$$$$
MolPort-017-264-013 72334134 CHEMBL4522810 CSC034450290 MCULE-6466233192 ZINC000072334134 ZINC72334134
     RDKit          3D

 14 14  0  0  0  0  0  0  0  0999 V2000
   12.8527   39.2756   11.8046 C   0  0  0  0  0  0  0  0  0  0  0  0
   13.9901   38.9786   10.8498 C   0  0  0  0  0  0  0  0  0  0  0  0
   15.0244   40.7505    9.4889 C   0  0  0  0  0  0  0  0  0  0  0  0
   14.9341   41.6839    8.3619 C   0  0  0  0  0  0  0  0  0  0  0  0
   13.8470   41.8079    7.5145 C   0  0  0  0  0  0  0  0  0  0  0  0
   14.2713   42.8004    6.6546 C   0  0  0  0  0  0  0  0  0  0  0  0
   13.9119   44.3352    4.6657 C   0  0  0  0  0  0  0  0  0  0  0  0
   12.9994   44.7695    3.5766 C   0  0  0  0  0  0  0  0  0  0  0  0
   13.9542   39.8983    9.7687 O   0  0  0  0  0  0  0  0  0  0  0  0
   16.0674   40.7242   10.1977 O   0  0  0  0  0  0  0  0  0  0  0  0
   15.0428   44.8776    4.7795 O   0  0  0  0  0  0  0  0  0  0  0  0
   15.5078   43.2288    6.9672 N   0  0  0  0  0  0  0  0  0  0  0  0
   15.9154   42.5407    8.0191 N   0  0  0  0  0  0  0  0  0  0  0  0
   13.4905   43.3074    5.5678 N   0  0  0  0  0  0  0  0  0  0  0  0
  1  2  1  0
  2  9  1  0
  3  9  1  0
  3  4  1  0
  4  5  1  0
  6 12  1  0
  6 14  1  0
  8  7  1  0
 12 13  1  0
 14  7  1  0
  3 10  2  0
  4 13  2  0
  5  6  2  0
  7 11  2  0
M  END
>  <rmsd>  (807) 
0.188152194

$$$$
MolPort-003-082-970 4341985 CSSS03437139713 MCULE-6851591878 PubChem-7200170 ZINC000004341985
     RDKit          3D

 27 29  0  0  0  0  0  0  0  0999 V2000
   13.9098   42.1871    7.8341 C   0  0  0  0  0  0  0  0  0  0  0  0
   12.5243   42.1451    8.3216 C   0  0  0  0  0  0  0  0  0  0  0  0
   10.9772   41.3755   10.2292 C   0  0  0  0  0  0  0  0  0  0  0  0
    9.8157   41.8938    9.6339 C   0  0  0  0  0  0  0  0  0  0  0  0
    8.5760   41.7839   10.2638 C   0  0  0  0  0  0  0  0  0  0  0  0
    8.4807   41.1568   11.5043 C   0  0  0  0  0  0  0  0  0  0  0  0
    9.6241   40.6350   12.1100 C   0  0  0  0  0  0  0  0  0  0  0  0
   10.8751   40.7262   11.4879 C   0  0  0  0  0  0  0  0  0  0  0  0
   13.2490   39.9104   11.6128 C   0  0  0  0  0  0  0  0  0  0  0  0
   13.2032   38.6548   10.7626 C   0  0  0  0  0  0  0  0  0  0  0  0
   16.0137   41.8688    7.7887 C   0  0  0  0  0  0  0  0  0  0  0  0
   15.7185   42.5118    6.6112 C   0  0  0  0  0  0  0  0  0  0  0  0
   16.6955   42.7658    5.6495 C   0  0  0  0  0  0  0  0  0  0  0  0
   18.0142   42.3733    5.9397 C   0  0  0  0  0  0  0  0  0  0  0  0
   18.3206   41.7337    7.1601 C   0  0  0  0  0  0  0  0  0  0  0  0
   17.3108   41.4698    8.1028 C   0  0  0  0  0  0  0  0  0  0  0  0
   14.3563   42.7368    6.6348 C   0  0  0  0  0  0  0  0  0  0  0  0
   13.9405   44.2470    4.6206 C   0  0  0  0  0  0  0  0  0  0  0  0
   13.0460   44.5381    3.4685 C   0  0  0  0  0  0  0  0  0  0  0  0
   12.0347   45.5984    3.8562 C   0  0  0  0  0  0  0  0  0  0  0  0
   11.1270   45.8842    2.6789 C   0  0  0  0  0  0  0  0  0  0  0  0
   11.5958   42.6448    7.6314 O   0  0  0  0  0  0  0  0  0  0  0  0
   11.9668   40.1675   12.1735 O   0  0  0  0  0  0  0  0  0  0  0  0
   14.9305   41.6854    8.5069 O   0  0  0  0  0  0  0  0  0  0  0  0
   15.0103   44.8977    4.7541 O   0  0  0  0  0  0  0  0  0  0  0  0
   12.2526   41.5274    9.5870 N   0  0  0  0  0  0  0  0  0  0  0  0
   13.5267   43.2991    5.6090 N   0  0  0  0  0  0  0  0  0  0  0  0
  1  2  1  0
  1 24  1  0
  2 26  1  0
  4  5  2  0
  6  7  2  0
  8 23  1  0
  8  3  2  0
  9 23  1  0
  9 10  1  0
 11 24  1  0
 12 13  2  0
 12 17  1  0
 14 15  2  0
 16 11  2  0
 17 27  1  0
 19 18  1  0
 19 20  1  0
 20 21  1  0
 26  3  1  0
 27 18  1  0
  2 22  2  0
  3  4  1  0
  5  6  1  0
  7  8  1  0
 11 12  1  0
 13 14  1  0
 15 16  1  0
 17  1  2  0
 18 25  2  0
M  END
>  <rmsd>  (808) 
0.188125938

$$$$
Molport-000-127-861 PubChem-6496806 ZINC000006677846
     RDKit          3D

 20 21  0  0  0  0  0  0  0  0999 V2000
   17.3982   42.7608    8.4848 C   0  0  0  0  0  0  0  0  0  0  0  0
   16.0294   42.4709    7.9722 C   0  0  0  0  0  0  0  0  0  0  0  0
   15.1732   41.5072    8.5221 C   0  0  0  0  0  0  0  0  0  0  0  0
   14.2665   42.7619    6.6159 C   0  0  0  0  0  0  0  0  0  0  0  0
   13.9017   44.3570    4.6748 C   0  0  0  0  0  0  0  0  0  0  0  0
   13.3835   45.8297    2.7731 C   0  0  0  0  0  0  0  0  0  0  0  0
   15.4888   40.5718    9.6296 C   0  0  0  0  0  0  0  0  0  0  0  0
   14.4418   39.9134   10.4455 C   0  0  0  0  0  0  0  0  0  0  0  0
   14.7699   38.7902   11.2213 C   0  0  0  0  0  0  0  0  0  0  0  0
   13.8039   38.1693   12.0183 C   0  0  0  0  0  0  0  0  0  0  0  0
   12.5005   38.6702   12.0527 C   0  0  0  0  0  0  0  0  0  0  0  0
   12.1647   39.7945   11.2951 C   0  0  0  0  0  0  0  0  0  0  0  0
   13.1317   40.4141   10.4989 C   0  0  0  0  0  0  0  0  0  0  0  0
   13.7410   41.5320    7.6271 S   0  0  0  0  0  0  0  0  0  0  0  0
   15.5182   43.1663    6.9213 N   0  0  0  0  0  0  0  0  0  0  0  0
   13.4797   43.3094    5.5536 N   0  0  0  0  0  0  0  0  0  0  0  0
   15.0443   44.8783    4.7970 O   0  0  0  0  0  0  0  0  0  0  0  0
   13.0294   44.7952    3.6785 O   0  0  0  0  0  0  0  0  0  0  0  0
   16.6983   40.3192    9.8827 O   0  0  0  0  0  0  0  0  0  0  0  0
   11.2901   37.8930   13.0497 Cl  0  0  0  0  0  0  0  0  0  0  0  0
  1  2  1  0
  2 15  1  0
  3 14  1  0
  3  7  1  0
  4 14  1  0
  4 16  1  0
  5 18  1  0
  6 18  1  0
  7  8  1  0
  9 10  2  0
 11 12  2  0
 11 20  1  0
 13  8  2  0
 16  5  1  0
  2  3  2  0
  4 15  2  0
  5 17  2  0
  7 19  2  0
  8  9  1  0
 10 11  1  0
 12 13  1  0
M  END
>  <rmsd>  (809) 
0.187858373

$$$$
MolPort-002-455-709 ChemDiv-D039-0039 MCULE-4081757879 PubChem-23605071 ZINC000006809953 ZINC06809953
     RDKit          3D

 23 24  0  0  0  0  0  0  0  0999 V2000
   13.4636   39.5627   12.0887 C   0  0  0  0  0  0  0  0  0  0  0  0
   13.6276   38.8312   10.7691 C   0  0  0  0  0  0  0  0  0  0  0  0
   14.8284   40.5630    9.4690 C   0  0  0  0  0  0  0  0  0  0  0  0
   14.8235   41.5392    8.3602 C   0  0  0  0  0  0  0  0  0  0  0  0
   15.8459   42.4062    7.9926 C   0  0  0  0  0  0  0  0  0  0  0  0
   17.1756   42.5269    8.6537 C   0  0  0  0  0  0  0  0  0  0  0  0
   14.2413   42.7691    6.6193 C   0  0  0  0  0  0  0  0  0  0  0  0
   13.9229   44.3427    4.6518 C   0  0  0  0  0  0  0  0  0  0  0  0
   13.4495   45.6668    2.5491 C   0  0  0  0  0  0  0  0  0  0  0  0
   12.6855   46.8169    2.3217 C   0  0  0  0  0  0  0  0  0  0  0  0
   13.0275   47.7052    1.2993 C   0  0  0  0  0  0  0  0  0  0  0  0
   14.1308   47.4412    0.4858 C   0  0  0  0  0  0  0  0  0  0  0  0
   14.8836   46.2819    0.6860 C   0  0  0  0  0  0  0  0  0  0  0  0
   14.5495   45.3875    1.7084 C   0  0  0  0  0  0  0  0  0  0  0  0
   13.7939   41.7807    7.4688 C   0  0  0  0  0  0  0  0  0  0  0  0
   12.4590   41.1175    7.4179 C   0  0  0  0  0  0  0  0  0  0  0  0
   13.7059   39.7599    9.6940 O   0  0  0  0  0  0  0  0  0  0  0  0
   15.8452   40.4506   10.2068 O   0  0  0  0  0  0  0  0  0  0  0  0
   15.0547   44.8776    4.8062 O   0  0  0  0  0  0  0  0  0  0  0  0
   15.4944   43.1582    6.9298 N   0  0  0  0  0  0  0  0  0  0  0  0
   13.4751   43.3128    5.5382 N   0  0  0  0  0  0  0  0  0  0  0  0
   13.0544   44.7844    3.6050 N   0  0  0  0  0  0  0  0  0  0  0  0
   15.5569   43.7638    1.8318 Br  0  0  0  0  0  0  0  0  0  0  0  0
  1  2  1  0
  2 17  1  0
  3 17  1  0
  3  4  1  0
  5 20  1  0
  6  5  1  0
  7 21  1  0
  8 22  1  0
 10 11  2  0
 12 13  2  0
 14 23  1  0
 14  9  2  0
 15  4  1  0
 16 15  1  0
 20  7  1  0
 21  8  1  0
 22  9  1  0
  3 18  2  0
  4  5  2  0
  7 15  2  0
  8 19  2  0
  9 10  1  0
 11 12  1  0
 13 14  1  0
M  END
>  <rmsd>  (810) 
0.187717736

$$$$
MolPort-002-847-813 386794 CHEMBL1508199 CSSS00121629189 LN01247476 MCULE-3828966775 PubChem-851895 ZINC000000386794 ZINC00386794
     RDKit          3D

 21 22  0  0  0  0  0  0  0  0999 V2000
   12.2371   46.0772    1.8162 C   0  0  0  0  0  0  0  0  0  0  0  0
   13.3841   45.8293    2.7729 C   0  0  0  0  0  0  0  0  0  0  0  0
   13.9020   44.3569    4.6748 C   0  0  0  0  0  0  0  0  0  0  0  0
   14.2664   42.7621    6.6161 C   0  0  0  0  0  0  0  0  0  0  0  0
   16.0289   42.4716    7.9731 C   0  0  0  0  0  0  0  0  0  0  0  0
   17.3974   42.7619    8.4861 C   0  0  0  0  0  0  0  0  0  0  0  0
   15.1728   41.5078    8.5227 C   0  0  0  0  0  0  0  0  0  0  0  0
   15.4883   40.5725    9.6303 C   0  0  0  0  0  0  0  0  0  0  0  0
   14.4411   39.9139   10.4459 C   0  0  0  0  0  0  0  0  0  0  0  0
   13.1308   40.4144   10.4988 C   0  0  0  0  0  0  0  0  0  0  0  0
   12.1635   39.7944   11.2947 C   0  0  0  0  0  0  0  0  0  0  0  0
   12.4995   38.6703   12.0525 C   0  0  0  0  0  0  0  0  0  0  0  0
   13.8030   38.1698   12.0185 C   0  0  0  0  0  0  0  0  0  0  0  0
   14.7691   38.7909   11.2218 C   0  0  0  0  0  0  0  0  0  0  0  0
   13.0299   44.7947    3.6781 O   0  0  0  0  0  0  0  0  0  0  0  0
   15.0444   44.8784    4.7973 O   0  0  0  0  0  0  0  0  0  0  0  0
   16.6976   40.3203    9.8839 O   0  0  0  0  0  0  0  0  0  0  0  0
   13.4799   43.3093    5.5536 N   0  0  0  0  0  0  0  0  0  0  0  0
   15.5179   43.1669    6.9218 N   0  0  0  0  0  0  0  0  0  0  0  0
   13.7408   41.5320    7.6271 S   0  0  0  0  0  0  0  0  0  0  0  0
   11.2890   37.8929   13.0491 Cl  0  0  0  0  0  0  0  0  0  0  0  0
  1  2  1  0
  2 15  1  0
  3 15  1  0
  3 18  1  0
  4 20  1  0
  5 19  1  0
  6  5  1  0
  7 20  1  0
  7  8  1  0
  8  9  1  0
 10 11  2  0
 12 21  1  0
 12 13  2  0
 14  9  2  0
 18  4  1  0
  3 16  2  0
  4 19  2  0
  5  7  2  0
  8 17  2  0
  9 10  1  0
 11 12  1  0
 13 14  1  0
M  END
>  <rmsd>  (811) 
0.187652126

$$$$
MolPort-005-148-118 CSSS00159568032 MCULE-3943007993 PubChem-31192806
     RDKit          3D

 23 24  0  0  0  0  0  0  0  0999 V2000
   12.7308   39.3657   11.7276 C   0  0  0  0  0  0  0  0  0  0  0  0
   13.8293   38.9948   10.7549 C   0  0  0  0  0  0  0  0  0  0  0  0
   15.0001   40.6903    9.4083 C   0  0  0  0  0  0  0  0  0  0  0  0
   14.9797   41.6422    8.2936 C   0  0  0  0  0  0  0  0  0  0  0  0
   16.0285   42.4502    7.9064 C   0  0  0  0  0  0  0  0  0  0  0  0
   14.3424   42.7850    6.6427 C   0  0  0  0  0  0  0  0  0  0  0  0
   13.8981   44.3214    4.6654 C   0  0  0  0  0  0  0  0  0  0  0  0
   11.7333   44.0168    3.4387 C   0  0  0  0  0  0  0  0  0  0  0  0
   13.3745   45.7185    2.6356 C   0  0  0  0  0  0  0  0  0  0  0  0
   13.3125   47.1022    3.2577 C   0  0  0  0  0  0  0  0  0  0  0  0
   13.7773   48.1242    2.2800 C   0  0  0  0  0  0  0  0  0  0  0  0
   14.8417   49.6605    1.3706 C   0  0  0  0  0  0  0  0  0  0  0  0
   15.8310   50.7338    1.0825 C   0  0  0  0  0  0  0  0  0  0  0  0
   13.8614   39.9323    9.6893 O   0  0  0  0  0  0  0  0  0  0  0  0
   16.0397   40.5658   10.1099 O   0  0  0  0  0  0  0  0  0  0  0  0
   15.0232   44.8837    4.7653 O   0  0  0  0  0  0  0  0  0  0  0  0
   13.8707   49.3179    0.5618 O   0  0  0  0  0  0  0  0  0  0  0  0
   15.6174   43.1769    6.8508 N   0  0  0  0  0  0  0  0  0  0  0  0
   13.5119   43.3017    5.5974 N   0  0  0  0  0  0  0  0  0  0  0  0
   12.9993   44.7088    3.6158 N   0  0  0  0  0  0  0  0  0  0  0  0
   13.1770   48.3610    1.0976 N   0  0  0  0  0  0  0  0  0  0  0  0
   14.8410   48.9241    2.4958 N   0  0  0  0  0  0  0  0  0  0  0  0
   13.9100   41.8458    7.5037 N   0  0  0  0  0  0  0  0  0  0  0  0
  1  2  1  0
  2 14  1  0
  3 14  1  0
  3  4  1  0
  5 18  1  0
  6 19  1  0
  6 23  1  0
  7 20  1  0
  8 20  1  0
  9 20  1  0
  9 10  1  0
 10 11  1  0
 11 22  1  0
 12 17  1  0
 13 12  1  0
 19  7  1  0
 21 17  1  0
 23  4  1  0
  3 15  2  0
  4  5  2  0
  6 18  2  0
  7 16  2  0
 11 21  2  0
 12 22  2  0
M  END
>  <rmsd>  (812) 
0.187545478

$$$$
MolPort-019-766-990 CSSS09431944226 PubChem-851890 ZINC000000386788 ZINC00386788
     RDKit          3D

 20 21  0  0  0  0  0  0  0  0999 V2000
   14.3805   45.2635    1.7305 C   0  0  0  0  0  0  0  0  0  0  0  0
   13.3803   45.8038    2.7363 C   0  0  0  0  0  0  0  0  0  0  0  0
   13.9025   44.3555    4.6738 C   0  0  0  0  0  0  0  0  0  0  0  0
   14.2665   42.7602    6.6147 C   0  0  0  0  0  0  0  0  0  0  0  0
   16.0317   42.4639    7.9669 C   0  0  0  0  0  0  0  0  0  0  0  0
   17.4028   42.7494    8.4758 C   0  0  0  0  0  0  0  0  0  0  0  0
   15.1736   41.5036    8.5195 C   0  0  0  0  0  0  0  0  0  0  0  0
   15.4887   40.5678    9.6268 C   0  0  0  0  0  0  0  0  0  0  0  0
   14.4415   39.9135   10.4459 C   0  0  0  0  0  0  0  0  0  0  0  0
   13.1329   40.4182   10.5016 C   0  0  0  0  0  0  0  0  0  0  0  0
   12.1658   39.8023   11.3012 C   0  0  0  0  0  0  0  0  0  0  0  0
   12.5001   38.6786   12.0605 C   0  0  0  0  0  0  0  0  0  0  0  0
   13.8018   38.1734   12.0225 C   0  0  0  0  0  0  0  0  0  0  0  0
   14.7677   38.7904   11.2222 C   0  0  0  0  0  0  0  0  0  0  0  0
   13.0283   44.7955    3.6767 O   0  0  0  0  0  0  0  0  0  0  0  0
   15.0441   44.8784    4.7984 O   0  0  0  0  0  0  0  0  0  0  0  0
   16.6979   40.3111    9.8769 O   0  0  0  0  0  0  0  0  0  0  0  0
   13.4793   43.3092    5.5535 N   0  0  0  0  0  0  0  0  0  0  0  0
   15.5204   43.1604    6.9166 N   0  0  0  0  0  0  0  0  0  0  0  0
   13.7392   41.5327    7.6278 S   0  0  0  0  0  0  0  0  0  0  0  0
  1  2  1  0
  2 15  1  0
  3 15  1  0
  3 18  1  0
  4 20  1  0
  5 19  1  0
  6  5  1  0
  7 20  1  0
  7  8  1  0
  8  9  1  0
 10 11  2  0
 12 13  2  0
 14  9  2  0
 18  4  1  0
  3 16  2  0
  4 19  2  0
  5  7  2  0
  8 17  2  0
  9 10  1  0
 11 12  1  0
 13 14  1  0
M  END
>  <rmsd>  (813) 
0.187338173

$$$$
MolPort-002-455-752 2685904 CSSS03437074035 MCULE-3982980660 PubChem-2134010 ZINC000002685904 ZINC02685904
     RDKit          3D

 21 21  0  0  0  0  0  0  0  0999 V2000
   15.2260   44.8704   -1.2739 C   0  0  0  0  0  0  0  0  0  0  0  0
   15.8822   45.7779   -0.2503 C   0  0  0  0  0  0  0  0  0  0  0  0
   14.8505   46.3032    0.7320 C   0  0  0  0  0  0  0  0  0  0  0  0
   14.4625   45.2211    1.7218 C   0  0  0  0  0  0  0  0  0  0  0  0
   13.4315   45.7690    2.6913 C   0  0  0  0  0  0  0  0  0  0  0  0
   13.9161   44.3486    4.6584 C   0  0  0  0  0  0  0  0  0  0  0  0
   14.2448   42.7784    6.6280 C   0  0  0  0  0  0  0  0  0  0  0  0
   13.8073   41.7802    7.4715 C   0  0  0  0  0  0  0  0  0  0  0  0
   12.4852   41.0931    7.4068 C   0  0  0  0  0  0  0  0  0  0  0  0
   14.8325   41.5560    8.3724 C   0  0  0  0  0  0  0  0  0  0  0  0
   14.8445   40.5779    9.4795 C   0  0  0  0  0  0  0  0  0  0  0  0
   13.6719   38.8167   10.7600 C   0  0  0  0  0  0  0  0  0  0  0  0
   13.3820   39.5302   12.0672 C   0  0  0  0  0  0  0  0  0  0  0  0
   15.8420   42.4426    8.0167 C   0  0  0  0  0  0  0  0  0  0  0  0
   17.1625   42.5870    8.6915 C   0  0  0  0  0  0  0  0  0  0  0  0
   13.0620   44.7724    3.6373 O   0  0  0  0  0  0  0  0  0  0  0  0
   15.0530   44.8770    4.8005 O   0  0  0  0  0  0  0  0  0  0  0  0
   15.8553   40.4838   10.2281 O   0  0  0  0  0  0  0  0  0  0  0  0
   13.7349   39.7543    9.6925 O   0  0  0  0  0  0  0  0  0  0  0  0
   13.4778   43.3121    5.5423 N   0  0  0  0  0  0  0  0  0  0  0  0
   15.4869   43.1904    6.9520 N   0  0  0  0  0  0  0  0  0  0  0  0
  1  2  1  0
  2  3  1  0
  3  4  1  0
  4  5  1  0
  5 16  1  0
  6 16  1  0
  6 20  1  0
  8 10  1  0
  9  8  1  0
 10 11  1  0
 11 19  1  0
 12 19  1  0
 12 13  1  0
 14 21  1  0
 15 14  1  0
 20  7  1  0
 21  7  1  0
  6 17  2  0
  7  8  2  0
 10 14  2  0
 11 18  2  0
M  END
>  <rmsd>  (814) 
0.18664442

$$$$
MolPort-035-884-037 5462314 PubChem-6013747 ZINC000005462314 ZINC05462314
     RDKit          3D

 23 24  0  0  0  0  0  0  0  0999 V2000
   19.1971   40.1229    4.4949 C   0  0  0  0  0  0  0  0  0  0  0  0
   18.6425   41.5306    4.4307 C   0  0  0  0  0  0  0  0  0  0  0  0
   16.4219   42.0810    5.3413 C   0  0  0  0  0  0  0  0  0  0  0  0
   15.5607   42.2717    6.5186 C   0  0  0  0  0  0  0  0  0  0  0  0
   15.8639   41.8532    7.8014 C   0  0  0  0  0  0  0  0  0  0  0  0
   14.2600   42.7542    6.5935 C   0  0  0  0  0  0  0  0  0  0  0  0
   13.9543   44.2907    4.6040 C   0  0  0  0  0  0  0  0  0  0  0  0
   13.1470   44.6390    3.4220 C   0  0  0  0  0  0  0  0  0  0  0  0
   11.9175   44.0047    3.1919 C   0  0  0  0  0  0  0  0  0  0  0  0
   11.1519   44.3326    2.0691 C   0  0  0  0  0  0  0  0  0  0  0  0
   11.6107   45.2971    1.1679 C   0  0  0  0  0  0  0  0  0  0  0  0
   12.8350   45.9336    1.3891 C   0  0  0  0  0  0  0  0  0  0  0  0
   13.6006   45.6056    2.5119 C   0  0  0  0  0  0  0  0  0  0  0  0
   14.6576   41.7612    9.9718 C   0  0  0  0  0  0  0  0  0  0  0  0
   14.0530   40.4066   10.1261 C   0  0  0  0  0  0  0  0  0  0  0  0
   13.8525   39.9026   11.3389 C   0  0  0  0  0  0  0  0  0  0  0  0
   13.2488   38.5502   11.4921 C   0  0  0  0  0  0  0  0  0  0  0  0
   17.7646   41.7448    5.5257 O   0  0  0  0  0  0  0  0  0  0  0  0
   15.9458   42.1831    4.1782 O   0  0  0  0  0  0  0  0  0  0  0  0
   15.0531   44.8755    4.8110 O   0  0  0  0  0  0  0  0  0  0  0  0
   14.7772   42.0921    8.5625 N   0  0  0  0  0  0  0  0  0  0  0  0
   13.7966   42.6181    7.8467 N   0  0  0  0  0  0  0  0  0  0  0  0
   13.4752   43.3133    5.5353 N   0  0  0  0  0  0  0  0  0  0  0  0
  1  2  1  0
  2 18  1  0
  3 18  1  0
  3  4  1  0
  5 21  1  0
  6 23  1  0
  6  4  1  0
  7  8  1  0
  9 10  2  0
 11 12  2  0
 13  8  2  0
 14 21  1  0
 14 15  1  0
 17 16  1  0
 21 22  1  0
 23  7  1  0
  3 19  2  0
  4  5  2  0
  6 22  2  0
  7 20  2  0
  8  9  1  0
 10 11  1  0
 12 13  1  0
 15 16  2  0
M  END
>  <rmsd>  (815) 
0.185133532

$$$$
MolPort-007-723-372 ChemDiv-E157-4884 MCULE-8593298101 PubChem-22517958
     RDKit          3D

 24 26  0  0  0  0  0  0  0  0999 V2000
   12.1083   39.0428   11.2661 C   0  0  0  0  0  0  0  0  0  0  0  0
   13.4666   39.6674   11.0279 C   0  0  0  0  0  0  0  0  0  0  0  0
   14.4703   39.0470   11.9813 C   0  0  0  0  0  0  0  0  0  0  0  0
   13.8852   39.4210    9.5878 C   0  0  0  0  0  0  0  0  0  0  0  0
   14.9308   40.3969    9.1584 C   0  0  0  0  0  0  0  0  0  0  0  0
   15.9329   41.9278    8.1278 C   0  0  0  0  0  0  0  0  0  0  0  0
   14.3094   42.6925    6.5780 C   0  0  0  0  0  0  0  0  0  0  0  0
   13.8874   44.3765    4.7005 C   0  0  0  0  0  0  0  0  0  0  0  0
   12.9087   44.8796    3.6937 C   0  0  1  0  0  0  0  0  0  0  0  0
   12.4480   46.2792    4.0522 C   0  0  0  0  0  0  0  0  0  0  0  0
   13.0658   44.0297    1.3747 C   0  0  0  0  0  0  0  0  0  0  0  0
   12.0219   43.1101    1.5710 C   0  0  0  0  0  0  0  0  0  0  0  0
   11.6166   42.2715    0.5285 C   0  0  0  0  0  0  0  0  0  0  0  0
   12.2509   42.3462   -0.7146 C   0  0  0  0  0  0  0  0  0  0  0  0
   13.2902   43.2592   -0.9152 C   0  0  0  0  0  0  0  0  0  0  0  0
   13.6957   44.0980    0.1274 C   0  0  0  0  0  0  0  0  0  0  0  0
   16.1905   40.4842    9.6656 N   0  0  0  0  0  0  0  0  0  0  0  0
   16.8318   41.4610    9.0108 N   0  0  0  0  0  0  0  0  0  0  0  0
   13.4994   43.3056    5.5680 N   0  0  0  0  0  0  0  0  0  0  0  0
   13.8350   41.6795    7.3575 N   0  0  0  0  0  0  0  0  0  0  0  0
   14.7883   41.3061    8.1948 N   0  0  0  0  0  0  0  0  0  0  0  0
   15.9490   43.1151    6.9477 S   0  0  0  0  0  0  0  0  0  0  0  0
   15.0307   44.9009    4.7815 O   0  0  0  0  0  0  0  0  0  0  0  0
   13.4945   44.8805    2.3974 O   0  0  0  0  0  0  0  0  0  0  0  0
  1  2  1  0
  2  3  1  0
  2  4  1  0
  4  5  1  0
  6 22  1  0
  7 22  1  0
  7 19  1  0
  9  8  1  0
  9 10  1  1
  9 24  1  0
 11 24  1  0
 12 13  2  0
 14 15  2  0
 16 11  2  0
 17 18  1  0
 19  8  1  0
 21 20  1  0
 21  5  1  0
 21  6  1  0
  5 17  2  0
  6 18  2  0
  7 20  2  0
  8 23  2  0
 11 12  1  0
 13 14  1  0
 15 16  1  0
M  END
>  <rmsd>  (816) 
0.184018701

$$$$
MolPort-039-210-383 CSSS03436976271 MCULE-3826200929 PubChem-121016978
     RDKit          3D

 23 25  0  0  0  0  0  0  0  0999 V2000
   15.0398   44.8915    4.8047 O   0  0  0  0  0  0  0  0  0  0  0  0
   10.7909   45.6134    5.8372 O   0  0  0  0  0  0  0  0  0  0  0  0
   14.0060   47.7133    3.2592 O   0  0  0  0  0  0  0  0  0  0  0  0
   13.1802   40.8515   10.3052 O   0  0  0  0  0  0  0  0  0  0  0  0
   13.8748   44.4157    4.7410 C   0  0  0  0  0  0  0  0  0  0  0  0
   12.8825   45.0168    3.8047 C   0  0  0  0  0  0  0  0  0  0  0  0
   11.5009   46.5295    5.3449 C   0  0  0  0  0  0  0  0  0  0  0  0
   11.4565   47.9480    5.8017 C   0  0  0  0  0  0  0  0  0  0  0  0
   12.5351   48.6446    4.9535 C   0  0  0  0  0  0  0  0  0  0  0  0
   13.0714   47.5538    4.0887 C   0  0  0  0  0  0  0  0  0  0  0  0
   14.3064   42.6875    6.5505 C   0  0  0  0  0  0  0  0  0  0  0  0
   13.9916   41.5278    7.2211 C   0  0  0  0  0  0  0  0  0  0  0  0
   15.1180   40.1808    8.9763 C   0  0  0  0  0  0  0  0  0  0  0  0
   14.5684   40.5522   10.3508 C   0  0  2  0  0  0  0  0  0  0  0  0
   14.9454   39.4810   11.3903 C   0  0  0  0  0  0  0  0  0  0  0  0
   13.7985   39.2561   12.3718 C   0  0  0  0  0  0  0  0  0  0  0  0
   12.5018   38.9380   11.6255 C   0  0  0  0  0  0  0  0  0  0  0  0
   12.4499   39.6457   10.2667 C   0  0  0  0  0  0  0  0  0  0  0  0
   15.5229   43.1385    7.0309 C   0  0  0  0  0  0  0  0  0  0  0  0
   12.4341   46.3103    4.3047 N   0  0  0  0  0  0  0  0  0  0  0  0
   13.4860   43.3033    5.5532 N   0  0  0  0  0  0  0  0  0  0  0  0
   15.0163   41.3064    8.0633 N   0  0  0  0  0  0  0  0  0  0  0  0
   15.9303   42.2592    7.9662 N   0  0  0  0  0  0  0  0  0  0  0  0
  5 21  1  0
  6  5  1  0
  6 20  1  0
  8  7  1  0
  8  9  1  0
  9 10  1  0
 10 20  1  0
 12 22  1  0
 13 22  1  0
 14 13  1  6
 14 15  1  0
 14  4  1  0
 15 16  1  0
 16 17  1  0
 17 18  1  0
 18  4  1  0
 19 11  1  0
 20  7  1  0
 21 11  1  0
 22 23  1  0
  5  1  2  0
  7  2  2  0
 10  3  2  0
 11 12  2  0
 19 23  2  0
M  END
>  <rmsd>  (817) 
0.183427766

$$$$
MolPort-005-103-567 12481498 CSSS00159780969 MCULE-5989226260 PubChem-25313221 ZINC000012481498
     RDKit          3D

 33 38  0  0  0  0  0  0  0  0999 V2000
   14.3415   42.7699    6.6335 C   0  0  0  0  0  0  0  0  0  0  0  0
   15.6294   43.1621    6.9467 C   0  0  0  0  0  0  0  0  0  0  0  0
   15.9588   42.3502    8.0271 C   0  0  0  0  0  0  0  0  0  0  0  0
   12.6397   41.1538    7.4767 C   0  0  0  0  0  0  0  0  0  0  0  0
   12.7924   39.6414    7.4446 C   0  0  0  0  0  0  0  0  0  0  0  0
   11.4163   38.9770    7.4474 C   0  0  0  0  0  0  0  0  0  0  0  0
   10.4927   40.8933    8.7257 C   0  0  0  0  0  0  0  0  0  0  0  0
   11.8677   41.5579    8.7219 C   0  0  0  0  0  0  0  0  0  0  0  0
   10.7514   38.6924    9.8101 C   0  0  0  0  0  0  0  0  0  0  0  0
   12.0997   38.8735   10.4468 C   0  0  0  0  0  0  0  0  0  0  0  0
   13.1091   38.0000   10.1959 C   0  0  0  0  0  0  0  0  0  0  0  0
   14.4185   38.1550   10.9842 C   0  0  0  0  0  0  0  0  0  0  0  0
   14.3103   39.3148   12.0299 C   0  0  2  0  0  0  0  0  0  0  0  0
   12.9597   39.2106   12.7593 C   0  0  0  0  0  0  0  0  0  0  0  0
   12.4566   37.8082   13.1181 C   0  0  0  0  0  0  0  0  0  0  0  0
   12.9256   40.0951   14.0003 C   0  0  0  0  0  0  0  0  0  0  0  0
   12.3201   39.9148   11.5483 C   0  0  1  0  0  0  0  0  0  0  0  0
   13.7120   40.4778   11.2326 C   0  0  0  0  0  0  0  0  0  0  0  0
   13.8800   44.3580    4.6905 C   0  0  0  0  0  0  0  0  0  0  0  0
   12.9169   44.8182    3.6752 C   0  0  0  0  0  0  0  0  0  0  0  0
   11.6374   44.2173    3.5843 C   0  0  0  0  0  0  0  0  0  0  0  0
   10.7072   44.6433    2.6193 C   0  0  0  0  0  0  0  0  0  0  0  0
   11.0939   45.6719    1.7655 C   0  0  0  0  0  0  0  0  0  0  0  0
   12.3167   46.2541    1.8461 C   0  0  0  0  0  0  0  0  0  0  0  0
   11.1889   47.2772    0.1513 C   0  0  0  0  0  0  0  0  0  0  0  0
   13.2635   45.8591    2.7873 C   0  0  0  0  0  0  0  0  0  0  0  0
   14.9208   41.5386    8.3213 N   0  0  0  0  0  0  0  0  0  0  0  0
   13.9476   41.7974    7.4664 N   0  0  0  0  0  0  0  0  0  0  0  0
   10.5616   39.4337    8.5552 N   0  0  0  0  0  0  0  0  0  0  0  0
   13.5137   43.3056    5.5932 N   0  0  0  0  0  0  0  0  0  0  0  0
   15.0216   44.8901    4.7586 O   0  0  0  0  0  0  0  0  0  0  0  0
   12.4222   47.2376    0.8832 O   0  0  0  0  0  0  0  0  0  0  0  0
   10.3708   46.2598    0.7469 O   0  0  0  0  0  0  0  0  0  0  0  0
  1 30  1  0
  2  3  1  0
  4 28  1  0
  4  5  1  0
  5  6  1  0
  6 29  1  0
  7 29  1  0
  7  8  1  0
  8  4  1  0
  9 29  1  0
  9 10  1  0
 12 11  1  0
 13 12  1  6
 13 14  1  0
 14 15  1  0
 14 16  1  0
 17 14  1  0
 17 18  1  6
 17 10  1  0
 18 13  1  0
 19 20  1  0
 20 21  2  0
 22 23  2  0
 23 33  1  0
 24 32  1  0
 24 26  2  0
 25 32  1  0
 25 33  1  0
 28 27  1  0
 28  1  1  0
 30 19  1  0
  1  2  2  0
  3 27  2  0
 10 11  2  0
 19 31  2  0
 21 22  1  0
 23 24  1  0
 26 20  1  0
M  END
>  <rmsd>  (818) 
0.182944775

$$$$
MolPort-007-723-061 6818060 ChemDiv-E157-3209 MCULE-6979807899 PubChem-22517673 ZINC000006818060 ZINC06818060
     RDKit          3D

 22 24  0  0  0  0  0  0  0  0999 V2000
   14.4630   39.0479   11.9816 C   0  0  0  0  0  0  0  0  0  0  0  0
   13.4620   39.6569   11.0180 C   0  0  0  0  0  0  0  0  0  0  0  0
   12.1095   39.0140   11.2396 C   0  0  0  0  0  0  0  0  0  0  0  0
   13.9001   39.4188    9.5822 C   0  0  0  0  0  0  0  0  0  0  0  0
   14.9362   40.4103    9.1659 C   0  0  0  0  0  0  0  0  0  0  0  0
   15.9271   41.9579    8.1496 C   0  0  0  0  0  0  0  0  0  0  0  0
   14.3096   42.7024    6.5838 C   0  0  0  0  0  0  0  0  0  0  0  0
   13.8816   44.3834    4.6991 C   0  0  0  0  0  0  0  0  0  0  0  0
   12.9226   44.8910    3.7017 C   0  0  0  0  0  0  0  0  0  0  0  0
   13.2791   45.9425    2.8439 C   0  0  0  0  0  0  0  0  0  0  0  0
   12.3687   46.4232    1.8983 C   0  0  0  0  0  0  0  0  0  0  0  0
   11.0952   45.8561    1.8033 C   0  0  0  0  0  0  0  0  0  0  0  0
   10.7317   44.8084    2.6534 C   0  0  0  0  0  0  0  0  0  0  0  0
   11.6421   44.3276    3.5992 C   0  0  0  0  0  0  0  0  0  0  0  0
   16.1886   40.5153    9.6878 N   0  0  0  0  0  0  0  0  0  0  0  0
   16.8228   41.5030    9.0420 N   0  0  0  0  0  0  0  0  0  0  0  0
   13.5004   43.3077    5.5681 N   0  0  0  0  0  0  0  0  0  0  0  0
   13.8417   41.6807    7.3557 N   0  0  0  0  0  0  0  0  0  0  0  0
   14.7913   41.3191    8.2024 N   0  0  0  0  0  0  0  0  0  0  0  0
   15.9383   43.1487    6.9731 S   0  0  0  0  0  0  0  0  0  0  0  0
   15.0293   44.8989    4.7807 O   0  0  0  0  0  0  0  0  0  0  0  0
   10.2131   46.3218    0.8870 F   0  0  0  0  0  0  0  0  0  0  0  0
  1  2  1  0
  2  3  1  0
  2  4  1  0
  4  5  1  0
  6 20  1  0
  7 20  1  0
  7 17  1  0
  8  9  1  0
 10 11  2  0
 12 22  1  0
 12 13  2  0
 14  9  2  0
 15 16  1  0
 17  8  1  0
 19 18  1  0
 19  5  1  0
 19  6  1  0
  5 15  2  0
  6 16  2  0
  7 18  2  0
  8 21  2  0
  9 10  1  0
 11 12  1  0
 13 14  1  0
M  END
>  <rmsd>  (819) 
0.180142045

$$$$
MolPort-004-987-956 CSSS00159522349 MCULE-1732611746 PubChem-45163321
     RDKit          3D

 35 39  0  0  0  0  0  0  0  0999 V2000
   12.7084   38.0233    6.5808 C   0  0  0  0  0  0  0  0  0  0  0  0
   13.4214   40.3798    6.5502 C   0  0  0  0  0  0  0  0  0  0  0  0
   14.2241   41.4754    7.1371 C   0  0  0  0  0  0  0  0  0  0  0  0
   14.2786   42.7877    6.6582 C   0  0  0  0  0  0  0  0  0  0  0  0
   15.1154   43.4804    7.5151 C   0  0  0  0  0  0  0  0  0  0  0  0
   15.4708   44.8229    7.6023 C   0  0  0  0  0  0  0  0  0  0  0  0
   16.3185   45.2059    8.6554 C   0  0  0  0  0  0  0  0  0  0  0  0
   16.7552   44.2333    9.5881 C   0  0  0  0  0  0  0  0  0  0  0  0
   15.5494   42.5756    8.4452 C   0  0  0  0  0  0  0  0  0  0  0  0
   15.2236   40.1791    9.0713 C   0  0  0  0  0  0  0  0  0  0  0  0
   14.3389   40.2497   10.3065 C   0  0  2  0  0  0  0  0  0  0  0  0
   14.6389   39.0774   11.2087 C   0  0  0  0  0  0  0  0  0  0  0  0
   13.2907   38.6422   11.6975 C   0  0  0  0  0  0  0  0  0  0  0  0
   12.3351   39.6064   11.0361 C   0  0  0  0  0  0  0  0  0  0  0  0
   17.5980   47.0549    9.8214 C   0  0  0  0  0  0  0  0  0  0  0  0
   17.7860   48.5243    9.6836 C   0  0  0  0  0  0  0  0  0  0  0  0
   18.7203   49.1427    8.8869 C   0  0  0  0  0  0  0  0  0  0  0  0
   17.5338   50.6840    9.8154 C   0  0  0  0  0  0  0  0  0  0  0  0
   17.0086   49.4916   10.2803 C   0  0  0  0  0  0  0  0  0  0  0  0
   13.8558   44.4388    4.7600 C   0  0  0  0  0  0  0  0  0  0  0  0
   12.8502   45.0424    3.8684 C   0  0  0  0  0  0  0  0  0  0  0  0
   13.2013   46.0993    3.0146 C   0  0  0  0  0  0  0  0  0  0  0  0
   12.2473   46.6698    2.1669 C   0  0  0  0  0  0  0  0  0  0  0  0
   10.9359   46.1878    2.1665 C   0  0  0  0  0  0  0  0  0  0  0  0
   10.5781   45.1349    3.0128 C   0  0  0  0  0  0  0  0  0  0  0  0
   11.5318   44.5642    3.8606 C   0  0  0  0  0  0  0  0  0  0  0  0
   13.4713   39.0995    7.1041 O   0  0  0  0  0  0  0  0  0  0  0  0
   12.6934   40.6035    5.5447 O   0  0  0  0  0  0  0  0  0  0  0  0
   12.9855   40.1906    9.9401 O   0  0  0  0  0  0  0  0  0  0  0  0
   18.5368   50.4363    9.0015 O   0  0  0  0  0  0  0  0  0  0  0  0
   15.0359   44.8835    4.7674 O   0  0  0  0  0  0  0  0  0  0  0  0
   16.3590   42.9310    9.4751 N   0  0  0  0  0  0  0  0  0  0  0  0
   15.0254   41.3547    8.2303 N   0  0  0  0  0  0  0  0  0  0  0  0
   16.7148   46.5738    8.7697 N   0  0  0  0  0  0  0  0  0  0  0  0
   13.5033   43.3128    5.5729 N   0  0  0  0  0  0  0  0  0  0  0  0
  1 27  1  0
  2 27  1  0
  2  3  1  0
  4  5  1  0
  4 35  1  0
  6  7  2  0
  7 34  1  0
  8 32  2  0
  9 33  1  0
  9  5  2  0
 10 33  1  0
 11 10  1  6
 11 12  1  0
 11 29  1  0
 12 13  1  0
 13 14  1  0
 14 29  1  0
 15 34  1  0
 15 16  1  0
 17 30  1  0
 18 30  1  0
 19 16  1  0
 20 21  1  0
 22 23  2  0
 24 25  2  0
 26 21  2  0
 33  3  1  0
 35 20  1  0
  2 28  2  0
  3  4  2  0
  5  6  1  0
  7  8  1  0
  9 32  1  0
 16 17  2  0
 18 19  2  0
 20 31  2  0
 21 22  1  0
 23 24  1  0
 25 26  1  0
M  END
>  <rmsd>  (820) 
0.179839909

$$$$
MolPort-007-723-358 6818236 ChemDiv-E157-4659 MCULE-2103009041 PubChem-22517944 ZINC000006818236 ZINC06818236
     RDKit          3D

 24 26  0  0  0  0  0  0  0  0999 V2000
   12.1071   38.9716   11.2113 C   0  0  0  0  0  0  0  0  0  0  0  0
   13.4517   39.6372   11.0094 C   0  0  0  0  0  0  0  0  0  0  0  0
   14.4494   39.0427   11.9853 C   0  0  0  0  0  0  0  0  0  0  0  0
   13.9131   39.4096    9.5793 C   0  0  0  0  0  0  0  0  0  0  0  0
   14.9383   40.4191    9.1792 C   0  0  0  0  0  0  0  0  0  0  0  0
   15.9171   41.9857    8.1803 C   0  0  0  0  0  0  0  0  0  0  0  0
   14.3081   42.7087    6.5957 C   0  0  0  0  0  0  0  0  0  0  0  0
   13.8838   44.3826    4.7099 C   0  0  0  0  0  0  0  0  0  0  0  0
   12.9207   44.8728    3.6897 C   0  0  0  0  0  0  0  0  0  0  0  0
   12.2351   44.2945    1.3830 C   0  0  0  0  0  0  0  0  0  0  0  0
   12.3969   43.4632    0.2659 C   0  0  0  0  0  0  0  0  0  0  0  0
   11.6192   43.6635   -0.8789 C   0  0  0  0  0  0  0  0  0  0  0  0
   10.6762   44.6942   -0.9149 C   0  0  0  0  0  0  0  0  0  0  0  0
   10.5090   45.5269    0.1944 C   0  0  0  0  0  0  0  0  0  0  0  0
   11.2850   45.3288    1.3397 C   0  0  0  0  0  0  0  0  0  0  0  0
   16.1815   40.5437    9.7185 N   0  0  0  0  0  0  0  0  0  0  0  0
   16.8079   41.5434    9.0840 N   0  0  0  0  0  0  0  0  0  0  0  0
   13.5022   43.3056    5.5728 N   0  0  0  0  0  0  0  0  0  0  0  0
   13.8470   41.6769    7.3583 N   0  0  0  0  0  0  0  0  0  0  0  0
   14.7915   41.3278    8.2160 N   0  0  0  0  0  0  0  0  0  0  0  0
   15.9238   43.1811    7.0082 S   0  0  0  0  0  0  0  0  0  0  0  0
   15.0299   44.8994    4.7747 O   0  0  0  0  0  0  0  0  0  0  0  0
   13.0234   44.0760    2.5171 O   0  0  0  0  0  0  0  0  0  0  0  0
   13.3082   42.4596    0.2876 F   0  0  0  0  0  0  0  0  0  0  0  0
  1  2  1  0
  2  3  1  0
  2  4  1  0
  4  5  1  0
  6 21  1  0
  7 21  1  0
  7 18  1  0
  9  8  1  0
  9 23  1  0
 10 23  1  0
 11 24  1  0
 11 12  2  0
 13 14  2  0
 15 10  2  0
 16 17  1  0
 18  8  1  0
 20 19  1  0
 20  5  1  0
 20  6  1  0
  5 16  2  0
  6 17  2  0
  7 19  2  0
  8 22  2  0
 10 11  1  0
 12 13  1  0
 14 15  1  0
M  END
>  <rmsd>  (821) 
0.177787125

$$$$
MolPort-027-838-698 94993282 BDVCSFQDCLSZMF-UHFFFAOYSA-N CSSS00160854351 LN01937735 MCULE-8355571149 PubChem-75366575 ZINC000094993282 ZINC94993282
     RDKit          3D

 21 22  0  0  0  0  0  0  0  0999 V2000
   13.4500   39.6217   11.9686 C   0  0  0  0  0  0  0  0  0  0  0  0
   13.6329   38.9050   10.6431 C   0  0  0  0  0  0  0  0  0  0  0  0
   14.8406   40.6562    9.3779 C   0  0  0  0  0  0  0  0  0  0  0  0
   14.8389   41.6309    8.2825 C   0  0  0  0  0  0  0  0  0  0  0  0
   15.8737   42.4912    7.9670 C   0  0  0  0  0  0  0  0  0  0  0  0
   14.2540   42.7785    6.6281 C   0  0  0  0  0  0  0  0  0  0  0  0
   13.9198   44.3420    4.6674 C   0  0  0  0  0  0  0  0  0  0  0  0
   13.0142   44.8213    3.5895 C   0  0  0  0  0  0  0  0  0  0  0  0
   12.1101   45.9178    4.1260 C   0  0  0  0  0  0  0  0  0  0  0  0
   11.1877   46.4048    3.0613 C   0  0  0  0  0  0  0  0  0  0  0  0
   10.1908   45.5667    2.5443 C   0  0  0  0  0  0  0  0  0  0  0  0
    9.3204   46.0395    1.5573 C   0  0  0  0  0  0  0  0  0  0  0  0
    9.4412   47.3512    1.0889 C   0  0  0  0  0  0  0  0  0  0  0  0
   10.4309   48.1912    1.6086 C   0  0  0  0  0  0  0  0  0  0  0  0
   11.3017   47.7191    2.5956 C   0  0  0  0  0  0  0  0  0  0  0  0
   13.7195   39.8452    9.5788 O   0  0  0  0  0  0  0  0  0  0  0  0
   15.8511   40.5513   10.1258 O   0  0  0  0  0  0  0  0  0  0  0  0
   15.4650   43.1855    6.9317 O   0  0  0  0  0  0  0  0  0  0  0  0
   15.0536   44.8730    4.8076 O   0  0  0  0  0  0  0  0  0  0  0  0
   13.4774   43.3058    5.5493 N   0  0  0  0  0  0  0  0  0  0  0  0
   13.8041   41.8040    7.4386 N   0  0  0  0  0  0  0  0  0  0  0  0
  1  2  1  0
  2 16  1  0
  3 16  1  0
  3  4  1  0
  4 21  1  0
  5 18  1  0
  6 18  1  0
  6 20  1  0
  8  7  1  0
  8  9  1  0
  9 10  1  0
 11 12  2  0
 13 14  2  0
 15 10  2  0
 20  7  1  0
  3 17  2  0
  4  5  2  0
  6 21  2  0
  7 19  2  0
 10 11  1  0
 12 13  1  0
 14 15  1  0
M  END
>  <rmsd>  (822) 
0.174594134

$$$$
MolPort-002-319-884 6273700 LN01124744 MCULE-2831407268 ZINC000006273700
     RDKit          3D

 25 25  0  0  0  0  0  0  0  0999 V2000
   11.3965   38.9892   12.2352 C   0  0  0  0  0  0  0  0  0  0  0  0
   12.5036   39.9981   11.9948 C   0  0  0  0  0  0  0  0  0  0  0  0
   13.8322   39.2892   11.7856 C   0  0  0  0  0  0  0  0  0  0  0  0
   13.8983   38.6408   10.4080 C   0  0  0  0  0  0  0  0  0  0  0  0
   15.0383   40.4440    9.1513 C   0  0  0  0  0  0  0  0  0  0  0  0
   14.9756   41.4724    8.1096 C   0  0  0  0  0  0  0  0  0  0  0  0
   14.3113   42.7045    6.5659 C   0  0  0  0  0  0  0  0  0  0  0  0
   13.8889   44.3811    4.7037 C   0  0  0  0  0  0  0  0  0  0  0  0
   12.9408   44.8928    3.6553 C   0  0  0  0  0  0  0  0  0  0  0  0
   13.3013   44.3880    2.2394 C   0  0  0  0  0  0  0  0  0  0  0  0
   13.2448   42.8568    2.0862 C   0  0  0  0  0  0  0  0  0  0  0  0
   13.9265   39.6289    9.3831 O   0  0  0  0  0  0  0  0  0  0  0  0
   16.0939   40.2986    9.8263 O   0  0  0  0  0  0  0  0  0  0  0  0
   15.0393   44.8875    4.8040 O   0  0  0  0  0  0  0  0  0  0  0  0
   15.9955   42.3001    7.8131 N   0  0  0  0  0  0  0  0  0  0  0  0
   15.5751   43.0815    6.8341 N   0  0  0  0  0  0  0  0  0  0  0  0
   13.4891   43.3028    5.5592 N   0  0  0  0  0  0  0  0  0  0  0  0
   13.8878   41.6918    7.3447 N   0  0  0  0  0  0  0  0  0  0  0  0
   12.9907   46.2770    3.6582 F   0  0  0  0  0  0  0  0  0  0  0  0
   11.6456   44.5185    3.9747 F   0  0  0  0  0  0  0  0  0  0  0  0
   12.4099   44.9487    1.3394 F   0  0  0  0  0  0  0  0  0  0  0  0
   14.5736   44.8242    1.9063 F   0  0  0  0  0  0  0  0  0  0  0  0
   14.2275   42.2501    2.8479 F   0  0  0  0  0  0  0  0  0  0  0  0
   13.4559   42.5232    0.7603 F   0  0  0  0  0  0  0  0  0  0  0  0
   12.0072   42.3713    2.4692 F   0  0  0  0  0  0  0  0  0  0  0  0
  1  2  1  0
  2  3  1  0
  3  4  1  0
  4 12  1  0
  5 12  1  0
  5  6  1  0
  6 18  1  0
  7 17  1  0
  9  8  1  0
  9 19  1  0
  9 20  1  0
  9 10  1  0
 10 21  1  0
 10 22  1  0
 10 11  1  0
 11 23  1  0
 11 24  1  0
 11 25  1  0
 16 15  1  0
 16  7  1  0
 17  8  1  0
  5 13  2  0
  6 15  2  0
  7 18  2  0
  8 14  2  0
M  END
>  <rmsd>  (823) 
0.174373895

$$$$
MolPort-004-984-431 CSSS00160433007 MCULE-7777915856 PubChem-45161700
     RDKit          3D

 35 38  0  0  0  0  0  0  0  0999 V2000
   11.7616   39.6589    4.8140 C   0  0  0  0  0  0  0  0  0  0  0  0
   13.3770   40.3814    6.5265 C   0  0  0  0  0  0  0  0  0  0  0  0
   14.2034   41.4566    7.1170 C   0  0  0  0  0  0  0  0  0  0  0  0
   14.2762   42.7699    6.6450 C   0  0  0  0  0  0  0  0  0  0  0  0
   13.8547   44.4502    4.7698 C   0  0  0  0  0  0  0  0  0  0  0  0
   12.8431   45.0771    3.9016 C   0  0  0  0  0  0  0  0  0  0  0  0
   13.1774   46.1818    3.1039 C   0  0  0  0  0  0  0  0  0  0  0  0
   12.2153   46.7780    2.2833 C   0  0  0  0  0  0  0  0  0  0  0  0
   10.9122   46.2739    2.2542 C   0  0  0  0  0  0  0  0  0  0  0  0
   10.5709   45.1739    3.0453 C   0  0  0  0  0  0  0  0  0  0  0  0
   11.5328   44.5780    3.8663 C   0  0  0  0  0  0  0  0  0  0  0  0
   15.1280   43.4444    7.5022 C   0  0  0  0  0  0  0  0  0  0  0  0
   15.5036   44.7808    7.5969 C   0  0  0  0  0  0  0  0  0  0  0  0
   16.3636   45.1471    8.6466 C   0  0  0  0  0  0  0  0  0  0  0  0
   17.7373   47.0862    9.7041 C   0  0  1  0  0  0  0  0  0  0  0  0
   17.4361   46.7034   11.1486 C   0  0  0  0  0  0  0  0  0  0  0  0
   19.2039   46.8701    9.2864 C   0  0  0  0  0  0  0  0  0  0  0  0
   19.4168   47.3746    7.8708 C   0  0  0  0  0  0  0  0  0  0  0  0
   19.6083   45.4077    9.3466 C   0  0  0  0  0  0  0  0  0  0  0  0
   16.7827   44.1619    9.5740 C   0  0  0  0  0  0  0  0  0  0  0  0
   15.5524   42.5278    8.4245 C   0  0  0  0  0  0  0  0  0  0  0  0
   15.1918   40.1331    9.0389 C   0  0  0  0  0  0  0  0  0  0  0  0
   14.3383   40.2287   10.2939 C   0  0  2  0  0  0  0  0  0  0  0  0
   14.6443   39.0661   11.2069 C   0  0  0  0  0  0  0  0  0  0  0  0
   13.3036   38.6696   11.7465 C   0  0  0  0  0  0  0  0  0  0  0  0
   12.3455   39.6340   11.0879 C   0  0  0  0  0  0  0  0  0  0  0  0
   12.5729   40.6547    5.4181 O   0  0  0  0  0  0  0  0  0  0  0  0
   13.4013   39.2200    7.0172 O   0  0  0  0  0  0  0  0  0  0  0  0
   15.0379   44.8857    4.7709 O   0  0  0  0  0  0  0  0  0  0  0  0
   20.0350   47.5977   10.1389 O   0  0  0  0  0  0  0  0  0  0  0  0
   12.9756   40.1852    9.9635 O   0  0  0  0  0  0  0  0  0  0  0  0
   13.5019   43.3134    5.5675 N   0  0  0  0  0  0  0  0  0  0  0  0
   16.7668   46.5189    8.7620 N   0  0  0  0  0  0  0  0  0  0  0  0
   16.3677   42.8661    9.4551 N   0  0  0  0  0  0  0  0  0  0  0  0
   15.0083   41.3165    8.2055 N   0  0  0  0  0  0  0  0  0  0  0  0
  1 27  1  0
  2 27  1  0
  2  3  1  0
  4 32  1  0
  4 12  1  0
  5  6  1  0
  7  8  2  0
  9 10  2  0
 11  6  2  0
 13 14  2  0
 14 33  1  0
 15 33  1  0
 15 16  1  1
 15 17  1  0
 17 18  1  0
 17 19  1  0
 17 30  1  0
 20 34  2  0
 21 35  1  0
 21 12  2  0
 22 35  1  0
 23 22  1  6
 23 24  1  0
 23 31  1  0
 24 25  1  0
 25 26  1  0
 26 31  1  0
 32  5  1  0
 35  3  1  0
  2 28  2  0
  3  4  2  0
  5 29  2  0
  6  7  1  0
  8  9  1  0
 10 11  1  0
 12 13  1  0
 14 20  1  0
 21 34  1  0
M  END
>  <rmsd>  (824) 
0.170577064

$$$$
Molport-047-886-515
     RDKit          3D

 19 19  0  0  0  0  0  0  0  0999 V2000
   13.2974   39.5718   11.9446 C   0  0  0  0  0  0  0  0  0  0  0  0
   13.5909   38.8728   10.6223 C   0  0  0  0  0  0  0  0  0  0  0  0
   14.8701   40.6210    9.3967 C   0  0  0  0  0  0  0  0  0  0  0  0
   14.8939   41.6137    8.3100 C   0  0  0  0  0  0  0  0  0  0  0  0
   15.9148   42.4873    7.9764 C   0  0  0  0  0  0  0  0  0  0  0  0
   14.2948   42.7919    6.6342 C   0  0  0  0  0  0  0  0  0  0  0  0
   13.9035   44.3462    4.6715 C   0  0  0  0  0  0  0  0  0  0  0  0
   13.2655   45.7837    2.6853 C   0  0  0  0  0  0  0  0  0  0  0  0
   12.0112   45.8782    1.8031 C   0  0  0  0  0  0  0  0  0  0  0  0
   14.4692   45.4093    1.7992 C   0  0  0  0  0  0  0  0  0  0  0  0
   13.4966   47.1454    3.3682 C   0  0  0  0  0  0  0  0  0  0  0  0
   13.7318   39.8251    9.5699 O   0  0  0  0  0  0  0  0  0  0  0  0
   15.8661   40.4856   10.1579 O   0  0  0  0  0  0  0  0  0  0  0  0
   15.0417   44.8746    4.7924 O   0  0  0  0  0  0  0  0  0  0  0  0
   13.0202   44.7620    3.6637 O   0  0  0  0  0  0  0  0  0  0  0  0
   17.6159   42.6733    8.8282 Br  0  0  0  0  0  0  0  0  0  0  0  0
   15.5398   43.2329    6.9182 N   0  0  0  0  0  0  0  0  0  0  0  0
   13.4876   43.3055    5.5652 N   0  0  0  0  0  0  0  0  0  0  0  0
   13.8750   41.8129    7.4578 N   0  0  0  0  0  0  0  0  0  0  0  0
  1  2  1  0
  2 12  1  0
  3 12  1  0
  3  4  1  0
  5 16  1  0
  5 17  1  0
  6 18  1  0
  6 19  1  0
  7 15  1  0
  8 15  1  0
  8  9  1  0
  8 10  1  0
  8 11  1  0
 18  7  1  0
 19  4  1  0
  3 13  2  0
  4  5  2  0
  6 17  2  0
  7 14  2  0
M  END
>  <rmsd>  (825) 
0.169447333

$$$$
Molport-047-872-220
     RDKit          3D

 19 19  0  0  0  0  0  0  0  0999 V2000
   13.3009   39.5712   11.9471 C   0  0  0  0  0  0  0  0  0  0  0  0
   13.5942   38.8717   10.6250 C   0  0  0  0  0  0  0  0  0  0  0  0
   14.8692   40.6210    9.3968 C   0  0  0  0  0  0  0  0  0  0  0  0
   14.8909   41.6129    8.3097 C   0  0  0  0  0  0  0  0  0  0  0  0
   15.9108   42.4858    7.9759 C   0  0  0  0  0  0  0  0  0  0  0  0
   14.2937   42.7923    6.6336 C   0  0  0  0  0  0  0  0  0  0  0  0
   13.9038   44.3472    4.6711 C   0  0  0  0  0  0  0  0  0  0  0  0
   13.2669   45.7854    2.6849 C   0  0  0  0  0  0  0  0  0  0  0  0
   12.0129   45.8806    1.8025 C   0  0  0  0  0  0  0  0  0  0  0  0
   14.4707   45.4105    1.7991 C   0  0  0  0  0  0  0  0  0  0  0  0
   13.4984   47.1468    3.3681 C   0  0  0  0  0  0  0  0  0  0  0  0
   13.7324   39.8234    9.5718 O   0  0  0  0  0  0  0  0  0  0  0  0
   15.8666   40.4883   10.1568 O   0  0  0  0  0  0  0  0  0  0  0  0
   15.0422   44.8750    4.7922 O   0  0  0  0  0  0  0  0  0  0  0  0
   13.0209   44.7636    3.6631 O   0  0  0  0  0  0  0  0  0  0  0  0
   17.4698   42.6479    8.7650 Cl  0  0  0  0  0  0  0  0  0  0  0  0
   15.5391   43.2331    6.9180 N   0  0  0  0  0  0  0  0  0  0  0  0
   13.4871   43.3067    5.5645 N   0  0  0  0  0  0  0  0  0  0  0  0
   13.8726   41.8129    7.4569 N   0  0  0  0  0  0  0  0  0  0  0  0
  1  2  1  0
  2 12  1  0
  3 12  1  0
  3  4  1  0
  5 16  1  0
  5 17  1  0
  6 18  1  0
  6 19  1  0
  7 15  1  0
  8 15  1  0
  8  9  1  0
  8 10  1  0
  8 11  1  0
 18  7  1  0
 19  4  1  0
  3 13  2  0
  4  5  2  0
  6 17  2  0
  7 14  2  0
M  END
>  <rmsd>  (826) 
0.169267729

$$$$
MolPort-002-604-707 16974898 CSSS00160675836 MCULE-5119078341 PubChem-1989596 ZINC000016974898 ZINC16974898
     RDKit          3D

 28 31  0  0  0  0  0  0  0  0999 V2000
   12.8076   39.7085   11.7522 C   0  0  0  0  0  0  0  0  0  0  0  0
   13.7823   38.9718   10.8528 C   0  0  0  0  0  0  0  0  0  0  0  0
   13.9139   39.6835    9.5185 C   0  0  0  0  0  0  0  0  0  0  0  0
   14.7651   40.9338    9.6661 C   0  0  0  0  0  0  0  0  0  0  0  0
   14.3522   42.6977    6.5831 C   0  0  0  0  0  0  0  0  0  0  0  0
   13.9354   44.2710    4.6158 C   0  0  0  0  0  0  0  0  0  0  0  0
   13.0599   44.5675    3.4567 C   0  0  0  0  0  0  0  0  0  0  0  0
   13.4145   45.5022    2.4535 C   0  0  0  0  0  0  0  0  0  0  0  0
   15.0444   47.1385    1.5507 C   0  0  0  0  0  0  0  0  0  0  0  0
   12.5333   45.7309    1.3822 C   0  0  0  0  0  0  0  0  0  0  0  0
   11.3198   45.0479    1.2978 C   0  0  0  0  0  0  0  0  0  0  0  0
   10.9708   44.1262    2.2833 C   0  0  0  0  0  0  0  0  0  0  0  0
   11.8352   43.8890    3.3529 C   0  0  0  0  0  0  0  0  0  0  0  0
   15.7190   42.4741    6.5230 C   0  0  0  0  0  0  0  0  0  0  0  0
   16.7021   42.7250    5.5710 C   0  0  0  0  0  0  0  0  0  0  0  0
   18.0037   42.2855    5.8684 C   0  0  0  0  0  0  0  0  0  0  0  0
   19.0472   42.5135    4.9688 C   0  0  0  0  0  0  0  0  0  0  0  0
   20.3388   42.0708    5.2708 C   0  0  0  0  0  0  0  0  0  0  0  0
   20.5925   41.3979    6.4711 C   0  0  0  0  0  0  0  0  0  0  0  0
   19.5572   41.1608    7.3808 C   0  0  0  0  0  0  0  0  0  0  0  0
   18.2615   41.5978    7.0949 C   0  0  0  0  0  0  0  0  0  0  0  0
   16.0025   41.8024    7.6762 C   0  0  0  0  0  0  0  0  0  0  0  0
   14.8793   41.6135    8.3854 N   0  0  0  0  0  0  0  0  0  0  0  0
   13.8602   42.1509    7.7224 N   0  0  0  0  0  0  0  0  0  0  0  0
   13.5184   43.3027    5.5874 N   0  0  0  0  0  0  0  0  0  0  0  0
   17.2479   41.3583    7.9802 N   0  0  0  0  0  0  0  0  0  0  0  0
   15.0166   44.8977    4.7780 O   0  0  0  0  0  0  0  0  0  0  0  0
   14.6319   46.1906    2.5264 O   0  0  0  0  0  0  0  0  0  0  0  0
  1  2  1  0
  2  3  1  0
  3  4  1  0
  4 23  1  0
  5 25  1  0
  5 14  1  0
  6  7  1  0
  8 28  1  0
  8 10  2  0
  9 28  1  0
 11 12  2  0
 13  7  2  0
 15 16  2  0
 17 18  2  0
 19 20  2  0
 21 26  2  0
 21 16  1  0
 22 23  1  0
 22 14  2  0
 23 24  1  0
 25  6  1  0
  5 24  2  0
  6 27  2  0
  7  8  1  0
 10 11  1  0
 12 13  1  0
 14 15  1  0
 16 17  1  0
 18 19  1  0
 20 21  1  0
 22 26  1  0
M  END
>  <rmsd>  (827) 
0.168105796

$$$$
Molport-047-878-745
     RDKit          3D

 22 23  0  0  0  0  0  0  0  0999 V2000
   13.3048   39.5800   11.9506 C   0  0  0  0  0  0  0  0  0  0  0  0
   13.5846   38.8775   10.6271 C   0  0  0  0  0  0  0  0  0  0  0  0
   14.8704   40.6141    9.3920 C   0  0  0  0  0  0  0  0  0  0  0  0
   14.8956   41.6056    8.3043 C   0  0  0  0  0  0  0  0  0  0  0  0
   15.9215   42.4704    7.9633 C   0  0  0  0  0  0  0  0  0  0  0  0
   14.2960   42.7867    6.6307 C   0  0  0  0  0  0  0  0  0  0  0  0
   13.9078   44.3407    4.6681 C   0  0  0  0  0  0  0  0  0  0  0  0
   13.3773   45.7447    2.6847 C   0  0  0  0  0  0  0  0  0  0  0  0
   14.3846   45.2018    1.7079 C   0  0  0  0  0  0  0  0  0  0  0  0
   14.0160   44.1828    0.8147 C   0  0  0  0  0  0  0  0  0  0  0  0
   14.9523   43.6603   -0.0830 C   0  0  0  0  0  0  0  0  0  0  0  0
   16.2618   44.1485   -0.0924 C   0  0  0  0  0  0  0  0  0  0  0  0
   16.6375   45.1592    0.7969 C   0  0  0  0  0  0  0  0  0  0  0  0
   15.7041   45.6846    1.6961 C   0  0  0  0  0  0  0  0  0  0  0  0
   13.7268   39.8276    9.5729 O   0  0  0  0  0  0  0  0  0  0  0  0
   15.8698   40.4715   10.1474 O   0  0  0  0  0  0  0  0  0  0  0  0
   15.0430   44.8771    4.7919 O   0  0  0  0  0  0  0  0  0  0  0  0
   13.0381   44.7538    3.6528 O   0  0  0  0  0  0  0  0  0  0  0  0
   17.6295   42.6430    8.8042 Br  0  0  0  0  0  0  0  0  0  0  0  0
   15.5463   43.2178    6.9064 N   0  0  0  0  0  0  0  0  0  0  0  0
   13.4874   43.3044    5.5647 N   0  0  0  0  0  0  0  0  0  0  0  0
   13.8731   41.8121    7.4579 N   0  0  0  0  0  0  0  0  0  0  0  0
  1  2  1  0
  2 15  1  0
  3 15  1  0
  3  4  1  0
  5 19  1  0
  5 20  1  0
  6 21  1  0
  6 22  1  0
  7 18  1  0
  8 18  1  0
  8  9  1  0
 10 11  2  0
 12 13  2  0
 14  9  2  0
 21  7  1  0
 22  4  1  0
  3 16  2  0
  4  5  2  0
  6 20  2  0
  7 17  2  0
  9 10  1  0
 11 12  1  0
 13 14  1  0
M  END
>  <rmsd>  (828) 
0.167667404

$$$$
MolPort-005-127-121 14980547 CHEMBL1502375 CSSS00159539851 PubChem-24817414 ZINC000014980547
     RDKit          3D

 27 29  0  0  0  0  0  0  0  0999 V2000
    8.8823   45.7111    0.6324 C   0  0  0  0  0  0  0  0  0  0  0  0
   11.0820   45.7613    1.7623 C   0  0  0  0  0  0  0  0  0  0  0  0
   10.7312   44.7223    2.6389 C   0  0  0  0  0  0  0  0  0  0  0  0
   11.6442   44.2684    3.5945 C   0  0  0  0  0  0  0  0  0  0  0  0
   12.9184   44.8451    3.6876 C   0  0  0  0  0  0  0  0  0  0  0  0
   13.2659   45.8828    2.8108 C   0  0  0  0  0  0  0  0  0  0  0  0
   12.3529   46.3370    1.8549 C   0  0  0  0  0  0  0  0  0  0  0  0
   13.8804   44.3657    4.6956 C   0  0  0  0  0  0  0  0  0  0  0  0
   14.3412   42.7413    6.6080 C   0  0  0  0  0  0  0  0  0  0  0  0
   15.6349   43.1168    6.9182 C   0  0  0  0  0  0  0  0  0  0  0  0
   15.9727   42.2692    7.9684 C   0  0  0  0  0  0  0  0  0  0  0  0
   12.6528   41.0846    7.3997 C   0  0  0  0  0  0  0  0  0  0  0  0
   11.9556   41.2638    8.7388 C   0  0  0  0  0  0  0  0  0  0  0  0
   10.5973   40.5647    8.7219 C   0  0  0  0  0  0  0  0  0  0  0  0
   10.9933   38.2355    9.4339 C   0  0  0  0  0  0  0  0  0  0  0  0
   12.3930   38.3461    9.9694 C   0  0  0  0  0  0  0  0  0  0  0  0
   13.4525   37.4428    9.4196 C   0  0  0  0  0  0  0  0  0  0  0  0
   12.6293   39.1435   11.0182 C   0  0  0  0  0  0  0  0  0  0  0  0
   13.9731   39.2672   11.6621 C   0  0  0  0  0  0  0  0  0  0  0  0
   11.4661   38.9044    7.1002 C   0  0  0  0  0  0  0  0  0  0  0  0
   12.8260   39.6018    7.1111 C   0  0  0  0  0  0  0  0  0  0  0  0
   10.1920   46.2378    0.7960 O   0  0  0  0  0  0  0  0  0  0  0  0
   15.0243   44.8918    4.7708 O   0  0  0  0  0  0  0  0  0  0  0  0
   13.5093   43.3036    5.5850 N   0  0  0  0  0  0  0  0  0  0  0  0
   14.9345   41.4526    8.2478 N   0  0  0  0  0  0  0  0  0  0  0  0
   13.9507   41.7476    7.4170 N   0  0  0  0  0  0  0  0  0  0  0  0
   10.6870   39.1512    8.3240 N   0  0  0  0  0  0  0  0  0  0  0  0
  1 22  1  0
  2 22  1  0
  3  4  2  0
  5  6  2  0
  5  8  1  0
  7  2  2  0
  8 24  1  0
 10 11  1  0
 12 26  1  0
 12 13  1  0
 13 14  1  0
 14 27  1  0
 15 27  1  0
 15 16  1  0
 17 16  1  0
 19 18  1  0
 20 27  1  0
 20 21  1  0
 21 12  1  0
 24  9  1  0
 26 25  1  0
 26  9  1  0
  2  3  1  0
  4  5  1  0
  6  7  1  0
  8 23  2  0
  9 10  2  0
 11 25  2  0
 16 18  2  0
M  END
>  <rmsd>  (829) 
0.167569205

$$$$
Molport-047-891-076
     RDKit          3D

 22 23  0  0  0  0  0  0  0  0999 V2000
   13.3060   39.5783   11.9529 C   0  0  0  0  0  0  0  0  0  0  0  0
   13.5868   38.8755   10.6297 C   0  0  0  0  0  0  0  0  0  0  0  0
   14.8683   40.6140    9.3931 C   0  0  0  0  0  0  0  0  0  0  0  0
   14.8918   41.6047    8.3049 C   0  0  0  0  0  0  0  0  0  0  0  0
   15.9166   42.4693    7.9645 C   0  0  0  0  0  0  0  0  0  0  0  0
   14.2946   42.7869    6.6308 C   0  0  0  0  0  0  0  0  0  0  0  0
   13.9085   44.3412    4.6680 C   0  0  0  0  0  0  0  0  0  0  0  0
   13.3794   45.7460    2.6847 C   0  0  0  0  0  0  0  0  0  0  0  0
   14.3870   45.2030    1.7082 C   0  0  0  0  0  0  0  0  0  0  0  0
   14.0182   44.1844    0.8145 C   0  0  0  0  0  0  0  0  0  0  0  0
   14.9546   43.6618   -0.0831 C   0  0  0  0  0  0  0  0  0  0  0  0
   16.2643   44.1494   -0.0918 C   0  0  0  0  0  0  0  0  0  0  0  0
   16.6402   45.1597    0.7980 C   0  0  0  0  0  0  0  0  0  0  0  0
   15.7067   45.6852    1.6971 C   0  0  0  0  0  0  0  0  0  0  0  0
   13.7265   39.8254    9.5750 O   0  0  0  0  0  0  0  0  0  0  0  0
   15.8688   40.4744   10.1478 O   0  0  0  0  0  0  0  0  0  0  0  0
   15.0438   44.8772    4.7926 O   0  0  0  0  0  0  0  0  0  0  0  0
   13.0393   44.7550    3.6524 O   0  0  0  0  0  0  0  0  0  0  0  0
   17.4811   42.6199    8.7448 Cl  0  0  0  0  0  0  0  0  0  0  0  0
   15.5450   43.2182    6.9077 N   0  0  0  0  0  0  0  0  0  0  0  0
   13.4871   43.3050    5.5641 N   0  0  0  0  0  0  0  0  0  0  0  0
   13.8704   41.8116    7.4574 N   0  0  0  0  0  0  0  0  0  0  0  0
  1  2  1  0
  2 15  1  0
  3 15  1  0
  3  4  1  0
  5 19  1  0
  5 20  1  0
  6 21  1  0
  6 22  1  0
  7 18  1  0
  8 18  1  0
  8  9  1  0
 10 11  2  0
 12 13  2  0
 14  9  2  0
 21  7  1  0
 22  4  1  0
  3 16  2  0
  4  5  2  0
  6 20  2  0
  7 17  2  0
  9 10  1  0
 11 12  1  0
 13 14  1  0
M  END
>  <rmsd>  (830) 
0.167234555

$$$$
MolPort-004-981-861 CSSS09880942642 MCULE-9477330349 PubChem-45160585
     RDKit          3D

 32 35  0  0  0  0  0  0  0  0999 V2000
   19.2401   48.4596    7.6004 C   0  0  0  0  0  0  0  0  0  0  0  0
   19.8777   47.2968    8.2827 C   0  0  0  0  0  0  0  0  0  0  0  0
   21.1711   46.9228    7.9036 C   0  0  0  0  0  0  0  0  0  0  0  0
   21.8022   45.8405    8.5223 C   0  0  0  0  0  0  0  0  0  0  0  0
   21.1417   45.1267    9.5248 C   0  0  0  0  0  0  0  0  0  0  0  0
   19.8496   45.4945    9.9086 C   0  0  0  0  0  0  0  0  0  0  0  0
   19.2100   46.5775    9.2943 C   0  0  0  0  0  0  0  0  0  0  0  0
   17.8205   46.9311    9.7240 C   0  0  0  0  0  0  0  0  0  0  0  0
   16.4162   45.1129    8.6234 C   0  0  0  0  0  0  0  0  0  0  0  0
   16.8354   44.1252    9.5477 C   0  0  0  0  0  0  0  0  0  0  0  0
   15.5709   42.5059    8.4134 C   0  0  0  0  0  0  0  0  0  0  0  0
   15.1478   43.4268    7.4939 C   0  0  0  0  0  0  0  0  0  0  0  0
   15.5417   44.7586    7.5821 C   0  0  0  0  0  0  0  0  0  0  0  0
   14.2798   42.7610    6.6458 C   0  0  0  0  0  0  0  0  0  0  0  0
   14.1978   41.4487    7.1196 C   0  0  0  0  0  0  0  0  0  0  0  0
   15.1861   40.1175    9.0361 C   0  0  0  0  0  0  0  0  0  0  0  0
   14.3343   40.2224   10.2916 C   0  0  2  0  0  0  0  0  0  0  0  0
   14.6246   39.0539   11.2021 C   0  0  0  0  0  0  0  0  0  0  0  0
   13.2792   38.6761   11.7433 C   0  0  0  0  0  0  0  0  0  0  0  0
   12.3333   39.6523   11.0842 C   0  0  0  0  0  0  0  0  0  0  0  0
   13.3551   40.3809    6.5383 C   0  0  0  0  0  0  0  0  0  0  0  0
   11.6987   39.6772    4.8577 C   0  0  0  0  0  0  0  0  0  0  0  0
   13.8588   44.4441    4.7755 C   0  0  0  0  0  0  0  0  0  0  0  0
   12.8370   45.0643    3.8930 C   0  0  0  0  0  0  0  0  0  0  0  0
   16.8504   46.4711    8.7379 N   0  0  0  0  0  0  0  0  0  0  0  0
   16.4023   42.8347    9.4347 N   0  0  0  0  0  0  0  0  0  0  0  0
   15.0115   41.3006    8.2005 N   0  0  0  0  0  0  0  0  0  0  0  0
   13.5036   43.3107    5.5721 N   0  0  0  0  0  0  0  0  0  0  0  0
   12.9711   40.1977    9.9612 O   0  0  0  0  0  0  0  0  0  0  0  0
   13.3886   39.2146    7.0171 O   0  0  0  0  0  0  0  0  0  0  0  0
   12.5254   40.6663    5.4522 O   0  0  0  0  0  0  0  0  0  0  0  0
   15.0362   44.8893    4.7672 O   0  0  0  0  0  0  0  0  0  0  0  0
  1  2  1  0
  3  4  2  0
  5  6  2  0
  7  2  2  0
  8  7  1  0
  8 25  1  0
 10 26  2  0
 11 12  2  0
 12 14  1  0
 13  9  2  0
 14 28  1  0
 15 27  1  0
 15 21  1  0
 16 27  1  0
 17 16  1  6
 17 18  1  0
 17 29  1  0
 18 19  1  0
 19 20  1  0
 20 29  1  0
 21 31  1  0
 22 31  1  0
 24 23  1  0
 25  9  1  0
 27 11  1  0
 28 23  1  0
  2  3  1  0
  4  5  1  0
  6  7  1  0
  9 10  1  0
 11 26  1  0
 12 13  1  0
 14 15  2  0
 21 30  2  0
 23 32  2  0
M  END
>  <rmsd>  (831) 
0.166214243

$$$$
MolPort-004-986-189 CSSS00159779203 MCULE-3938171623 PubChem-45162554
     RDKit          3D

 34 37  0  0  0  0  0  0  0  0999 V2000
   11.7115   39.6768    4.8529 C   0  0  0  0  0  0  0  0  0  0  0  0
   13.3663   40.3830    6.5343 C   0  0  0  0  0  0  0  0  0  0  0  0
   14.2054   41.4527    7.1169 C   0  0  0  0  0  0  0  0  0  0  0  0
   14.2833   42.7652    6.6435 C   0  0  0  0  0  0  0  0  0  0  0  0
   13.8519   44.4497    4.7727 C   0  0  0  0  0  0  0  0  0  0  0  0
   12.8359   45.0760    3.9092 C   0  0  0  0  0  0  0  0  0  0  0  0
   11.5247   44.5784    3.8830 C   0  0  0  0  0  0  0  0  0  0  0  0
   10.5592   45.1725    3.0649 C   0  0  0  0  0  0  0  0  0  0  0  0
   10.8979   46.2688    2.2672 C   0  0  0  0  0  0  0  0  0  0  0  0
   12.2017   46.7712    2.2874 C   0  0  0  0  0  0  0  0  0  0  0  0
   13.1673   46.1773    3.1056 C   0  0  0  0  0  0  0  0  0  0  0  0
   15.1454   43.4349    7.4942 C   0  0  0  0  0  0  0  0  0  0  0  0
   15.5311   44.7691    7.5845 C   0  0  0  0  0  0  0  0  0  0  0  0
   16.3959   45.1283    8.6322 C   0  0  0  0  0  0  0  0  0  0  0  0
   17.6559   46.9757    9.8445 C   0  0  0  0  0  0  0  0  0  0  0  0
   16.8163   47.6325   10.9399 C   0  0  0  0  0  0  0  0  0  0  0  0
   16.0361   48.8070   10.3786 C   0  0  0  0  0  0  0  0  0  0  0  0
   15.8541   46.6366   11.5606 C   0  0  0  0  0  0  0  0  0  0  0  0
   17.7466   48.1417   12.0200 C   0  0  0  0  0  0  0  0  0  0  0  0
   16.8233   44.1408    9.5533 C   0  0  0  0  0  0  0  0  0  0  0  0
   15.5703   42.5157    8.4145 C   0  0  0  0  0  0  0  0  0  0  0  0
   15.1931   40.1256    9.0364 C   0  0  0  0  0  0  0  0  0  0  0  0
   14.3368   40.2283   10.2891 C   0  0  2  0  0  0  0  0  0  0  0  0
   14.6276   39.0609   11.2007 C   0  0  0  0  0  0  0  0  0  0  0  0
   13.2814   38.6793   11.7375 C   0  0  0  0  0  0  0  0  0  0  0  0
   12.3349   39.6528   11.0753 C   0  0  0  0  0  0  0  0  0  0  0  0
   12.5357   40.6673    5.4485 O   0  0  0  0  0  0  0  0  0  0  0  0
   13.4036   39.2162    7.0115 O   0  0  0  0  0  0  0  0  0  0  0  0
   15.0347   44.8863    4.7683 O   0  0  0  0  0  0  0  0  0  0  0  0
   12.9748   40.1998    9.9542 O   0  0  0  0  0  0  0  0  0  0  0  0
   13.5038   43.3122    5.5713 N   0  0  0  0  0  0  0  0  0  0  0  0
   16.8288   46.4864    8.7455 N   0  0  0  0  0  0  0  0  0  0  0  0
   16.3982   42.8478    9.4375 N   0  0  0  0  0  0  0  0  0  0  0  0
   15.0172   41.3078    8.1996 N   0  0  0  0  0  0  0  0  0  0  0  0
  1 27  1  0
  2 27  1  0
  2  3  1  0
  4 31  1  0
  4 12  1  0
  5  6  1  0
  7  8  2  0
  9 10  2  0
 11  6  2  0
 13 14  2  0
 14 32  1  0
 15 32  1  0
 15 16  1  0
 16 17  1  0
 16 18  1  0
 16 19  1  0
 20 33  2  0
 21 34  1  0
 21 12  2  0
 22 34  1  0
 23 22  1  6
 23 24  1  0
 23 30  1  0
 24 25  1  0
 25 26  1  0
 26 30  1  0
 31  5  1  0
 34  3  1  0
  2 28  2  0
  3  4  2  0
  5 29  2  0
  6  7  1  0
  8  9  1  0
 10 11  1  0
 12 13  1  0
 14 20  1  0
 21 33  1  0
M  END
>  <rmsd>  (832) 
0.16585733

$$$$
MolPort-008-345-345 6204350 CSSS00121599792 MCULE-8793457033 PubChem-4221437 ZINC000006204350 ZINC06204350
     RDKit          3D

 22 23  0  0  0  0  0  0  0  0999 V2000
   13.1875   38.6451   11.0280 C   0  0  0  0  0  0  0  0  0  0  0  0
   13.8339   39.9369   11.4919 C   0  0  0  0  0  0  0  0  0  0  0  0
   13.8215   40.9663   10.3763 C   0  0  0  0  0  0  0  0  0  0  0  0
   14.8812   40.6366    9.3382 C   0  0  0  0  0  0  0  0  0  0  0  0
   14.2679   42.7754    6.6273 C   0  0  0  0  0  0  0  0  0  0  0  0
   13.9040   44.3498    4.6639 C   0  0  0  0  0  0  0  0  0  0  0  0
   13.0125   44.8328    3.5769 C   0  0  0  0  0  0  0  0  0  0  0  0
   11.7335   44.2727    3.3179 C   0  0  0  0  0  0  0  0  0  0  0  0
   10.4683   42.1464    3.6414 C   0  0  0  0  0  0  0  0  0  0  0  0
   10.9404   44.8198    2.2745 C   0  0  0  0  0  0  0  0  0  0  0  0
   11.4352   45.8658    1.4942 C   0  0  0  0  0  0  0  0  0  0  0  0
   12.7026   46.3866    1.7299 C   0  0  0  0  0  0  0  0  0  0  0  0
   13.4786   45.8796    2.7676 C   0  0  0  0  0  0  0  0  0  0  0  0
   14.8523   41.6183    8.2676 N   0  0  0  0  0  0  0  0  0  0  0  0
   15.8543   42.4314    7.9812 N   0  0  0  0  0  0  0  0  0  0  0  0
   15.5143   43.1815    6.9452 N   0  0  0  0  0  0  0  0  0  0  0  0
   13.4848   43.3079    5.5548 N   0  0  0  0  0  0  0  0  0  0  0  0
   13.8358   41.7954    7.4409 N   0  0  0  0  0  0  0  0  0  0  0  0
   15.0449   44.8705    4.8040 O   0  0  0  0  0  0  0  0  0  0  0  0
   11.2850   43.2077    4.1138 O   0  0  0  0  0  0  0  0  0  0  0  0
    9.2871   44.3168    1.9523 Cl  0  0  0  0  0  0  0  0  0  0  0  0
   13.3112   47.6942    0.7390 Cl  0  0  0  0  0  0  0  0  0  0  0  0
  1  2  1  0
  2  3  1  0
  3  4  1  0
  4 14  1  0
  5 16  1  0
  5 17  1  0
  6  7  1  0
  8 20  1  0
  8 10  2  0
  9 20  1  0
 10 21  1  0
 11 12  2  0
 12 22  1  0
 13  7  2  0
 14 15  1  0
 14 18  1  0
 17  6  1  0
  5 18  2  0
  6 19  2  0
  7  8  1  0
 10 11  1  0
 12 13  1  0
 15 16  2  0
M  END
>  <rmsd>  (833) 
0.165357932

$$$$
MolPort-002-994-723 13942052 CSSS00121599790 MCULE-3848106283 PubChem-3502326 ZINC000013942052 ZINC13942052
     RDKit          3D

 22 23  0  0  0  0  0  0  0  0999 V2000
   13.4319   39.6183   11.9567 C   0  0  0  0  0  0  0  0  0  0  0  0
   13.6135   38.8894   10.6386 C   0  0  0  0  0  0  0  0  0  0  0  0
   13.5535   39.8677    9.4794 C   0  0  0  0  0  0  0  0  0  0  0  0
   14.8486   40.6647    9.3884 C   0  0  0  0  0  0  0  0  0  0  0  0
   14.2533   42.7752    6.6346 C   0  0  0  0  0  0  0  0  0  0  0  0
   13.9195   44.3392    4.6657 C   0  0  0  0  0  0  0  0  0  0  0  0
   13.0090   44.8127    3.5907 C   0  0  0  0  0  0  0  0  0  0  0  0
   11.1544   46.4928    3.3773 C   0  0  0  0  0  0  0  0  0  0  0  0
   10.8557   46.2576    2.0075 C   0  0  0  0  0  0  0  0  0  0  0  0
   11.5727   45.2549    1.1706 C   0  0  0  0  0  0  0  0  0  0  0  0
    9.8394   46.9907    1.3853 C   0  0  0  0  0  0  0  0  0  0  0  0
    9.1164   47.9496    2.0954 C   0  0  0  0  0  0  0  0  0  0  0  0
    9.4048   48.1844    3.4388 C   0  0  0  0  0  0  0  0  0  0  0  0
   10.4163   47.4598    4.0713 C   0  0  0  0  0  0  0  0  0  0  0  0
   14.8201   41.6229    8.2885 N   0  0  0  0  0  0  0  0  0  0  0  0
   15.8262   42.4319    8.0033 N   0  0  0  0  0  0  0  0  0  0  0  0
   15.4990   43.1763    6.9591 N   0  0  0  0  0  0  0  0  0  0  0  0
   13.4811   43.3060    5.5534 N   0  0  0  0  0  0  0  0  0  0  0  0
   13.8097   41.8048    7.4529 N   0  0  0  0  0  0  0  0  0  0  0  0
   15.0506   44.8766    4.8012 O   0  0  0  0  0  0  0  0  0  0  0  0
   12.1495   45.8200    4.1048 O   0  0  0  0  0  0  0  0  0  0  0  0
    7.8487   48.8567    1.3001 Cl  0  0  0  0  0  0  0  0  0  0  0  0
  1  2  1  0
  2  3  1  0
  3  4  1  0
  4 15  1  0
  5 17  1  0
  5 18  1  0
  7  6  1  0
  7 21  1  0
  8 21  1  0
  9 11  2  0
 10  9  1  0
 12 22  1  0
 12 13  2  0
 14  8  2  0
 15 16  1  0
 15 19  1  0
 18  6  1  0
  5 19  2  0
  6 20  2  0
  8  9  1  0
 11 12  1  0
 13 14  1  0
 16 17  2  0
M  END
>  <rmsd>  (834) 
0.165149659

$$$$
MolPort-002-981-682 9226409 CSSS00132429909 MCULE-9893142674 PubChem-3961480 ZINC000009226409 ZINC09226409
     RDKit          3D

 20 21  0  0  0  0  0  0  0  0999 V2000
   13.1881   38.6408   11.0269 C   0  0  0  0  0  0  0  0  0  0  0  0
   13.8304   39.9342   11.4921 C   0  0  0  0  0  0  0  0  0  0  0  0
   13.8171   40.9638   10.3766 C   0  0  0  0  0  0  0  0  0  0  0  0
   14.8795   40.6370    9.3401 C   0  0  0  0  0  0  0  0  0  0  0  0
   14.2668   42.7759    6.6292 C   0  0  0  0  0  0  0  0  0  0  0  0
   13.9063   44.3519    4.6671 C   0  0  0  0  0  0  0  0  0  0  0  0
   12.9930   44.8102    3.5925 C   0  0  0  0  0  0  0  0  0  0  0  0
   13.3430   45.8355    2.6802 C   0  0  0  0  0  0  0  0  0  0  0  0
   15.0007   47.4976    1.8809 C   0  0  0  0  0  0  0  0  0  0  0  0
   12.4245   46.2171    1.6868 C   0  0  0  0  0  0  0  0  0  0  0  0
   11.1777   45.5986    1.5916 C   0  0  0  0  0  0  0  0  0  0  0  0
   10.8322   44.5896    2.4887 C   0  0  0  0  0  0  0  0  0  0  0  0
   11.7336   44.2000    3.4802 C   0  0  0  0  0  0  0  0  0  0  0  0
   14.8504   41.6193    8.2702 N   0  0  0  0  0  0  0  0  0  0  0  0
   15.8512   42.4349    7.9863 N   0  0  0  0  0  0  0  0  0  0  0  0
   15.5116   43.1847    6.9501 N   0  0  0  0  0  0  0  0  0  0  0  0
   13.4846   43.3077    5.5556 N   0  0  0  0  0  0  0  0  0  0  0  0
   13.8352   41.7945    7.4416 N   0  0  0  0  0  0  0  0  0  0  0  0
   15.0464   44.8726    4.8041 O   0  0  0  0  0  0  0  0  0  0  0  0
   14.5919   46.4635    2.7663 O   0  0  0  0  0  0  0  0  0  0  0  0
  1  2  1  0
  2  3  1  0
  3  4  1  0
  4 14  1  0
  5 16  1  0
  5 17  1  0
  6  7  1  0
  8 20  1  0
  8 10  2  0
  9 20  1  0
 11 12  2  0
 13  7  2  0
 14 15  1  0
 14 18  1  0
 17  6  1  0
  5 18  2  0
  6 19  2  0
  7  8  1  0
 10 11  1  0
 12 13  1  0
 15 16  2  0
M  END
>  <rmsd>  (835) 
0.165042549

$$$$
MolPort-004-984-142 CSSS00159487125 MCULE-1343284236 PubChem-45161558
     RDKit          3D

 34 38  0  0  0  0  0  0  0  0999 V2000
   11.6824   39.6841    4.8663 C   0  0  0  0  0  0  0  0  0  0  0  0
   13.3468   40.3821    6.5415 C   0  0  0  0  0  0  0  0  0  0  0  0
   14.1958   41.4467    7.1193 C   0  0  0  0  0  0  0  0  0  0  0  0
   14.2821   42.7582    6.6440 C   0  0  0  0  0  0  0  0  0  0  0  0
   13.8581   44.4459    4.7778 C   0  0  0  0  0  0  0  0  0  0  0  0
   12.8341   45.0692    3.9002 C   0  0  0  0  0  0  0  0  0  0  0  0
   15.1553   43.4207    7.4892 C   0  0  0  0  0  0  0  0  0  0  0  0
   15.5556   44.7503    7.5750 C   0  0  0  0  0  0  0  0  0  0  0  0
   16.4355   45.1017    8.6188 C   0  0  0  0  0  0  0  0  0  0  0  0
   16.5244   47.5184    7.8691 C   0  0  0  0  0  0  0  0  0  0  0  0
   17.1767   48.7838    8.2976 C   0  0  0  0  0  0  0  0  0  0  0  0
   18.4226   49.2243    7.8541 C   0  0  0  0  0  0  0  0  0  0  0  0
   18.7869   50.4207    8.4775 C   0  0  0  0  0  0  0  0  0  0  0  0
   19.9697   51.1252    8.2517 C   0  0  0  0  0  0  0  0  0  0  0  0
   20.1911   52.3153    8.9647 C   0  0  0  0  0  0  0  0  0  0  0  0
   19.2371   52.7834    9.8887 C   0  0  0  0  0  0  0  0  0  0  0  0
   18.0506   52.0673   10.1107 C   0  0  0  0  0  0  0  0  0  0  0  0
   17.8541   50.8918    9.3906 C   0  0  0  0  0  0  0  0  0  0  0  0
   16.8536   44.1143    9.5376 C   0  0  0  0  0  0  0  0  0  0  0  0
   15.5770   42.4993    8.4084 C   0  0  0  0  0  0  0  0  0  0  0  0
   15.1836   40.1130    9.0344 C   0  0  0  0  0  0  0  0  0  0  0  0
   14.3349   40.2222   10.2916 C   0  0  2  0  0  0  0  0  0  0  0  0
   14.6224   39.0531   11.2022 C   0  0  0  0  0  0  0  0  0  0  0  0
   13.2763   38.6804   11.7456 C   0  0  0  0  0  0  0  0  0  0  0  0
   12.3332   39.6604   11.0885 C   0  0  0  0  0  0  0  0  0  0  0  0
   12.5152   40.6701    5.4575 O   0  0  0  0  0  0  0  0  0  0  0  0
   13.3768   39.2160    7.0210 O   0  0  0  0  0  0  0  0  0  0  0  0
   15.0359   44.8899    4.7666 O   0  0  0  0  0  0  0  0  0  0  0  0
   12.9709   40.2030    9.9640 O   0  0  0  0  0  0  0  0  0  0  0  0
   13.5043   43.3109    5.5728 N   0  0  0  0  0  0  0  0  0  0  0  0
   16.9069   46.4420    8.7701 N   0  0  0  0  0  0  0  0  0  0  0  0
   16.4138   42.8255    9.4262 N   0  0  0  0  0  0  0  0  0  0  0  0
   15.0119   41.2962    8.1981 N   0  0  0  0  0  0  0  0  0  0  0  0
   16.5483   49.8428    9.4569 S   0  0  0  0  0  0  0  0  0  0  0  0
  1 26  1  0
  2 26  1  0
  2  3  1  0
  4 30  1  0
  4  7  1  0
  6  5  1  0
  8  9  2  0
  9 31  1  0
 10 31  1  0
 10 11  1  0
 11 34  1  0
 12 13  1  0
 14 15  2  0
 16 17  2  0
 18 34  1  0
 18 13  2  0
 19 32  2  0
 20 33  1  0
 20  7  2  0
 21 33  1  0
 22 21  1  6
 22 23  1  0
 22 29  1  0
 23 24  1  0
 24 25  1  0
 25 29  1  0
 30  5  1  0
 33  3  1  0
  2 27  2  0
  3  4  2  0
  5 28  2  0
  7  8  1  0
  9 19  1  0
 11 12  2  0
 13 14  1  0
 15 16  1  0
 17 18  1  0
 20 32  1  0
M  END
>  <rmsd>  (836) 
0.164516121

$$$$
MolPort-004-978-380 CSSS00159439457 MCULE-6028275498 PubChem-45159086
     RDKit          3D

 29 31  0  0  0  0  0  0  0  0999 V2000
   11.6823   39.6835    4.8644 C   0  0  0  0  0  0  0  0  0  0  0  0
   13.3459   40.3814    6.5404 C   0  0  0  0  0  0  0  0  0  0  0  0
   14.1946   41.4459    7.1187 C   0  0  0  0  0  0  0  0  0  0  0  0
   14.2811   42.7576    6.6435 C   0  0  0  0  0  0  0  0  0  0  0  0
   13.8580   44.4453    4.7773 C   0  0  0  0  0  0  0  0  0  0  0  0
   12.8345   45.0686    3.8992 C   0  0  0  0  0  0  0  0  0  0  0  0
   15.1538   43.4199    7.4893 C   0  0  0  0  0  0  0  0  0  0  0  0
   15.5542   44.7495    7.5753 C   0  0  0  0  0  0  0  0  0  0  0  0
   16.4336   45.1007    8.6195 C   0  0  0  0  0  0  0  0  0  0  0  0
   16.5213   47.5198    7.8667 C   0  0  0  0  0  0  0  0  0  0  0  0
   17.1740   48.8392    8.2663 C   0  0  0  0  0  0  0  0  0  0  0  0
   16.7357   49.9114    7.2916 C   0  0  0  0  0  0  0  0  0  0  0  0
   18.6863   48.7225    8.2144 C   0  0  0  0  0  0  0  0  0  0  0  0
   16.7427   49.2452    9.6636 C   0  0  0  0  0  0  0  0  0  0  0  0
   16.8512   44.1133    9.5385 C   0  0  0  0  0  0  0  0  0  0  0  0
   15.5751   42.4985    8.4087 C   0  0  0  0  0  0  0  0  0  0  0  0
   15.1814   40.1121    9.0343 C   0  0  0  0  0  0  0  0  0  0  0  0
   14.3318   40.2211   10.2910 C   0  0  2  0  0  0  0  0  0  0  0  0
   14.6189   39.0520   11.2016 C   0  0  0  0  0  0  0  0  0  0  0  0
   13.2726   38.6790   11.7441 C   0  0  0  0  0  0  0  0  0  0  0  0
   12.3296   39.6590   11.0865 C   0  0  0  0  0  0  0  0  0  0  0  0
   12.5148   40.6695    5.4561 O   0  0  0  0  0  0  0  0  0  0  0  0
   13.3757   39.2152    7.0200 O   0  0  0  0  0  0  0  0  0  0  0  0
   15.0358   44.8895    4.7668 O   0  0  0  0  0  0  0  0  0  0  0  0
   12.9680   40.2018    9.9625 O   0  0  0  0  0  0  0  0  0  0  0  0
   13.5039   43.3101    5.5720 N   0  0  0  0  0  0  0  0  0  0  0  0
   16.9050   46.4409    8.7707 N   0  0  0  0  0  0  0  0  0  0  0  0
   16.4114   42.8245    9.4269 N   0  0  0  0  0  0  0  0  0  0  0  0
   15.0100   41.2953    8.1980 N   0  0  0  0  0  0  0  0  0  0  0  0
  1 22  1  0
  2 22  1  0
  2  3  1  0
  4 26  1  0
  4  7  1  0
  6  5  1  0
  8  9  2  0
  9 27  1  0
 10 27  1  0
 10 11  1  0
 11 12  1  0
 11 13  1  0
 11 14  1  0
 15 28  2  0
 16 29  1  0
 16  7  2  0
 17 29  1  0
 18 17  1  6
 18 19  1  0
 18 25  1  0
 19 20  1  0
 20 21  1  0
 21 25  1  0
 26  5  1  0
 29  3  1  0
  2 23  2  0
  3  4  2  0
  5 24  2  0
  7  8  1  0
  9 15  1  0
 16 28  1  0
M  END
>  <rmsd>  (837) 
0.164331779

$$$$
MolPort-003-001-172 6890889 CSSS00121593491 MCULE-1736763965 PubChem-3406918 ZINC000006890889 ZINC06890889
     RDKit          3D

 21 22  0  0  0  0  0  0  0  0999 V2000
   13.1871   38.6374   11.0283 C   0  0  0  0  0  0  0  0  0  0  0  0
   13.8286   39.9311   11.4938 C   0  0  0  0  0  0  0  0  0  0  0  0
   13.8154   40.9607   10.3782 C   0  0  0  0  0  0  0  0  0  0  0  0
   14.8783   40.6343    9.3423 C   0  0  0  0  0  0  0  0  0  0  0  0
   14.2657   42.7731    6.6311 C   0  0  0  0  0  0  0  0  0  0  0  0
   13.9075   44.3488    4.6705 C   0  0  0  0  0  0  0  0  0  0  0  0
   13.0072   44.8106    3.5993 C   0  0  0  0  0  0  0  0  0  0  0  0
   13.4086   45.8304    2.7255 C   0  0  0  0  0  0  0  0  0  0  0  0
   12.5578   46.2718    1.7078 C   0  0  0  0  0  0  0  0  0  0  0  0
   11.2880   45.6949    1.5513 C   0  0  0  0  0  0  0  0  0  0  0  0
    9.1481   45.6108    0.3084 C   0  0  0  0  0  0  0  0  0  0  0  0
   10.8862   44.6733    2.4270 C   0  0  0  0  0  0  0  0  0  0  0  0
   11.7397   44.2355    3.4424 C   0  0  0  0  0  0  0  0  0  0  0  0
   14.8492   41.6166    8.2723 N   0  0  0  0  0  0  0  0  0  0  0  0
   15.8498   42.4325    7.9887 N   0  0  0  0  0  0  0  0  0  0  0  0
   15.5103   43.1823    6.9524 N   0  0  0  0  0  0  0  0  0  0  0  0
   13.4839   43.3048    5.5573 N   0  0  0  0  0  0  0  0  0  0  0  0
   13.8342   41.7915    7.4433 N   0  0  0  0  0  0  0  0  0  0  0  0
   15.0467   44.8741    4.8025 O   0  0  0  0  0  0  0  0  0  0  0  0
   10.4461   46.1458    0.5286 O   0  0  0  0  0  0  0  0  0  0  0  0
   13.1032   47.5509    0.6380 Cl  0  0  0  0  0  0  0  0  0  0  0  0
  1  2  1  0
  2  3  1  0
  3  4  1  0
  4 14  1  0
  5 16  1  0
  5 17  1  0
  6  7  1  0
  8  9  2  0
  9 21  1  0
 10 20  1  0
 10 12  2  0
 11 20  1  0
 13  7  2  0
 14 15  1  0
 14 18  1  0
 17  6  1  0
  5 18  2  0
  6 19  2  0
  7  8  1  0
  9 10  1  0
 12 13  1  0
 15 16  2  0
M  END
>  <rmsd>  (838) 
0.164209768

$$$$
MolPort-002-981-680 6636089 CSSS00121599785 MCULE-5633763296 PubChem-4540015 ZINC000006636089 ZINC06636089
     RDKit          3D

 19 20  0  0  0  0  0  0  0  0999 V2000
   13.1851   38.6381   11.0279 C   0  0  0  0  0  0  0  0  0  0  0  0
   13.8278   39.9313   11.4933 C   0  0  0  0  0  0  0  0  0  0  0  0
   13.8148   40.9610   10.3779 C   0  0  0  0  0  0  0  0  0  0  0  0
   14.8771   40.6340    9.3415 C   0  0  0  0  0  0  0  0  0  0  0  0
   14.2649   42.7732    6.6306 C   0  0  0  0  0  0  0  0  0  0  0  0
   13.9069   44.3491    4.6702 C   0  0  0  0  0  0  0  0  0  0  0  0
   13.0063   44.8116    3.5994 C   0  0  0  0  0  0  0  0  0  0  0  0
   11.7368   44.2359    3.4435 C   0  0  0  0  0  0  0  0  0  0  0  0
   10.8816   44.6738    2.4281 C   0  0  0  0  0  0  0  0  0  0  0  0
    9.5387   44.0576    2.2712 C   0  0  0  0  0  0  0  0  0  0  0  0
   11.2897   45.6907    1.5608 C   0  0  0  0  0  0  0  0  0  0  0  0
   12.5528   46.2700    1.7087 C   0  0  0  0  0  0  0  0  0  0  0  0
   13.4080   45.8321    2.7242 C   0  0  0  0  0  0  0  0  0  0  0  0
   14.8483   41.6163    8.2715 N   0  0  0  0  0  0  0  0  0  0  0  0
   15.8492   42.4316    7.9876 N   0  0  0  0  0  0  0  0  0  0  0  0
   15.5098   43.1816    6.9514 N   0  0  0  0  0  0  0  0  0  0  0  0
   13.4831   43.3054    5.5571 N   0  0  0  0  0  0  0  0  0  0  0  0
   13.8330   41.7918    7.4429 N   0  0  0  0  0  0  0  0  0  0  0  0
   15.0465   44.8738    4.8016 O   0  0  0  0  0  0  0  0  0  0  0  0
  1  2  1  0
  2  3  1  0
  3  4  1  0
  4 14  1  0
  5 16  1  0
  5 17  1  0
  6  7  1  0
  8  9  2  0
 10  9  1  0
 11 12  2  0
 13  7  2  0
 14 15  1  0
 14 18  1  0
 17  6  1  0
  5 18  2  0
  6 19  2  0
  7  8  1  0
  9 11  1  0
 12 13  1  0
 15 16  2  0
M  END
>  <rmsd>  (839) 
0.163747892

$$$$
MolPort-002-989-525 9427031 CSSS00132429902 MCULE-2605706855 PubChem-3636262 ZINC000009427031 ZINC09427031
     RDKit          3D

 22 24  0  0  0  0  0  0  0  0999 V2000
   13.1846   38.6393   11.0258 C   0  0  0  0  0  0  0  0  0  0  0  0
   13.8268   39.9323   11.4924 C   0  0  0  0  0  0  0  0  0  0  0  0
   13.8147   40.9624   10.3773 C   0  0  0  0  0  0  0  0  0  0  0  0
   14.8778   40.6359    9.3417 C   0  0  0  0  0  0  0  0  0  0  0  0
   14.2665   42.7752    6.6308 C   0  0  0  0  0  0  0  0  0  0  0  0
   13.9059   44.3496    4.6702 C   0  0  0  0  0  0  0  0  0  0  0  0
   13.0172   44.8247    3.5931 C   0  0  0  0  0  0  0  0  0  0  0  0
   11.7221   44.3735    3.2851 C   0  0  0  0  0  0  0  0  0  0  0  0
   11.1654   45.0509    2.1912 C   0  0  0  0  0  0  0  0  0  0  0  0
    9.8985   44.8348    1.6414 C   0  0  0  0  0  0  0  0  0  0  0  0
    9.4987   45.6082    0.5393 C   0  0  0  0  0  0  0  0  0  0  0  0
   10.3599   46.5824    0.0004 C   0  0  0  0  0  0  0  0  0  0  0  0
   11.6303   46.7943    0.5571 C   0  0  0  0  0  0  0  0  0  0  0  0
   12.0023   46.0145    1.6489 C   0  0  0  0  0  0  0  0  0  0  0  0
   14.8493   41.6183    8.2716 N   0  0  0  0  0  0  0  0  0  0  0  0
   15.8501   42.4339    7.9884 N   0  0  0  0  0  0  0  0  0  0  0  0
   15.5110   43.1840    6.9522 N   0  0  0  0  0  0  0  0  0  0  0  0
   13.4847   43.3072    5.5572 N   0  0  0  0  0  0  0  0  0  0  0  0
   13.8345   41.7936    7.4427 N   0  0  0  0  0  0  0  0  0  0  0  0
   15.0451   44.8730    4.8027 O   0  0  0  0  0  0  0  0  0  0  0  0
   10.8594   43.1045    4.1484 Cl  0  0  0  0  0  0  0  0  0  0  0  0
   13.4421   46.0519    2.5035 S   0  0  0  0  0  0  0  0  0  0  0  0
  1  2  1  0
  2  3  1  0
  3  4  1  0
  4 15  1  0
  5 17  1  0
  5 18  1  0
  6  7  1  0
  7 22  1  0
  8 21  1  0
  8  9  1  0
 10 11  2  0
 12 13  2  0
 14 22  1  0
 14  9  2  0
 15 16  1  0
 15 19  1  0
 18  6  1  0
  5 19  2  0
  6 20  2  0
  7  8  2  0
  9 10  1  0
 11 12  1  0
 13 14  1  0
 16 17  2  0
M  END
>  <rmsd>  (840) 
0.163667619

$$$$
MolPort-002-599-853 2448110 CSSS00121610367 LN00628686 MCULE-5995874023 PubChem-2043544 ZINC000002448110 ZINC02448110
     RDKit          3D

 24 26  0  0  0  0  0  0  0  0999 V2000
   12.7753   39.6721   11.7360 C   0  0  0  0  0  0  0  0  0  0  0  0
   13.7718   38.9512   10.8478 C   0  0  0  0  0  0  0  0  0  0  0  0
   13.9118   39.6688    9.5174 C   0  0  0  0  0  0  0  0  0  0  0  0
   14.7441   40.9299    9.6802 C   0  0  0  0  0  0  0  0  0  0  0  0
   14.3491   42.6984    6.5974 C   0  0  0  0  0  0  0  0  0  0  0  0
   13.9366   44.2684    4.6286 C   0  0  0  0  0  0  0  0  0  0  0  0
   13.0352   44.5997    3.4884 C   0  0  0  0  0  0  0  0  0  0  0  0
   12.1522   45.7912    3.8234 C   0  0  0  0  0  0  0  0  0  0  0  0
   11.0169   45.3669    4.7363 C   0  0  0  0  0  0  0  0  0  0  0  0
   11.5731   46.3586    2.5449 C   0  0  0  0  0  0  0  0  0  0  0  0
   15.7199   42.4939    6.5554 C   0  0  0  0  0  0  0  0  0  0  0  0
   16.7132   42.7628    5.6191 C   0  0  0  0  0  0  0  0  0  0  0  0
   18.0166   42.3407    5.9336 C   0  0  0  0  0  0  0  0  0  0  0  0
   19.0696   42.5871    5.0501 C   0  0  0  0  0  0  0  0  0  0  0  0
   20.3628   42.1617    5.3691 C   0  0  0  0  0  0  0  0  0  0  0  0
   20.6089   41.4876    6.5703 C   0  0  0  0  0  0  0  0  0  0  0  0
   19.5639   41.2321    7.4639 C   0  0  0  0  0  0  0  0  0  0  0  0
   18.2665   41.6518    7.1610 C   0  0  0  0  0  0  0  0  0  0  0  0
   15.9965   41.8218    7.7102 C   0  0  0  0  0  0  0  0  0  0  0  0
   14.8665   41.6151    8.4031 N   0  0  0  0  0  0  0  0  0  0  0  0
   13.8495   42.1412    7.7282 N   0  0  0  0  0  0  0  0  0  0  0  0
   13.5199   43.2990    5.5951 N   0  0  0  0  0  0  0  0  0  0  0  0
   17.2438   41.3944    8.0304 N   0  0  0  0  0  0  0  0  0  0  0  0
   15.0162   44.9011    4.7685 O   0  0  0  0  0  0  0  0  0  0  0  0
  1  2  1  0
  2  3  1  0
  3  4  1  0
  4 20  1  0
  5 22  1  0
  5 11  1  0
  7  6  1  0
  7  8  1  0
  8  9  1  0
  8 10  1  0
 12 13  2  0
 14 15  2  0
 16 17  2  0
 18 23  2  0
 18 13  1  0
 19 20  1  0
 19 11  2  0
 20 21  1  0
 22  6  1  0
  5 21  2  0
  6 24  2  0
 11 12  1  0
 13 14  1  0
 15 16  1  0
 17 18  1  0
 19 23  1  0
M  END
>  <rmsd>  (841) 
0.163536385

$$$$
MolPort-002-774-665 36613764 CHEMBL4969407 CSSS00132998851 MCULE-8260149572 PubChem-19590890 ZINC000036613764 ZINC36613764
     RDKit          3D

 21 23  0  0  0  0  0  0  0  0999 V2000
   12.9885   38.5943   10.9462 C   0  0  0  0  0  0  0  0  0  0  0  0
   13.6767   39.8429   11.4651 C   0  0  0  0  0  0  0  0  0  0  0  0
   13.7469   40.8999   10.3779 C   0  0  0  0  0  0  0  0  0  0  0  0
   14.8240   40.5482    9.3649 C   0  0  0  0  0  0  0  0  0  0  0  0
   14.3200   42.7777    6.6518 C   0  0  0  0  0  0  0  0  0  0  0  0
   13.8922   44.3414    4.6839 C   0  0  0  0  0  0  0  0  0  0  0  0
   12.9541   44.7790    3.6442 C   0  0  0  0  0  0  0  0  0  0  0  0
   11.2358   45.0112    2.3673 C   0  0  0  0  0  0  0  0  0  0  0  0
   11.6862   44.2640    3.4411 C   0  0  0  0  0  0  0  0  0  0  0  0
    9.9173   44.8324    1.6866 C   0  0  0  0  0  0  0  0  0  0  0  0
    9.2013   46.1669    1.5825 C   0  0  0  0  0  0  0  0  0  0  0  0
    8.7904   45.1732    2.6450 C   0  0  0  0  0  0  0  0  0  0  0  0
   15.6100   43.1854    6.9723 C   0  0  0  0  0  0  0  0  0  0  0  0
   15.9161   42.3705    8.0458 C   0  0  0  0  0  0  0  0  0  0  0  0
   17.2063   42.3845    8.7911 C   0  0  0  0  0  0  0  0  0  0  0  0
   14.8777   41.5607    8.3207 N   0  0  0  0  0  0  0  0  0  0  0  0
   13.8953   41.7973    7.4707 N   0  0  0  0  0  0  0  0  0  0  0  0
   13.5096   43.3015    5.5936 N   0  0  0  0  0  0  0  0  0  0  0  0
   13.2295   45.7445    2.7477 N   0  0  0  0  0  0  0  0  0  0  0  0
   12.1775   45.8828    1.9600 N   0  0  0  0  0  0  0  0  0  0  0  0
   15.0261   44.8855    4.7663 O   0  0  0  0  0  0  0  0  0  0  0  0
  1  2  1  0
  2  3  1  0
  3  4  1  0
  4 16  1  0
  5 18  1  0
  5 13  1  0
  6  7  1  0
  9  7  1  0
 10  8  1  0
 10 11  1  0
 11 12  1  0
 12 10  1  0
 14 16  1  0
 15 14  1  0
 16 17  1  0
 18  6  1  0
 20 19  1  0
 20  8  1  0
  5 17  2  0
  6 21  2  0
  7 19  2  0
  8  9  2  0
 13 14  2  0
M  END
>  <rmsd>  (842) 
0.163212791

$$$$
MolPort-002-773-376 20607015 CSSS00133006964 MCULE-3488812957 PubChem-19617137 ZINC000020607015 ZINC20607015
     RDKit          3D

 26 28  0  0  0  0  0  0  0  0999 V2000
   12.9892   38.5944   10.9457 C   0  0  0  0  0  0  0  0  0  0  0  0
   13.6777   39.8431   11.4639 C   0  0  0  0  0  0  0  0  0  0  0  0
   13.7475   40.8998   10.3764 C   0  0  0  0  0  0  0  0  0  0  0  0
   14.8239   40.5475    9.3628 C   0  0  0  0  0  0  0  0  0  0  0  0
   14.3200   42.7777    6.6502 C   0  0  0  0  0  0  0  0  0  0  0  0
   13.8917   44.3414    4.6826 C   0  0  0  0  0  0  0  0  0  0  0  0
   12.9512   44.7776    3.6431 C   0  0  0  0  0  0  0  0  0  0  0  0
   13.2305   45.7855    2.6970 C   0  0  0  0  0  0  0  0  0  0  0  0
   12.1230   45.9361    1.8738 C   0  0  0  0  0  0  0  0  0  0  0  0
   11.0927   45.1347    2.1379 C   0  0  0  0  0  0  0  0  0  0  0  0
    8.8343   44.6113    1.2016 C   0  0  0  0  0  0  0  0  0  0  0  0
   11.7344   46.6740    0.7731 C   0  0  0  0  0  0  0  0  0  0  0  0
   12.5614   47.6647    0.0181 C   0  0  0  0  0  0  0  0  0  0  0  0
   15.6103   43.1848    6.9704 C   0  0  0  0  0  0  0  0  0  0  0  0
   15.9162   42.3697    8.0438 C   0  0  0  0  0  0  0  0  0  0  0  0
   17.2067   42.3832    8.7886 C   0  0  0  0  0  0  0  0  0  0  0  0
   14.8776   41.5603    8.3186 N   0  0  0  0  0  0  0  0  0  0  0  0
   13.8951   41.7973    7.4690 N   0  0  0  0  0  0  0  0  0  0  0  0
   13.5095   43.3019    5.5924 N   0  0  0  0  0  0  0  0  0  0  0  0
   10.0997   45.3199    1.2622 N   0  0  0  0  0  0  0  0  0  0  0  0
   10.4864   46.2637    0.4066 N   0  0  0  0  0  0  0  0  0  0  0  0
   15.0261   44.8850    4.7659 O   0  0  0  0  0  0  0  0  0  0  0  0
   11.3810   44.1097    3.4239 S   0  0  0  0  0  0  0  0  0  0  0  0
   13.4738   46.9932   -0.7737 F   0  0  0  0  0  0  0  0  0  0  0  0
   11.7492   48.4444   -0.7849 F   0  0  0  0  0  0  0  0  0  0  0  0
   13.2393   48.4831    0.9029 F   0  0  0  0  0  0  0  0  0  0  0  0
  1  2  1  0
  2  3  1  0
  3  4  1  0
  4 17  1  0
  5 19  1  0
  5 14  1  0
  6  7  1  0
  7 23  1  0
  8  9  1  0
 10 23  1  0
 10 20  1  0
 11 20  1  0
 12  9  1  0
 13 12  1  0
 13 24  1  0
 13 25  1  0
 13 26  1  0
 15 17  1  0
 16 15  1  0
 17 18  1  0
 19  6  1  0
 20 21  1  0
  5 18  2  0
  6 22  2  0
  7  8  2  0
  9 10  2  0
 12 21  2  0
 14 15  2  0
M  END
>  <rmsd>  (843) 
0.163026482

$$$$
MolPort-002-609-612 2406069 LN00636618 PubChem-1617097 ZINC000002406069 ZINC02406069
     RDKit          3D

 30 33  0  0  0  0  0  0  0  0999 V2000
   12.7763   39.6702   11.7357 C   0  0  0  0  0  0  0  0  0  0  0  0
   13.7748   38.9517   10.8477 C   0  0  0  0  0  0  0  0  0  0  0  0
   13.9139   39.6699    9.5176 C   0  0  0  0  0  0  0  0  0  0  0  0
   14.7433   40.9327    9.6811 C   0  0  0  0  0  0  0  0  0  0  0  0
   14.3486   42.7001    6.5979 C   0  0  0  0  0  0  0  0  0  0  0  0
   13.9368   44.2693    4.6282 C   0  0  0  0  0  0  0  0  0  0  0  0
   13.0325   44.6057    3.4922 C   0  0  0  0  0  0  0  0  0  0  0  0
   12.0480   45.6488    3.8986 C   0  0  0  0  0  0  0  0  0  0  0  0
   12.3617   47.0042    3.7507 C   0  0  0  0  0  0  0  0  0  0  0  0
   11.4465   47.9828    4.1495 C   0  0  0  0  0  0  0  0  0  0  0  0
   10.2145   47.6153    4.7018 C   0  0  0  0  0  0  0  0  0  0  0  0
    8.0505   48.3347    5.6594 C   0  0  0  0  0  0  0  0  0  0  0  0
    9.9056   46.2533    4.8536 C   0  0  0  0  0  0  0  0  0  0  0  0
   10.8204   45.2746    4.4550 C   0  0  0  0  0  0  0  0  0  0  0  0
   15.7196   42.4972    6.5577 C   0  0  0  0  0  0  0  0  0  0  0  0
   16.7135   42.7666    5.6232 C   0  0  0  0  0  0  0  0  0  0  0  0
   18.0173   42.3465    5.9379 C   0  0  0  0  0  0  0  0  0  0  0  0
   19.0654   42.5976    5.0506 C   0  0  0  0  0  0  0  0  0  0  0  0
   20.3609   42.1779    5.3621 C   0  0  0  0  0  0  0  0  0  0  0  0
   20.6156   41.5043    6.5604 C   0  0  0  0  0  0  0  0  0  0  0  0
   19.5802   41.2409    7.4630 C   0  0  0  0  0  0  0  0  0  0  0  0
   19.8939   40.5179    8.7284 C   0  0  0  0  0  0  0  0  0  0  0  0
   18.2713   41.6572    7.1659 C   0  0  0  0  0  0  0  0  0  0  0  0
   15.9957   41.8261    7.7119 C   0  0  0  0  0  0  0  0  0  0  0  0
   14.8656   41.6180    8.4040 N   0  0  0  0  0  0  0  0  0  0  0  0
   13.8485   42.1426    7.7283 N   0  0  0  0  0  0  0  0  0  0  0  0
   13.5199   43.3000    5.5949 N   0  0  0  0  0  0  0  0  0  0  0  0
   17.2428   41.4005    8.0330 N   0  0  0  0  0  0  0  0  0  0  0  0
   15.0165   44.9018    4.7678 O   0  0  0  0  0  0  0  0  0  0  0  0
    9.3213   48.6176    5.0899 O   0  0  0  0  0  0  0  0  0  0  0  0
  1  2  1  0
  2  3  1  0
  3  4  1  0
  4 25  1  0
  5 27  1  0
  5 15  1  0
  7  6  1  0
  7  8  1  0
  9 10  2  0
 11 30  1  0
 11 13  2  0
 12 30  1  0
 14  8  2  0
 16 17  2  0
 18 19  2  0
 20 21  2  0
 22 21  1  0
 23 28  2  0
 23 17  1  0
 24 25  1  0
 24 15  2  0
 25 26  1  0
 27  6  1  0
  5 26  2  0
  6 29  2  0
  8  9  1  0
 10 11  1  0
 13 14  1  0
 15 16  1  0
 17 18  1  0
 19 20  1  0
 21 23  1  0
 24 28  1  0
M  END
>  <rmsd>  (844) 
0.162935242

$$$$
MolPort-001-629-776 2865914 CHEMBL1313544 CSSS00132429924 MCULE-8055462173 PubChem-2219067 ZINC000002865914 ZINC02865914
     RDKit          3D

 26 28  0  0  0  0  0  0  0  0999 V2000
   13.1833   38.6355   11.0279 C   0  0  0  0  0  0  0  0  0  0  0  0
   13.8251   39.9291   11.4935 C   0  0  0  0  0  0  0  0  0  0  0  0
   13.8119   40.9587   10.3781 C   0  0  0  0  0  0  0  0  0  0  0  0
   14.8749   40.6323    9.3422 C   0  0  0  0  0  0  0  0  0  0  0  0
   14.2646   42.7729    6.6319 C   0  0  0  0  0  0  0  0  0  0  0  0
   13.9102   44.3487    4.6733 C   0  0  0  0  0  0  0  0  0  0  0  0
   13.0162   44.8117    3.6075 C   0  0  0  0  0  0  0  0  0  0  0  0
   11.7470   44.3251    3.3563 C   0  0  0  0  0  0  0  0  0  0  0  0
   11.2875   45.0512    2.2695 C   0  0  0  0  0  0  0  0  0  0  0  0
   12.3110   45.9284    1.9466 C   0  0  0  0  0  0  0  0  0  0  0  0
   12.2874   46.8957    0.8274 C   0  0  0  0  0  0  0  0  0  0  0  0
   13.1704   48.0039    0.7516 C   0  0  0  0  0  0  0  0  0  0  0  0
   13.1661   48.8066   -0.3999 C   0  0  0  0  0  0  0  0  0  0  0  0
   12.2885   48.5440   -1.4522 C   0  0  0  0  0  0  0  0  0  0  0  0
   11.3996   47.4743   -1.3659 C   0  0  0  0  0  0  0  0  0  0  0  0
   11.4028   46.6558   -0.2360 C   0  0  0  0  0  0  0  0  0  0  0  0
   14.8466   41.6154    8.2727 N   0  0  0  0  0  0  0  0  0  0  0  0
   15.8477   42.4309    7.9902 N   0  0  0  0  0  0  0  0  0  0  0  0
   15.5092   43.1814    6.9540 N   0  0  0  0  0  0  0  0  0  0  0  0
   13.4838   43.3056    5.5579 N   0  0  0  0  0  0  0  0  0  0  0  0
   14.0304   48.3683    1.8410 N   0  0  0  0  0  0  0  0  0  0  0  0
   13.8322   41.7910    7.4433 N   0  0  0  0  0  0  0  0  0  0  0  0
   15.0478   44.8760    4.8002 O   0  0  0  0  0  0  0  0  0  0  0  0
   13.3264   45.7565    2.7563 O   0  0  0  0  0  0  0  0  0  0  0  0
   13.5313   48.4167    3.1223 O   0  0  0  0  0  0  0  0  0  0  0  0
   15.1396   48.8920    1.6080 O   0  0  0  0  0  0  0  0  0  0  0  0
  1  2  1  0
  2  3  1  0
  3  4  1  0
  4 17  1  0
  5 19  1  0
  5 20  1  0
  6  7  1  0
  7 24  1  0
  8  9  1  0
 10 24  1  0
 10 11  1  0
 12 13  2  0
 12 21  1  0
 14 15  2  0
 16 11  2  0
 17 18  1  0
 17 22  1  0
 20  6  1  0
 21 25  1  0
  5 22  2  0
  6 23  2  0
  7  8  2  0
  9 10  2  0
 11 12  1  0
 13 14  1  0
 15 16  1  0
 18 19  2  0
 21 26  2  0
M  CHG  2  21   1  25  -1
M  END
>  <rmsd>  (845) 
0.162749574

$$$$
MolPort-002-981-687 MolPort-046-846-370 6204347 CSSS02125562603 ChemDiv-F019-5747 MCULE-4413014932 MCULE-9982046585 PubChem-163328878 PubChem-4239369 ZINC000006204347 ZINC06204347
     RDKit          3D

 21 22  0  0  0  0  0  0  0  0999 V2000
   13.1868   38.6223   11.0191 C   0  0  0  0  0  0  0  0  0  0  0  0
   13.8148   39.9200   11.4917 C   0  0  0  0  0  0  0  0  0  0  0  0
   13.8008   40.9519   10.3784 C   0  0  0  0  0  0  0  0  0  0  0  0
   14.8734   40.6363    9.3490 C   0  0  0  0  0  0  0  0  0  0  0  0
   14.2626   42.7762    6.6382 C   0  0  0  0  0  0  0  0  0  0  0  0
   13.9094   44.3499    4.6805 C   0  0  0  0  0  0  0  0  0  0  0  0
   13.0074   44.7950    3.5862 C   0  0  0  0  0  0  0  0  0  0  0  0
   12.4746   44.1361    1.2625 C   0  0  0  0  0  0  0  0  0  0  0  0
   12.7186   43.2704    0.1906 C   0  0  0  0  0  0  0  0  0  0  0  0
   12.0173   43.4181   -1.0100 C   0  0  0  0  0  0  0  0  0  0  0  0
   12.2827   42.4944   -2.1433 C   0  0  0  0  0  0  0  0  0  0  0  0
   11.0670   44.4341   -1.1446 C   0  0  0  0  0  0  0  0  0  0  0  0
   10.8172   45.3031   -0.0787 C   0  0  0  0  0  0  0  0  0  0  0  0
   11.5182   45.1555    1.1217 C   0  0  0  0  0  0  0  0  0  0  0  0
   14.8438   41.6209    8.2810 N   0  0  0  0  0  0  0  0  0  0  0  0
   15.8398   42.4453    8.0062 N   0  0  0  0  0  0  0  0  0  0  0  0
   15.5017   43.1946    6.9691 N   0  0  0  0  0  0  0  0  0  0  0  0
   13.4843   43.3043    5.5602 N   0  0  0  0  0  0  0  0  0  0  0  0
   13.8333   41.7894    7.4453 N   0  0  0  0  0  0  0  0  0  0  0  0
   15.0480   44.8757    4.7977 O   0  0  0  0  0  0  0  0  0  0  0  0
   13.1917   43.9623    2.4490 O   0  0  0  0  0  0  0  0  0  0  0  0
  1  2  1  0
  2  3  1  0
  3  4  1  0
  4 15  1  0
  5 17  1  0
  5 18  1  0
  7  6  1  0
  7 21  1  0
  8 21  1  0
  9 10  2  0
 11 10  1  0
 12 13  2  0
 14  8  2  0
 15 16  1  0
 15 19  1  0
 18  6  1  0
  5 19  2  0
  6 20  2  0
  8  9  1  0
 10 12  1  0
 13 14  1  0
 16 17  2  0
M  END
>  <rmsd>  (846) 
0.162634179

$$$$
MolPort-002-095-155 2865898 CHEMBL1462922 CSSS00121602927 MCULE-7345048442 PubChem-2219051 ZINC000002865898 ZINC02865898
     RDKit          3D

 20 21  0  0  0  0  0  0  0  0999 V2000
   13.1761   38.6393   11.0312 C   0  0  0  0  0  0  0  0  0  0  0  0
   13.8244   39.9303   11.4951 C   0  0  0  0  0  0  0  0  0  0  0  0
   13.8136   40.9594   10.3792 C   0  0  0  0  0  0  0  0  0  0  0  0
   14.8731   40.6280    9.3413 C   0  0  0  0  0  0  0  0  0  0  0  0
   14.2649   42.7687    6.6309 C   0  0  0  0  0  0  0  0  0  0  0  0
   13.9111   44.3466    4.6763 C   0  0  0  0  0  0  0  0  0  0  0  0
   12.9844   44.8356    3.6163 C   0  0  0  0  0  0  0  0  0  0  0  0
   12.0764   45.8854    4.1604 C   0  0  0  0  0  0  0  0  0  0  0  0
   12.4607   47.2309    4.1268 C   0  0  0  0  0  0  0  0  0  0  0  0
   11.6173   48.2132    4.6546 C   0  0  0  0  0  0  0  0  0  0  0  0
   10.3906   47.8513    5.2197 C   0  0  0  0  0  0  0  0  0  0  0  0
   10.0077   46.5071    5.2593 C   0  0  0  0  0  0  0  0  0  0  0  0
   10.8506   45.5244    4.7316 C   0  0  0  0  0  0  0  0  0  0  0  0
   14.8464   41.6101    8.2710 N   0  0  0  0  0  0  0  0  0  0  0  0
   15.8499   42.4217    7.9856 N   0  0  0  0  0  0  0  0  0  0  0  0
   15.5116   43.1729    6.9498 N   0  0  0  0  0  0  0  0  0  0  0  0
   13.4830   43.3049    5.5595 N   0  0  0  0  0  0  0  0  0  0  0  0
   13.8306   41.7891    7.4440 N   0  0  0  0  0  0  0  0  0  0  0  0
   15.0474   44.8765    4.7993 O   0  0  0  0  0  0  0  0  0  0  0  0
    9.3353   49.0811    5.8805 Cl  0  0  0  0  0  0  0  0  0  0  0  0
  1  2  1  0
  2  3  1  0
  3  4  1  0
  4 14  1  0
  5 16  1  0
  5 17  1  0
  7  6  1  0
  7  8  1  0
  9 10  2  0
 11 20  1  0
 11 12  2  0
 13  8  2  0
 14 15  1  0
 14 18  1  0
 17  6  1  0
  5 18  2  0
  6 19  2  0
  8  9  1  0
 10 11  1  0
 12 13  1  0
 15 16  2  0
M  END
>  <rmsd>  (847) 
0.160590664

$$$$
MolPort-008-363-374 MolPort-047-536-103 CSSS00160416724 MCULE-3028797757 MCULE-3209284736 PubChem-154924705 PubChem-46985117
     RDKit          3D

 23 25  0  0  0  0  0  0  0  0999 V2000
   13.9038   44.3464    4.6704 C   0  0  0  0  0  0  0  0  0  0  0  0
   11.6902   44.1819    3.4885 C   0  0  1  0  0  0  0  0  0  0  0  0
   10.5608   45.1578    3.8556 C   0  0  0  0  0  0  0  0  0  0  0  0
   11.0110   46.4053    4.6156 C   0  0  0  0  0  0  0  0  0  0  0  0
   11.5870   47.4374    3.6506 C   0  0  0  0  0  0  0  0  0  0  0  0
   13.0824   47.2284    3.3956 C   0  0  0  0  0  0  0  0  0  0  0  0
   13.4032   45.8852    2.7381 C   0  0  2  0  0  0  0  0  0  0  0  0
   12.7260   45.7649    1.3651 C   0  0  0  0  0  0  0  0  0  0  0  0
   12.4397   44.3025    1.0341 C   0  0  0  0  0  0  0  0  0  0  0  0
   11.4720   43.6824    2.0525 C   0  0  0  0  0  0  0  0  0  0  0  0
   14.2742   42.7848    6.6443 C   0  0  0  0  0  0  0  0  0  0  0  0
   15.8841   42.4800    8.0096 C   0  0  0  0  0  0  0  0  0  0  0  0
   14.8457   41.6210    8.3039 C   0  0  0  0  0  0  0  0  0  0  0  0
   14.8304   40.6366    9.3906 C   0  0  0  0  0  0  0  0  0  0  0  0
   13.6100   38.8730   10.6200 C   0  0  0  0  0  0  0  0  0  0  0  0
   13.3115   39.5684   11.9350 C   0  0  0  0  0  0  0  0  0  0  0  0
   15.0422   44.8759    4.7914 O   0  0  0  0  0  0  0  0  0  0  0  0
   13.7047   39.8277    9.5700 O   0  0  0  0  0  0  0  0  0  0  0  0
   15.8302   40.5230   10.1516 O   0  0  0  0  0  0  0  0  0  0  0  0
   13.0186   44.7860    3.6300 N   0  0  0  0  0  0  0  0  0  0  0  0
   13.4902   43.3060    5.5662 N   0  0  0  0  0  0  0  0  0  0  0  0
   15.5141   43.2213    6.9489 N   0  0  0  0  0  0  0  0  0  0  0  0
   13.8247   41.8044    7.4491 N   0  0  0  0  0  0  0  0  0  0  0  0
  1 20  1  0
  1 21  1  0
  2 20  1  0
  2  3  1  6
  3  4  1  0
  4  5  1  0
  5  6  1  0
  7  6  1  1
  7  8  1  0
  7 20  1  0
  8  9  1  0
  9 10  1  0
 10  2  1  0
 12 22  1  0
 13 14  1  0
 13 23  1  0
 14 18  1  0
 15 18  1  0
 15 16  1  0
 21 11  1  0
 23 11  1  0
  1 17  2  0
 11 22  2  0
 12 13  2  0
 14 19  2  0
M  END
>  <rmsd>  (848) 
0.160554498

$$$$
MolPort-002-996-116 6138554 CSSS00132429919 MCULE-9708141520 PubChem-4017425 ZINC000006138554 ZINC06138554
     RDKit          3D

 23 24  0  0  0  0  0  0  0  0999 V2000
   13.1731   38.6380   11.0293 C   0  0  0  0  0  0  0  0  0  0  0  0
   13.8238   39.9270   11.4953 C   0  0  0  0  0  0  0  0  0  0  0  0
   13.8141   40.9584   10.3815 C   0  0  0  0  0  0  0  0  0  0  0  0
   14.8722   40.6272    9.3422 C   0  0  0  0  0  0  0  0  0  0  0  0
   14.2634   42.7708    6.6343 C   0  0  0  0  0  0  0  0  0  0  0  0
   13.9133   44.3406    4.6723 C   0  0  0  0  0  0  0  0  0  0  0  0
   13.0171   44.7715    3.5625 C   0  0  0  0  0  0  0  0  0  0  0  0
   13.1686   42.8714    1.9674 C   0  0  0  0  0  0  0  0  0  0  0  0
   13.6897   42.3785    0.7695 C   0  0  0  0  0  0  0  0  0  0  0  0
   13.4392   41.0623    0.3713 C   0  0  0  0  0  0  0  0  0  0  0  0
   14.0198   40.5847   -0.9156 C   0  0  0  0  0  0  0  0  0  0  0  0
   12.6543   40.2190    1.1803 C   0  0  0  0  0  0  0  0  0  0  0  0
   12.1261   40.7152    2.3868 C   0  0  0  0  0  0  0  0  0  0  0  0
   11.2893   39.8634    3.2787 C   0  0  0  0  0  0  0  0  0  0  0  0
   12.3836   42.0331    2.7715 C   0  0  0  0  0  0  0  0  0  0  0  0
   14.8453   41.6104    8.2729 N   0  0  0  0  0  0  0  0  0  0  0  0
   15.8498   42.4203    7.9863 N   0  0  0  0  0  0  0  0  0  0  0  0
   15.5116   43.1722    6.9511 N   0  0  0  0  0  0  0  0  0  0  0  0
   13.4834   43.3043    5.5605 N   0  0  0  0  0  0  0  0  0  0  0  0
   13.8288   41.7914    7.4472 N   0  0  0  0  0  0  0  0  0  0  0  0
   15.0466   44.8760    4.7986 O   0  0  0  0  0  0  0  0  0  0  0  0
   13.4421   44.1947    2.3315 O   0  0  0  0  0  0  0  0  0  0  0  0
   12.3347   38.5545    0.6858 Cl  0  0  0  0  0  0  0  0  0  0  0  0
  1  2  1  0
  2  3  1  0
  3  4  1  0
  4 16  1  0
  5 18  1  0
  5 19  1  0
  7  6  1  0
  7 22  1  0
  8 22  1  0
  9 10  2  0
 11 10  1  0
 12 23  1  0
 12 13  2  0
 14 13  1  0
 15  8  2  0
 16 17  1  0
 16 20  1  0
 19  6  1  0
  5 20  2  0
  6 21  2  0
  8  9  1  0
 10 12  1  0
 13 15  1  0
 17 18  2  0
M  END
>  <rmsd>  (849) 
0.160010487

$$$$
MolPort-006-727-805 38540493 MCULE-8992860453 PubChem-11237328 ZINC000038540493
     RDKit          3D

 36 39  0  0  0  0  0  0  0  0999 V2000
   13.4868   39.6420   12.0207 C   0  0  0  0  0  0  0  0  0  0  0  0
   13.1924   39.0461   10.6560 C   0  0  0  0  0  0  0  0  0  0  0  0
   14.6969   40.4279    9.2573 C   0  0  0  0  0  0  0  0  0  0  0  0
   14.3215   42.7559    6.6243 C   0  0  0  0  0  0  0  0  0  0  0  0
   13.9313   44.2873    4.6269 C   0  0  0  0  0  0  0  0  0  0  0  0
   13.0692   44.6118    3.4770 C   0  0  0  0  0  0  0  0  0  0  0  0
   13.4745   45.5637    2.5318 C   0  0  0  0  0  0  0  0  0  0  0  0
   12.6576   45.8675    1.4396 C   0  0  0  0  0  0  0  0  0  0  0  0
   11.4189   45.2273    1.2735 C   0  0  0  0  0  0  0  0  0  0  0  0
   11.0180   44.2729    2.2222 C   0  0  0  0  0  0  0  0  0  0  0  0
   11.8353   43.9684    3.3138 C   0  0  0  0  0  0  0  0  0  0  0  0
    9.2399   44.9589    0.0285 C   0  0  0  0  0  0  0  0  0  0  0  0
    8.9585   44.6085   -1.4308 C   0  0  0  0  0  0  0  0  0  0  0  0
    8.8981   45.3693   -3.6394 C   0  0  0  0  0  0  0  0  0  0  0  0
   10.5871   46.1402   -2.2215 C   0  0  0  0  0  0  0  0  0  0  0  0
   10.9581   46.5795   -0.8075 C   0  0  0  0  0  0  0  0  0  0  0  0
   15.7045   42.6922    6.6547 C   0  0  0  0  0  0  0  0  0  0  0  0
   15.9897   41.8620    7.6868 C   0  0  0  0  0  0  0  0  0  0  0  0
   17.2204   41.0766    7.4296 C   0  0  0  0  0  0  0  0  0  0  0  0
   16.6895   42.5460    5.5572 C   0  0  0  0  0  0  0  0  0  0  0  0
   18.7757   41.0828    5.4134 C   0  0  0  0  0  0  0  0  0  0  0  0
   20.7758   39.5693    5.4240 C   0  0  0  0  0  0  0  0  0  0  0  0
   21.8049   40.6599    5.1807 C   0  0  0  0  0  0  0  0  0  0  0  0
   20.4512   38.8667    4.1169 C   0  0  0  0  0  0  0  0  0  0  0  0
   21.3699   38.5546    6.3779 C   0  0  0  0  0  0  0  0  0  0  0  0
   13.4163   40.0111    9.6347 O   0  0  0  0  0  0  0  0  0  0  0  0
   15.7181   39.9223    9.7998 O   0  0  0  0  0  0  0  0  0  0  0  0
   15.0238   44.8976    4.7841 O   0  0  0  0  0  0  0  0  0  0  0  0
   19.0539   41.5403    4.2711 O   0  0  0  0  0  0  0  0  0  0  0  0
   19.5927   40.1130    6.0139 O   0  0  0  0  0  0  0  0  0  0  0  0
   14.8420   41.4361    8.2510 N   0  0  0  0  0  0  0  0  0  0  0  0
   13.8169   41.9846    7.6117 N   0  0  0  0  0  0  0  0  0  0  0  0
   13.5096   43.3017    5.5786 N   0  0  0  0  0  0  0  0  0  0  0  0
   10.5808   45.5335    0.1432 N   0  0  0  0  0  0  0  0  0  0  0  0
    9.1713   45.7823   -2.2756 N   0  0  0  0  0  0  0  0  0  0  0  0
   17.6173   41.5545    6.1050 N   0  0  0  0  0  0  0  0  0  0  0  0
  1  2  1  0
  2 26  1  0
  3 26  1  0
  3 31  1  0
  4 33  1  0
  4 17  1  0
  5  6  1  0
  7  8  2  0
  9 10  2  0
  9 34  1  0
 11  6  2  0
 12 34  1  0
 12 13  1  0
 13 35  1  0
 14 35  1  0
 15 35  1  0
 15 16  1  0
 16 34  1  0
 18 31  1  0
 19 18  1  0
 19 36  1  0
 20 36  1  0
 20 17  1  0
 21 30  1  0
 22 30  1  0
 22 23  1  0
 22 24  1  0
 22 25  1  0
 31 32  1  0
 33  5  1  0
 36 21  1  0
  3 27  2  0
  4 32  2  0
  5 28  2  0
  6  7  1  0
  8  9  1  0
 10 11  1  0
 17 18  2  0
 21 29  2  0
M  END
>  <rmsd>  (850) 
0.159744397

$$$$
MolPort-008-370-653 CSSS00159509820 MCULE-4104381300 PubChem-46990737
     RDKit          3D

 25 27  0  0  0  0  0  0  0  0999 V2000
   13.3800   39.5836   11.9498 C   0  0  0  0  0  0  0  0  0  0  0  0
   13.5743   38.8772   10.6204 C   0  0  0  0  0  0  0  0  0  0  0  0
   14.8131   40.6293    9.3869 C   0  0  0  0  0  0  0  0  0  0  0  0
   14.8339   41.6136    8.3003 C   0  0  0  0  0  0  0  0  0  0  0  0
   15.8773   42.4666    8.0059 C   0  0  0  0  0  0  0  0  0  0  0  0
   14.2688   42.7812    6.6410 C   0  0  0  0  0  0  0  0  0  0  0  0
   13.9077   44.3450    4.6680 C   0  0  0  0  0  0  0  0  0  0  0  0
   11.7136   44.2171    3.4093 C   0  0  0  0  0  0  0  0  0  0  0  0
   11.1866   44.8667    2.1426 C   0  0  0  0  0  0  0  0  0  0  0  0
   12.1451   46.0076    1.8151 C   0  0  1  0  0  0  0  0  0  0  0  0
   13.3815   45.8168    2.6758 C   0  0  0  0  0  0  0  0  0  0  0  0
   12.6652   46.7416   -1.6186 C   0  0  0  0  0  0  0  0  0  0  0  0
   12.5570   47.6505   -2.7896 C   0  0  0  0  0  0  0  0  0  0  0  0
   13.2228   45.4733   -1.6468 C   0  0  0  0  0  0  0  0  0  0  0  0
   13.0819   45.0594   -0.3356 C   0  0  0  0  0  0  0  0  0  0  0  0
   13.5294   43.7368    0.1874 C   0  0  0  0  0  0  0  0  0  0  0  0
   13.6827   39.8261    9.5657 O   0  0  0  0  0  0  0  0  0  0  0  0
   15.8129   40.5092   10.1469 O   0  0  0  0  0  0  0  0  0  0  0  0
   15.0442   44.8766    4.7935 O   0  0  0  0  0  0  0  0  0  0  0  0
   15.5114   43.2102    6.9454 N   0  0  0  0  0  0  0  0  0  0  0  0
   13.4881   43.3064    5.5623 N   0  0  0  0  0  0  0  0  0  0  0  0
   13.0308   44.7810    3.6247 N   0  0  0  0  0  0  0  0  0  0  0  0
   12.4839   46.0263    0.3937 N   0  0  0  0  0  0  0  0  0  0  0  0
   12.2262   47.0594   -0.3866 N   0  0  0  0  0  0  0  0  0  0  0  0
   13.8137   41.8032    7.4458 N   0  0  0  0  0  0  0  0  0  0  0  0
  1  2  1  0
  2 17  1  0
  3 17  1  0
  3  4  1  0
  5 20  1  0
  6 21  1  0
  6 25  1  0
  7 22  1  0
  8 22  1  0
  8  9  1  0
  9 10  1  0
 10 11  1  0
 10 23  1  6
 11 22  1  0
 12 14  1  0
 13 12  1  0
 15 23  1  0
 16 15  1  0
 21  7  1  0
 23 24  1  0
 25  4  1  0
  3 18  2  0
  4  5  2  0
  6 20  2  0
  7 19  2  0
 12 24  2  0
 14 15  2  0
M  END
>  <rmsd>  (851) 
0.159560025

$$$$
MolPort-020-269-161 19749405 MCULE-9600677370 PubChem-92634656 ZINC000019749405 ZINC19749405
     RDKit          3D

 30 32  0  0  0  0  0  0  0  0999 V2000
   17.0918   37.2550    8.7522 C   0  0  0  0  0  0  0  0  0  0  0  0
   16.3534   38.2118    9.6207 C   0  0  0  0  0  0  0  0  0  0  0  0
   16.8588   39.3674   10.1940 C   0  0  0  0  0  0  0  0  0  0  0  0
   15.8070   39.8750   10.9273 C   0  0  0  0  0  0  0  0  0  0  0  0
   13.4319   39.2316   11.3678 C   0  0  0  0  0  0  0  0  0  0  0  0
   15.8243   41.1113   11.7626 C   0  0  0  0  0  0  0  0  0  0  0  0
   18.2462   39.9253   10.1024 C   0  0  0  0  0  0  0  0  0  0  0  0
   19.5509   39.3416    8.0562 C   0  0  0  0  0  0  0  0  0  0  0  0
   18.1272   41.4016    8.0481 C   0  0  0  0  0  0  0  0  0  0  0  0
   17.1615   42.3330    8.7101 C   0  0  0  0  0  0  0  0  0  0  0  0
   15.5547   43.1276    6.9904 C   0  0  0  0  0  0  0  0  0  0  0  0
   14.2850   42.7450    6.6089 C   0  0  0  0  0  0  0  0  0  0  0  0
   13.8966   41.6998    7.4211 C   0  0  0  0  0  0  0  0  0  0  0  0
   13.9002   44.3643    4.6868 C   0  0  0  0  0  0  0  0  0  0  0  0
   12.9496   44.8724    3.6573 C   0  0  0  0  0  0  0  0  0  0  0  0
   12.2303   46.0815    4.1586 C   0  0  0  0  0  0  0  0  0  0  0  0
   11.0487   45.9271    4.8940 C   0  0  0  0  0  0  0  0  0  0  0  0
   10.3732   47.0492    5.3822 C   0  0  0  0  0  0  0  0  0  0  0  0
   10.8791   48.3298    5.1391 C   0  0  0  0  0  0  0  0  0  0  0  0
   12.0607   48.4887    4.4096 C   0  0  0  0  0  0  0  0  0  0  0  0
   12.7395   47.3682    3.9200 C   0  0  0  0  0  0  0  0  0  0  0  0
   14.7458   39.0607   10.7713 N   0  0  0  0  0  0  0  0  0  0  0  0
   15.0651   38.0468    9.9829 N   0  0  0  0  0  0  0  0  0  0  0  0
   18.6054   40.2249    8.7207 N   0  0  0  0  0  0  0  0  0  0  0  0
   15.8864   42.3175    8.0107 N   0  0  0  0  0  0  0  0  0  0  0  0
   14.9128   41.4598    8.2724 N   0  0  0  0  0  0  0  0  0  0  0  0
   13.4898   43.3064    5.5593 N   0  0  0  0  0  0  0  0  0  0  0  0
   18.5247   41.6676    6.8815 O   0  0  0  0  0  0  0  0  0  0  0  0
   15.0415   44.8871    4.7902 O   0  0  0  0  0  0  0  0  0  0  0  0
   13.8869   47.5386    3.2164 F   0  0  0  0  0  0  0  0  0  0  0  0
  1  2  1  0
  2  3  1  0
  4 22  1  0
  5 22  1  0
  6  4  1  0
  7  3  1  0
  7 24  1  0
  8 24  1  0
 10  9  1  0
 10 25  1  0
 12 13  1  0
 12 27  1  0
 15 14  1  0
 15 16  1  0
 17 18  2  0
 19 20  2  0
 21 30  1  0
 21 16  2  0
 22 23  1  0
 24  9  1  0
 25 11  1  0
 25 26  1  0
 27 14  1  0
  2 23  2  0
  3  4  2  0
  9 28  2  0
 11 12  2  0
 13 26  2  0
 14 29  2  0
 16 17  1  0
 18 19  1  0
 20 21  1  0
M  END
>  <rmsd>  (852) 
0.157895431

$$$$
MolPort-007-711-095 ChemDiv-D485-0830 MCULE-3941068606 PubChem-20899143
     RDKit          3D

 34 38  0  0  0  0  0  0  0  0999 V2000
   13.3421   39.2162   11.2093 C   0  0  0  0  0  0  0  0  0  0  0  0
   12.1683   39.8179    9.1118 C   0  0  0  0  0  0  0  0  0  0  0  0
   11.8424   40.7995    8.1502 C   0  0  0  0  0  0  0  0  0  0  0  0
   11.0434   40.4563    7.0534 C   0  0  0  0  0  0  0  0  0  0  0  0
   10.5587   39.1550    6.9083 C   0  0  0  0  0  0  0  0  0  0  0  0
   10.8734   38.1831    7.8589 C   0  0  0  0  0  0  0  0  0  0  0  0
   11.6743   38.5120    8.9543 C   0  0  0  0  0  0  0  0  0  0  0  0
   12.3505   42.2183    8.2348 C   0  0  2  0  0  0  0  0  0  0  0  0
   10.6708   42.8509    9.8082 C   0  0  0  0  0  0  0  0  0  0  0  0
   10.3999   43.4445   11.1945 C   0  0  0  0  0  0  0  0  0  0  0  0
   10.1326   45.7268   10.5377 C   0  0  0  0  0  0  0  0  0  0  0  0
   12.3390   44.8760   10.8830 C   0  0  0  0  0  0  0  0  0  0  0  0
   12.5396   44.2300    9.5081 C   0  0  0  0  0  0  0  0  0  0  0  0
   13.8033   42.2563    7.8483 C   0  0  0  0  0  0  0  0  0  0  0  0
   14.3051   42.7838    6.6679 C   0  0  0  0  0  0  0  0  0  0  0  0
   13.9623   44.2294    4.5909 C   0  0  0  0  0  0  0  0  0  0  0  0
   13.1468   44.4511    3.3843 C   0  0  0  0  0  0  0  0  0  0  0  0
   11.9506   43.7425    3.1981 C   0  0  0  0  0  0  0  0  0  0  0  0
   11.1764   43.9507    2.0529 C   0  0  0  0  0  0  0  0  0  0  0  0
   11.5928   44.8687    1.0852 C   0  0  0  0  0  0  0  0  0  0  0  0
   12.7835   45.5787    1.2623 C   0  0  0  0  0  0  0  0  0  0  0  0
   13.5578   45.3705    2.4075 C   0  0  0  0  0  0  0  0  0  0  0  0
   15.6685   42.5750    6.7215 C   0  0  0  0  0  0  0  0  0  0  0  0
   16.6930   42.8188    5.8082 C   0  0  0  0  0  0  0  0  0  0  0  0
   17.9981   42.4479    6.1780 C   0  0  0  0  0  0  0  0  0  0  0  0
   18.2446   41.8391    7.4275 C   0  0  0  0  0  0  0  0  0  0  0  0
   17.1883   41.5844    8.3204 C   0  0  0  0  0  0  0  0  0  0  0  0
   15.9061   41.9612    7.9281 C   0  0  0  0  0  0  0  0  0  0  0  0
   12.9731   40.1535   10.2070 O   0  0  0  0  0  0  0  0  0  0  0  0
   15.0235   44.8886    4.7609 O   0  0  0  0  0  0  0  0  0  0  0  0
   14.7873   41.7802    8.5904 O   0  0  0  0  0  0  0  0  0  0  0  0
   12.1119   42.8307    9.5529 N   0  0  0  0  0  0  0  0  0  0  0  0
   10.9399   44.8047   11.3267 N   0  0  0  0  0  0  0  0  0  0  0  0
   13.5163   43.3059    5.5912 N   0  0  0  0  0  0  0  0  0  0  0  0
  1 29  1  0
  2 29  1  0
  3  4  2  0
  5  6  2  0
  7  2  2  0
  8  3  1  0
  8 32  1  1
  8 14  1  0
  9 32  1  0
  9 10  1  0
 10 33  1  0
 11 33  1  0
 12 33  1  0
 12 13  1  0
 13 32  1  0
 14 31  1  0
 15 34  1  0
 15 23  1  0
 16 17  1  0
 18 19  2  0
 20 21  2  0
 22 17  2  0
 24 25  2  0
 26 27  2  0
 28 31  1  0
 28 23  2  0
 34 16  1  0
  2  3  1  0
  4  5  1  0
  6  7  1  0
 14 15  2  0
 16 30  2  0
 17 18  1  0
 19 20  1  0
 21 22  1  0
 23 24  1  0
 25 26  1  0
 27 28  1  0
M  END
>  <rmsd>  (853) 
0.156032979

$$$$
MolPort-002-787-956 36617993 CSSS00133001352 MCULE-7283028708 PubChem-44824205 ZINC000036617993
     RDKit          3D

 30 33  0  0  0  0  0  0  0  0999 V2000
   12.0695   46.5428    2.1633 C   0  0  0  0  0  0  0  0  0  0  0  0
   13.6998   47.3439    3.3293 C   0  0  0  0  0  0  0  0  0  0  0  0
   14.7664   47.6004    4.3342 C   0  0  0  0  0  0  0  0  0  0  0  0
   12.9640   46.1826    3.1331 C   0  0  0  0  0  0  0  0  0  0  0  0
   12.9331   44.8926    3.6951 C   0  0  0  0  0  0  0  0  0  0  0  0
   13.8812   44.3957    4.7120 C   0  0  0  0  0  0  0  0  0  0  0  0
   14.2996   42.7117    6.5827 C   0  0  0  0  0  0  0  0  0  0  0  0
   14.7634   40.3464    9.1821 C   0  0  0  0  0  0  0  0  0  0  0  0
   14.1093   40.8996   10.4371 C   0  0  0  0  0  0  0  0  0  0  0  0
   14.0059   39.8211   11.5002 C   0  0  0  0  0  0  0  0  0  0  0  0
   12.8868   38.8529   11.1654 C   0  0  0  0  0  0  0  0  0  0  0  0
   15.8853   42.2214    7.9617 C   0  0  0  0  0  0  0  0  0  0  0  0
   15.5854   43.1024    6.9399 C   0  0  0  0  0  0  0  0  0  0  0  0
   17.1640   42.2001    8.7263 C   0  0  0  0  0  0  0  0  0  0  0  0
   11.9326   44.0235    3.2153 C   0  0  0  0  0  0  0  0  0  0  0  0
   11.0282   44.4409    2.2107 C   0  0  0  0  0  0  0  0  0  0  0  0
    9.9921   43.5231    1.7149 C   0  0  0  0  0  0  0  0  0  0  0  0
    9.7851   42.2201    2.1461 C   0  0  0  0  0  0  0  0  0  0  0  0
    8.7077   41.7869    1.3900 C   0  0  0  0  0  0  0  0  0  0  0  0
    7.2233   42.7514   -0.3541 C   0  0  0  0  0  0  0  0  0  0  0  0
    5.9787   43.3136    0.3052 C   0  0  0  0  0  0  0  0  0  0  0  0
   12.2603   47.7838    1.7999 O   0  0  0  0  0  0  0  0  0  0  0  0
   15.0372   44.8862    4.8007 O   0  0  0  0  0  0  0  0  0  0  0  0
   13.2398   48.3015    2.4895 N   0  0  0  0  0  0  0  0  0  0  0  0
   13.4926   43.3053    5.5592 N   0  0  0  0  0  0  0  0  0  0  0  0
   13.8701   41.6821    7.3360 N   0  0  0  0  0  0  0  0  0  0  0  0
   14.8502   41.3872    8.1694 N   0  0  0  0  0  0  0  0  0  0  0  0
   11.1155   45.7034    1.6950 N   0  0  0  0  0  0  0  0  0  0  0  0
    8.3378   42.7921    0.5766 N   0  0  0  0  0  0  0  0  0  0  0  0
    9.1001   43.8526    0.7646 N   0  0  0  0  0  0  0  0  0  0  0  0
  1 22  1  0
  1 28  2  0
  2  4  1  0
  3  2  1  0
  4  5  2  0
  5  6  1  0
  6 25  1  0
  8 27  1  0
  8  9  1  0
  9 10  1  0
 10 11  1  0
 13  7  1  0
 14 12  1  0
 15 16  2  0
 16 17  1  0
 17 18  1  0
 19 29  1  0
 20 29  1  0
 20 21  1  0
 22 24  1  0
 25  7  1  0
 27 26  1  0
 27 12  1  0
 29 30  1  0
  2 24  2  0
  4  1  1  0
  5 15  1  0
  6 23  2  0
  7 26  2  0
 12 13  2  0
 16 28  1  0
 17 30  2  0
 18 19  2  0
M  END
>  <rmsd>  (854) 
0.150939867

$$$$
Molport-051-896-426
     RDKit          3D

 37 41  0  0  0  0  0  0  0  0999 V2000
   13.3829   39.5621   11.9857 C   0  0  0  0  0  0  0  0  0  0  0  0
   13.5337   38.8855   10.6337 C   0  0  0  0  0  0  0  0  0  0  0  0
   14.7995   40.5982    9.3758 C   0  0  0  0  0  0  0  0  0  0  0  0
   14.8305   41.5844    8.2902 C   0  0  0  0  0  0  0  0  0  0  0  0
   15.8890   42.4131    7.9862 C   0  0  0  0  0  0  0  0  0  0  0  0
   14.2696   42.7724    6.6408 C   0  0  0  0  0  0  0  0  0  0  0  0
   13.9121   44.3349    4.6576 C   0  0  0  0  0  0  0  0  0  0  0  0
   13.0141   44.7527    3.5651 C   0  0  0  0  0  0  0  0  0  0  0  0
   13.4218   45.7183    2.6306 C   0  0  0  0  0  0  0  0  0  0  0  0
   12.5700   46.0936    1.5843 C   0  0  0  0  0  0  0  0  0  0  0  0
   11.3060   45.5050    1.4647 C   0  0  0  0  0  0  0  0  0  0  0  0
   10.4172   45.8737    0.3239 C   0  0  0  0  0  0  0  0  0  0  0  0
    8.1467   46.4365    0.1643 C   0  0  0  0  0  0  0  0  0  0  0  0
    7.4937   47.4944   -0.7311 C   0  0  0  0  0  0  0  0  0  0  0  0
    6.9668   49.7698   -0.9937 C   0  0  0  0  0  0  0  0  0  0  0  0
    5.4854   49.9510   -0.8421 C   0  0  0  0  0  0  0  0  0  0  0  0
    5.0093   50.8034    0.1643 C   0  0  0  0  0  0  0  0  0  0  0  0
    3.6357   51.0053    0.3365 C   0  0  0  0  0  0  0  0  0  0  0  0
    2.7212   50.3542   -0.4950 C   0  0  0  0  0  0  0  0  0  0  0  0
    3.1763   49.4967   -1.5010 C   0  0  0  0  0  0  0  0  0  0  0  0
    2.2542   48.8476   -2.3269 C   0  0  0  0  0  0  0  0  0  0  0  0
    2.7006   47.9928   -3.3400 C   0  0  0  0  0  0  0  0  0  0  0  0
    4.0709   47.7834   -3.5303 C   0  0  0  0  0  0  0  0  0  0  0  0
    5.0003   48.4268   -2.7065 C   0  0  0  0  0  0  0  0  0  0  0  0
    4.5672   49.2871   -1.6838 C   0  0  0  0  0  0  0  0  0  0  0  0
    8.8081   49.2287    0.3610 C   0  0  0  0  0  0  0  0  0  0  0  0
    9.8901   48.1503    0.1923 C   0  0  0  0  0  0  0  0  0  0  0  0
   10.8873   44.5526    2.4010 C   0  0  0  0  0  0  0  0  0  0  0  0
   11.7385   44.1781    3.4460 C   0  0  0  0  0  0  0  0  0  0  0  0
   13.6330   39.8616    9.6027 O   0  0  0  0  0  0  0  0  0  0  0  0
   15.8234   40.4159   10.0920 O   0  0  0  0  0  0  0  0  0  0  0  0
   15.0414   44.8788    4.7910 O   0  0  0  0  0  0  0  0  0  0  0  0
   15.5259   43.1700    6.9314 N   0  0  0  0  0  0  0  0  0  0  0  0
   13.4915   43.3064    5.5638 N   0  0  0  0  0  0  0  0  0  0  0  0
    9.4363   46.8673    0.7385 N   0  0  0  0  0  0  0  0  0  0  0  0
    7.4615   48.7853   -0.0402 N   0  0  0  0  0  0  0  0  0  0  0  0
   13.8033   41.8033    7.4491 N   0  0  0  0  0  0  0  0  0  0  0  0
  1  2  1  0
  2 30  1  0
  3 30  1  0
  3  4  1  0
  5 33  1  0
  6 34  1  0
  6 37  1  0
  7  8  1  0
  9 10  2  0
 11 28  2  0
 12 11  1  0
 12 35  1  0
 13 35  1  0
 13 14  1  0
 14 36  1  0
 15 36  1  0
 15 16  1  0
 17 18  2  0
 19 20  2  0
 21 22  2  0
 23 24  2  0
 25 16  2  0
 25 20  1  0
 26 36  1  0
 26 27  1  0
 27 35  1  0
 29  8  2  0
 34  7  1  0
 37  4  1  0
  3 31  2  0
  4  5  2  0
  6 33  2  0
  7 32  2  0
  8  9  1  0
 10 11  1  0
 16 17  1  0
 18 19  1  0
 20 21  1  0
 22 23  1  0
 24 25  1  0
 28 29  1  0
M  END
>  <rmsd>  (855) 
0.150456727

$$$$
