@<TRIPOS>MOLECULE
MolPort-000-013-326 6157221 CSSS03436552883 MCULE-8216926894 ZINC000006157221 ZINC06157221
 31 34 0 0 0
SMALL
GASTEIGER

@<TRIPOS>ATOM
      1 C          12.5420   42.9172    7.1811 C.ar    1  UNL1        0.0364
      2 C          11.6583   42.1164    6.4448 C.ar    1  UNL1        0.0043
      3 C          10.4531   41.6865    7.0068 C.ar    1  UNL1        0.0148
      4 C          10.1068   42.0603    8.3084 C.ar    1  UNL1        0.0505
      5 C          10.9824   42.8725    9.0435 C.ar    1  UNL1        0.0148
      6 C          12.1879   43.3013    8.4815 C.ar    1  UNL1        0.0043
      7 C          15.8349   43.6645    6.0368 C.ar    1  UNL1        0.1934
      8 C          13.8085   43.4086    6.5952 C.ar    1  UNL1        0.1706
      9 N          15.0522   42.9460    6.8670 N.ar    1  UNL1       -0.2692
     10 N          15.1152   44.5282    5.2989 N.ar    1  UNL1       -0.1220
     11 N          13.8467   44.3655    5.6449 N.ar    1  UNL1       -0.1279
     12 S          17.6233   43.5780    5.9757 S.3     1  UNL1       -0.1031
     13 H          18.0598   42.6131    6.8289 H       1  UNL1        0.1101
     14 C          16.3292   40.2066    9.8490 C.ar    1  UNL1        0.1388
     15 C          17.1980   41.2103    9.3910 C.ar    1  UNL1        0.0384
     16 C          16.7773   42.1134    8.4117 C.ar    1  UNL1        0.0207
     17 C          15.4825   42.0274    7.8824 C.ar    1  UNL1        0.0674
     18 C          14.6194   41.0201    8.3332 C.ar    1  UNL1        0.0207
     19 C          15.0407   40.1172    9.3132 C.ar    1  UNL1        0.0384
     20 C          15.8103   38.3814   11.4358 C.3     1  UNL1        0.2525
     21 O          16.7193   39.2900   10.8292 O.3     1  UNL1       -0.4714
     22 C           7.6097   42.2774    8.8575 C.2     1  UNL1        0.2495
     23 O           7.4836   43.3834    8.2650 O.2     1  UNL1       -0.2698
     24 N           8.8688   41.5874    8.8560 N.am    1  UNL1       -0.2804
     25 H           8.8837   40.6964    9.2747 H       1  UNL1        0.1552
     26 C           6.4520   41.6829    9.5491 C.ar    1  UNL1        0.0537
     27 C           6.4991   41.4408   10.9299 C.ar    1  UNL1        0.0045
     28 C           5.3989   40.8832   11.5880 C.ar    1  UNL1        0.0001
     29 C           4.2434   40.5635   10.8699 C.ar    1  UNL1        0.0000
     30 C           4.1877   40.8007    9.4940 C.ar    1  UNL1        0.0001
     31 C           5.2881   41.3576    8.8357 C.ar    1  UNL1        0.0045
@<TRIPOS>BOND
     1    20    21    1
     2    14    21    1
     3    15    16   ar
     4    17    18   ar
     5    17     9    1
     6    19    14   ar
     7     7    12    1
     8     8     1    1
     9     8     9   ar
    10     2     3   ar
    11     4    24    1
    12     4     5   ar
    13    22    26    1
    14    27    28   ar
    15    29    30   ar
    16    31    26   ar
    17     6     1   ar
    18     9     7   ar
    19    10    11   ar
    20    24    22   am
    21    14    15   ar
    22    16    17   ar
    23    18    19   ar
    24     7    10   ar
    25     8    11   ar
    26     1     2   ar
    27     3     4   ar
    28    22    23    2
    29    26    27   ar
    30    28    29   ar
    31    30    31   ar
    32     5     6   ar
    33    24    25    1
    34    12    13    1
@<TRIPOS>MOLECULE
MolPort-000-013-326 6157221 CSSS03436552883 MCULE-8216926894 ZINC000006157221 ZINC06157221
 31 34 0 0 0
SMALL
GASTEIGER

@<TRIPOS>ATOM
      1 C          12.2382   42.3882    7.8078 C.ar    1  UNL1        0.0364
      2 C          11.6095   42.8821    8.9589 C.ar    1  UNL1        0.0043
      3 C          10.2798   42.5550    9.2380 C.ar    1  UNL1        0.0148
      4 C           9.5617   41.7194    8.3777 C.ar    1  UNL1        0.0505
      5 C          10.1915   41.2125    7.2318 C.ar    1  UNL1        0.0148
      6 C          11.5208   41.5407    6.9527 C.ar    1  UNL1        0.0043
      7 C          15.7663   42.6552    7.3698 C.ar    1  UNL1        0.1934
      8 C          13.6538   42.6968    7.5091 C.ar    1  UNL1        0.1706
      9 N          14.7377   42.0403    7.9877 N.ar    1  UNL1       -0.2692
     10 N          15.3418   43.6417    6.5605 N.ar    1  UNL1       -0.1220
     11 N          14.0197   43.6653    6.6440 N.ar    1  UNL1       -0.1279
     12 S          17.4989   42.2966    7.6507 S.3     1  UNL1       -0.1031
     13 H          17.6114   41.2501    8.5121 H       1  UNL1        0.1101
     14 C          14.9654   39.0466   10.9899 C.ar    1  UNL1        0.1388
     15 C          16.1292   39.4854   10.3381 C.ar    1  UNL1        0.0384
     16 C          16.0549   40.4723    9.3520 C.ar    1  UNL1        0.0207
     17 C          14.8182   41.0355    9.0095 C.ar    1  UNL1        0.0674
     18 C          13.6564   40.5907    9.6537 C.ar    1  UNL1        0.0207
     19 C          13.7314   39.6037   10.6404 C.ar    1  UNL1        0.0384
     20 C          14.3472   36.8113   11.8502 C.3     1  UNL1        0.2525
     21 O          15.0069   38.0632   11.9820 O.3     1  UNL1       -0.4714
     22 C           7.4272   41.9416    9.7844 C.2     1  UNL1        0.2495
     23 O           7.9131   42.8216   10.5458 O.2     1  UNL1       -0.2698
     24 N           8.1948   41.4184    8.6896 N.am    1  UNL1       -0.2804
     25 H           7.7347   40.7870    8.0905 H       1  UNL1        0.1552
     26 C           6.0559   41.4531   10.0140 C.ar    1  UNL1        0.0537
     27 C           5.1332   41.4092    8.9584 C.ar    1  UNL1        0.0045
     28 C           3.8342   40.9395    9.1738 C.ar    1  UNL1        0.0001
     29 C           3.4482   40.5105   10.4466 C.ar    1  UNL1        0.0000
     30 C           4.3605   40.5514   11.5042 C.ar    1  UNL1        0.0001
     31 C           5.6593   41.0217   11.2891 C.ar    1  UNL1        0.0045
@<TRIPOS>BOND
     1    20    21    1
     2    14    21    1
     3    15    16   ar
     4    17    18   ar
     5    17     9    1
     6    19    14   ar
     7     7    12    1
     8     8     1    1
     9     8     9   ar
    10     2     3   ar
    11     4    24    1
    12     4     5   ar
    13    22    26    1
    14    27    28   ar
    15    29    30   ar
    16    31    26   ar
    17     6     1   ar
    18     9     7   ar
    19    10    11   ar
    20    24    22   am
    21    14    15   ar
    22    16    17   ar
    23    18    19   ar
    24     7    10   ar
    25     8    11   ar
    26     1     2   ar
    27     3     4   ar
    28    22    23    2
    29    26    27   ar
    30    28    29   ar
    31    30    31   ar
    32     5     6   ar
    33    24    25    1
    34    12    13    1
@<TRIPOS>MOLECULE
MolPort-000-013-326 6157221 CSSS03436552883 MCULE-8216926894 ZINC000006157221 ZINC06157221
 31 34 0 0 0
SMALL
GASTEIGER

@<TRIPOS>ATOM
      1 C          15.2047   43.0414    7.0691 C.ar    1  UNL1        0.0364
      2 C          14.1141   42.5282    7.7843 C.ar    1  UNL1        0.0043
      3 C          13.0866   41.8499    7.1229 C.ar    1  UNL1        0.0148
      4 C          13.1392   41.6634    5.7386 C.ar    1  UNL1        0.0505
      5 C          14.2354   42.1638    5.0213 C.ar    1  UNL1        0.0148
      6 C          15.2620   42.8429    5.6830 C.ar    1  UNL1        0.0043
      7 C          18.1030   44.1967    8.7942 C.ar    1  UNL1        0.1934
      8 C          16.3179   43.7356    7.7528 C.ar    1  UNL1        0.1706
      9 N          17.3329   43.1506    8.4327 N.ar    1  UNL1       -0.2692
     10 N          17.5881   45.3635    8.3678 N.ar    1  UNL1       -0.1220
     11 N          16.4733   45.0752    7.7124 N.ar    1  UNL1       -0.1279
     12 S          19.5773   44.0887    9.8062 S.3     1  UNL1       -0.1031
     13 H          19.8480   42.7833   10.0751 H       1  UNL1        0.1101
     14 C          17.8102   39.0828    9.5519 C.ar    1  UNL1        0.1388
     15 C          18.7620   39.7072    8.7296 C.ar    1  UNL1        0.0384
     16 C          18.6066   41.0463    8.3633 C.ar    1  UNL1        0.0207
     17 C          17.5015   41.7783    8.8182 C.ar    1  UNL1        0.0674
     18 C          16.5476   41.1523    9.6311 C.ar    1  UNL1        0.0207
     19 C          16.7039   39.8127    9.9976 C.ar    1  UNL1        0.0384
     20 C          16.9032   36.7902    9.7520 C.3     1  UNL1        0.2525
     21 O          17.9387   37.7458    9.9379 O.3     1  UNL1       -0.4714
     22 C          11.0079   40.2343    5.7318 C.2     1  UNL1        0.2495
     23 O          10.9145   40.2071    6.9891 O.2     1  UNL1       -0.2698
     24 N          12.0590   40.9755    5.0934 N.am    1  UNL1       -0.2804
     25 H          12.0356   41.0157    4.1100 H       1  UNL1        0.1552
     26 C          10.0240   39.5073    4.9102 C.ar    1  UNL1        0.0537
     27 C           9.6976   39.9650    3.6251 C.ar    1  UNL1        0.0045
     28 C           8.7694   39.2721    2.8423 C.ar    1  UNL1        0.0001
     29 C           8.1605   38.1165    3.3391 C.ar    1  UNL1        0.0000
     30 C           8.4790   37.6536    4.6184 C.ar    1  UNL1        0.0001
     31 C           9.4066   38.3468    5.4016 C.ar    1  UNL1        0.0045
@<TRIPOS>BOND
     1    20    21    1
     2    14    21    1
     3    15    16   ar
     4    17    18   ar
     5    17     9    1
     6    19    14   ar
     7     7    12    1
     8     8     1    1
     9     8     9   ar
    10     2     3   ar
    11     4    24    1
    12     4     5   ar
    13    22    26    1
    14    27    28   ar
    15    29    30   ar
    16    31    26   ar
    17     6     1   ar
    18     9     7   ar
    19    10    11   ar
    20    24    22   am
    21    14    15   ar
    22    16    17   ar
    23    18    19   ar
    24     7    10   ar
    25     8    11   ar
    26     1     2   ar
    27     3     4   ar
    28    22    23    2
    29    26    27   ar
    30    28    29   ar
    31    30    31   ar
    32     5     6   ar
    33    24    25    1
    34    12    13    1
@<TRIPOS>MOLECULE
MolPort-000-013-326 6157221 CSSS03436552883 MCULE-8216926894 ZINC000006157221 ZINC06157221
 31 34 0 0 0
SMALL
GASTEIGER

@<TRIPOS>ATOM
      1 C           9.4633   41.3670    7.3838 C.ar    1  UNL1        0.0364
      2 C          10.0581   42.3259    8.2150 C.ar    1  UNL1        0.0043
      3 C          11.4369   42.5489    8.1688 C.ar    1  UNL1        0.0148
      4 C          12.2408   41.8260    7.2827 C.ar    1  UNL1        0.0505
      5 C          11.6474   40.8751    6.4400 C.ar    1  UNL1        0.0148
      6 C          10.2688   40.6517    6.4873 C.ar    1  UNL1        0.0043
      7 C           5.9625   40.9930    7.9453 C.ar    1  UNL1        0.1934
      8 C           8.0021   41.1363    7.3945 C.ar    1  UNL1        0.1706
      9 N           7.1838   41.2168    8.4710 N.ar    1  UNL1       -0.2692
     10 N           6.0240   40.7787    6.6192 N.ar    1  UNL1       -0.1220
     11 N           7.2996   40.8724    6.2733 N.ar    1  UNL1       -0.1279
     12 S           4.4413   40.8838    8.8852 S.3     1  UNL1       -0.1031
     13 H           4.6969   41.1512   10.1940 H       1  UNL1        0.1101
     14 C           8.1497   41.6038   12.5874 C.ar    1  UNL1        0.1388
     15 C           9.1300   41.2041   11.6648 C.ar    1  UNL1        0.0384
     16 C           8.8131   41.0792   10.3099 C.ar    1  UNL1        0.0207
     17 C           7.5151   41.3568    9.8605 C.ar    1  UNL1        0.0674
     18 C           6.5353   41.7466   10.7829 C.ar    1  UNL1        0.0207
     19 C           6.8529   41.8719   12.1381 C.ar    1  UNL1        0.0384
     20 C           9.4172   40.9533   14.6095 C.3     1  UNL1        0.2525
     21 O           8.4358   41.7405   13.9484 O.3     1  UNL1       -0.4714
     22 C          14.3235   43.2196    6.7305 C.2     1  UNL1        0.2495
     23 O          13.6625   44.1881    6.2664 O.2     1  UNL1       -0.2698
     24 N          13.6535   42.0722    7.2747 N.am    1  UNL1       -0.2804
     25 H          14.2235   41.3825    7.6853 H       1  UNL1        0.1552
     26 C          15.7963   43.2701    6.7235 C.ar    1  UNL1        0.0537
     27 C          16.4792   43.8836    5.6629 C.ar    1  UNL1        0.0045
     28 C          17.8762   43.9379    5.6587 C.ar    1  UNL1        0.0001
     29 C          18.6005   43.3789    6.7151 C.ar    1  UNL1        0.0000
     30 C          17.9286   42.7652    7.7754 C.ar    1  UNL1        0.0001
     31 C          16.5317   42.7101    7.7794 C.ar    1  UNL1        0.0045
@<TRIPOS>BOND
     1    20    21    1
     2    14    21    1
     3    15    16   ar
     4    17    18   ar
     5    17     9    1
     6    19    14   ar
     7     7    12    1
     8     8     1    1
     9     8     9   ar
    10     2     3   ar
    11     4    24    1
    12     4     5   ar
    13    22    26    1
    14    27    28   ar
    15    29    30   ar
    16    31    26   ar
    17     6     1   ar
    18     9     7   ar
    19    10    11   ar
    20    24    22   am
    21    14    15   ar
    22    16    17   ar
    23    18    19   ar
    24     7    10   ar
    25     8    11   ar
    26     1     2   ar
    27     3     4   ar
    28    22    23    2
    29    26    27   ar
    30    28    29   ar
    31    30    31   ar
    32     5     6   ar
    33    24    25    1
    34    12    13    1
@<TRIPOS>MOLECULE
MolPort-000-013-326 6157221 CSSS03436552883 MCULE-8216926894 ZINC000006157221 ZINC06157221
 31 34 0 0 0
SMALL
GASTEIGER

@<TRIPOS>ATOM
      1 C           7.1448   41.1706    7.1562 C.ar    1  UNL1        0.0364
      2 C           7.9735   40.8878    6.0619 C.ar    1  UNL1        0.0043
      3 C           7.5504   40.0126    5.0579 C.ar    1  UNL1        0.0148
      4 C           6.2880   39.4162    5.1257 C.ar    1  UNL1        0.0505
      5 C           5.4506   39.7070    6.2124 C.ar    1  UNL1        0.0148
      6 C           5.8746   40.5815    7.2166 C.ar    1  UNL1        0.0043
      7 C           8.6431   43.1821    9.6900 C.ar    1  UNL1        0.1934
      8 C           7.5602   42.1174    8.2143 C.ar    1  UNL1        0.1706
      9 N           8.7182   42.0805    8.9161 N.ar    1  UNL1       -0.2692
     10 N           7.4988   43.8575    9.4832 N.ar    1  UNL1       -0.1220
     11 N           6.8228   43.1940    8.5568 N.ar    1  UNL1       -0.1279
     12 S           9.8509   43.6571   10.9249 S.3     1  UNL1       -0.1031
     13 H          10.8952   42.7863   10.8961 H       1  UNL1        0.1101
     14 C          11.7240   39.0849    9.0528 C.ar    1  UNL1        0.1388
     15 C          10.7158   39.1212   10.0296 C.ar    1  UNL1        0.0384
     16 C           9.7252   40.1051    9.9834 C.ar    1  UNL1        0.0207
     17 C           9.7275   41.0608    8.9584 C.ar    1  UNL1        0.0674
     18 C          10.7389   41.0296    7.9895 C.ar    1  UNL1        0.0207
     19 C          11.7294   40.0447    8.0359 C.ar    1  UNL1        0.0384
     20 C          13.7572   38.0540    8.0924 C.3     1  UNL1        0.2525
     21 O          12.7272   38.1121    9.0700 O.3     1  UNL1       -0.4714
     22 C           4.5601   38.2695    3.6143 C.2     1  UNL1        0.2495
     23 O           3.5909   38.9413    4.0609 O.2     1  UNL1       -0.2698
     24 N           5.8950   38.5121    4.0843 N.am    1  UNL1       -0.2804
     25 H           6.6158   38.0047    3.6458 H       1  UNL1        0.1552
     26 C           4.3223   37.2334    2.5936 C.ar    1  UNL1        0.0537
     27 C           3.6247   36.0617    2.9225 C.ar    1  UNL1        0.0045
     28 C           3.3927   35.0813    1.9533 C.ar    1  UNL1        0.0001
     29 C           3.8567   35.2653    0.6481 C.ar    1  UNL1        0.0000
     30 C           4.5531   36.4290    0.3116 C.ar    1  UNL1        0.0001
     31 C           4.7859   37.4092    1.2808 C.ar    1  UNL1        0.0045
@<TRIPOS>BOND
     1    20    21    1
     2    14    21    1
     3    15    16   ar
     4    17    18   ar
     5    17     9    1
     6    19    14   ar
     7     7    12    1
     8     8     1    1
     9     8     9   ar
    10     2     3   ar
    11     4    24    1
    12     4     5   ar
    13    22    26    1
    14    27    28   ar
    15    29    30   ar
    16    31    26   ar
    17     6     1   ar
    18     9     7   ar
    19    10    11   ar
    20    24    22   am
    21    14    15   ar
    22    16    17   ar
    23    18    19   ar
    24     7    10   ar
    25     8    11   ar
    26     1     2   ar
    27     3     4   ar
    28    22    23    2
    29    26    27   ar
    30    28    29   ar
    31    30    31   ar
    32     5     6   ar
    33    24    25    1
    34    12    13    1
@<TRIPOS>MOLECULE
MolPort-000-013-326 6157221 CSSS03436552883 MCULE-8216926894 ZINC000006157221 ZINC06157221
 31 34 0 0 0
SMALL
GASTEIGER

@<TRIPOS>ATOM
      1 C          10.2552   40.1938    6.8911 C.ar    1  UNL1        0.0364
      2 C          10.6340   41.3626    6.2168 C.ar    1  UNL1        0.0043
      3 C          11.8707   41.9612    6.4726 C.ar    1  UNL1        0.0148
      4 C          12.7529   41.3944    7.3970 C.ar    1  UNL1        0.0505
      5 C          12.3829   40.2176    8.0640 C.ar    1  UNL1        0.0148
      6 C          11.1457   39.6200    7.8086 C.ar    1  UNL1        0.0043
      7 C           6.9251   39.1083    6.2257 C.ar    1  UNL1        0.1934
      8 C           8.9643   39.5268    6.6135 C.ar    1  UNL1        0.1706
      9 N           7.7445   40.1154    6.5894 N.ar    1  UNL1       -0.2692
     10 N           7.6002   37.9598    6.0428 N.ar    1  UNL1       -0.1220
     11 N           8.8768   38.2221    6.2812 N.ar    1  UNL1       -0.1279
     12 S           5.1422   39.2273    6.0964 S.3     1  UNL1       -0.1031
     13 H           4.7552   40.5095    6.3323 H       1  UNL1        0.1101
     14 C           6.6436   44.0390    7.7813 C.ar    1  UNL1        0.1388
     15 C           6.9187   43.7598    6.4329 C.ar    1  UNL1        0.0384
     16 C           7.2785   42.4683    6.0400 C.ar    1  UNL1        0.0207
     17 C           7.3626   41.4402    6.9886 C.ar    1  UNL1        0.0674
     18 C           7.0969   41.7215    8.3350 C.ar    1  UNL1        0.0207
     19 C           6.7366   43.0136    8.7274 C.ar    1  UNL1        0.0384
     20 C           5.0051   45.8863    7.9284 C.3     1  UNL1        0.2525
     21 O           6.2787   45.3197    8.2054 O.3     1  UNL1       -0.4714
     22 C          14.7903   42.7888    6.6978 C.2     1  UNL1        0.2495
     23 O          14.3582   43.0002    5.5321 O.2     1  UNL1       -0.2698
     24 N          14.0064   42.0456    7.6437 N.am    1  UNL1       -0.2804
     25 H          14.3671   41.9759    8.5570 H       1  UNL1        0.1552
     26 C          16.1070   43.3176    7.0959 C.ar    1  UNL1        0.0537
     27 C          16.9722   43.8614    6.1351 C.ar    1  UNL1        0.0045
     28 C          18.2186   44.3695    6.5129 C.ar    1  UNL1        0.0001
     29 C          18.6090   44.3373    7.8544 C.ar    1  UNL1        0.0000
     30 C          17.7538   43.7969    8.8182 C.ar    1  UNL1        0.0001
     31 C          16.5077   43.2881    8.4405 C.ar    1  UNL1        0.0045
@<TRIPOS>BOND
     1    20    21    1
     2    14    21    1
     3    15    16   ar
     4    17    18   ar
     5    17     9    1
     6    19    14   ar
     7     7    12    1
     8     8     1    1
     9     8     9   ar
    10     2     3   ar
    11     4    24    1
    12     4     5   ar
    13    22    26    1
    14    27    28   ar
    15    29    30   ar
    16    31    26   ar
    17     6     1   ar
    18     9     7   ar
    19    10    11   ar
    20    24    22   am
    21    14    15   ar
    22    16    17   ar
    23    18    19   ar
    24     7    10   ar
    25     8    11   ar
    26     1     2   ar
    27     3     4   ar
    28    22    23    2
    29    26    27   ar
    30    28    29   ar
    31    30    31   ar
    32     5     6   ar
    33    24    25    1
    34    12    13    1
@<TRIPOS>MOLECULE
MolPort-000-013-326 6157221 CSSS03436552883 MCULE-8216926894 ZINC000006157221 ZINC06157221
 31 34 0 0 0
SMALL
GASTEIGER

@<TRIPOS>ATOM
      1 C          10.5141   40.7312   10.7111 C.ar    1  UNL1        0.0364
      2 C           9.8669   40.9686   11.9314 C.ar    1  UNL1        0.0043
      3 C           8.5061   41.2852   11.9641 C.ar    1  UNL1        0.0148
      4 C           7.7684   41.3574   10.7790 C.ar    1  UNL1        0.0505
      5 C           8.4094   41.1075    9.5570 C.ar    1  UNL1        0.0148
      6 C           9.7704   40.7919    9.5248 C.ar    1  UNL1        0.0043
      7 C          13.9372   40.0008   10.0333 C.ar    1  UNL1        0.1934
      8 C          11.9462   40.3646   10.6557 C.ar    1  UNL1        0.1706
      9 N          12.7187   40.3081    9.5445 N.ar    1  UNL1       -0.2692
     10 N          13.9166   39.8673   11.3713 N.ar    1  UNL1       -0.1220
     11 N          12.6719   40.0991   11.7617 N.ar    1  UNL1       -0.1279
     12 S          15.3979   39.6975    9.0414 S.3     1  UNL1       -0.1031
     13 H          15.1086   39.9143    7.7304 H       1  UNL1        0.1101
     14 C          11.5654   40.5865    5.4678 C.ar    1  UNL1        0.1388
     15 C          12.1710   41.6796    6.1084 C.ar    1  UNL1        0.0384
     16 C          12.5529   41.5874    7.4490 C.ar    1  UNL1        0.0207
     17 C          12.3389   40.4009    8.1634 C.ar    1  UNL1        0.0674
     18 C          11.7264   39.3139    7.5263 C.ar    1  UNL1        0.0207
     19 C          11.3450   39.4065    6.1850 C.ar    1  UNL1        0.0384
     20 C          10.3269   39.6740    3.5307 C.3     1  UNL1        0.2525
     21 O          11.1745   40.6464    4.1274 O.3     1  UNL1       -0.4714
     22 C           5.3390   40.9463   11.4957 C.2     1  UNL1        0.2495
     23 O           5.6147   39.9065   12.1538 O.2     1  UNL1       -0.2698
     24 N           6.3778   41.6997   10.8515 N.am    1  UNL1       -0.2804
     25 H           6.1070   42.5390   10.4139 H       1  UNL1        0.1552
     26 C           3.9398   41.3978   11.3952 C.ar    1  UNL1        0.0537
     27 C           3.2830   41.3995   10.1558 C.ar    1  UNL1        0.0045
     28 C           1.9535   41.8212   10.0606 C.ar    1  UNL1        0.0001
     29 C           1.2711   42.2445   11.2043 C.ar    1  UNL1        0.0000
     30 C           1.9175   42.2467   12.4431 C.ar    1  UNL1        0.0001
     31 C           3.2472   41.8258   12.5383 C.ar    1  UNL1        0.0045
@<TRIPOS>BOND
     1    20    21    1
     2    14    21    1
     3    15    16   ar
     4    17    18   ar
     5    17     9    1
     6    19    14   ar
     7     7    12    1
     8     8     1    1
     9     8     9   ar
    10     2     3   ar
    11     4    24    1
    12     4     5   ar
    13    22    26    1
    14    27    28   ar
    15    29    30   ar
    16    31    26   ar
    17     6     1   ar
    18     9     7   ar
    19    10    11   ar
    20    24    22   am
    21    14    15   ar
    22    16    17   ar
    23    18    19   ar
    24     7    10   ar
    25     8    11   ar
    26     1     2   ar
    27     3     4   ar
    28    22    23    2
    29    26    27   ar
    30    28    29   ar
    31    30    31   ar
    32     5     6   ar
    33    24    25    1
    34    12    13    1
@<TRIPOS>MOLECULE
MolPort-000-013-326 6157221 CSSS03436552883 MCULE-8216926894 ZINC000006157221 ZINC06157221
 31 34 0 0 0
SMALL
GASTEIGER

@<TRIPOS>ATOM
      1 C           8.3677   43.0079    8.5757 C.ar    1  UNL1        0.0364
      2 C           9.1620   43.5834    9.5768 C.ar    1  UNL1        0.0043
      3 C          10.2744   42.9032   10.0797 C.ar    1  UNL1        0.0148
      4 C          10.6173   41.6430    9.5815 C.ar    1  UNL1        0.0505
      5 C           9.8326   41.0696    8.5705 C.ar    1  UNL1        0.0148
      6 C           8.7198   41.7498    8.0686 C.ar    1  UNL1        0.0043
      7 C           5.2856   44.5519    7.6661 C.ar    1  UNL1        0.1934
      8 C           7.2039   43.7232    8.0076 C.ar    1  UNL1        0.1706
      9 N           5.9344   43.6940    8.4791 N.ar    1  UNL1       -0.2692
     10 N           6.1070   45.0758    6.7392 N.ar    1  UNL1       -0.1220
     11 N           7.3085   44.5608    6.9552 N.ar    1  UNL1       -0.1279
     12 S           3.5275   44.8923    7.7209 S.3     1  UNL1       -0.1031
     13 H           2.9685   44.2229    8.7645 H       1  UNL1        0.1101
     14 C           4.2177   41.2042   11.4592 C.ar    1  UNL1        0.1388
     15 C           5.6101   41.2370   11.2801 C.ar    1  UNL1        0.0384
     16 C           6.1754   42.0580   10.3014 C.ar    1  UNL1        0.0207
     17 C           5.3569   42.8593    9.4940 C.ar    1  UNL1        0.0674
     18 C           3.9672   42.8193    9.6670 C.ar    1  UNL1        0.0207
     19 C           3.4023   41.9981   10.6466 C.ar    1  UNL1        0.0384
     20 C           3.0860   39.1122   12.1386 C.3     1  UNL1        0.2525
     21 O           3.6220   40.3957   12.4310 O.3     1  UNL1       -0.4714
     22 C          13.0484   40.8240    9.5227 C.2     1  UNL1        0.2495
     23 O          13.3060   41.3872    8.4243 O.2     1  UNL1       -0.2698
     24 N          11.7569   40.9695   10.1330 N.am    1  UNL1       -0.2804
     25 H          11.6416   40.5647   11.0230 H       1  UNL1        0.1552
     26 C          14.0851   40.0175   10.1910 C.ar    1  UNL1        0.0537
     27 C          13.7930   39.3320   11.3794 C.ar    1  UNL1        0.0045
     28 C          14.7739   38.5612   12.0105 C.ar    1  UNL1        0.0001
     29 C          16.0542   38.4704   11.4577 C.ar    1  UNL1        0.0000
     30 C          16.3543   39.1503   10.2745 C.ar    1  UNL1        0.0001
     31 C          15.3738   39.9218    9.6438 C.ar    1  UNL1        0.0045
@<TRIPOS>BOND
     1    20    21    1
     2    14    21    1
     3    15    16   ar
     4    17    18   ar
     5    17     9    1
     6    19    14   ar
     7     7    12    1
     8     8     1    1
     9     8     9   ar
    10     2     3   ar
    11     4    24    1
    12     4     5   ar
    13    22    26    1
    14    27    28   ar
    15    29    30   ar
    16    31    26   ar
    17     6     1   ar
    18     9     7   ar
    19    10    11   ar
    20    24    22   am
    21    14    15   ar
    22    16    17   ar
    23    18    19   ar
    24     7    10   ar
    25     8    11   ar
    26     1     2   ar
    27     3     4   ar
    28    22    23    2
    29    26    27   ar
    30    28    29   ar
    31    30    31   ar
    32     5     6   ar
    33    24    25    1
    34    12    13    1
@<TRIPOS>MOLECULE
MolPort-000-013-326 6157221 CSSS03436552883 MCULE-8216926894 ZINC000006157221 ZINC06157221
 31 34 0 0 0
SMALL
GASTEIGER

@<TRIPOS>ATOM
      1 C          12.1148   39.8484   10.2554 C.ar    1  UNL1        0.0364
      2 C          11.5893   40.8237   11.1138 C.ar    1  UNL1        0.0043
      3 C          10.3168   41.3564   10.8896 C.ar    1  UNL1        0.0148
      4 C           9.5451   40.9137    9.8114 C.ar    1  UNL1        0.0505
      5 C          10.0621   39.9283    8.9580 C.ar    1  UNL1        0.0148
      6 C          11.3349   39.3968    9.1821 C.ar    1  UNL1        0.0043
      7 C          15.5270   38.8613   10.5597 C.ar    1  UNL1        0.1934
      8 C          13.4465   39.2491   10.4917 C.ar    1  UNL1        0.1706
      9 N          14.6278   39.6986   10.0045 N.ar    1  UNL1       -0.2692
     10 N          14.9334   37.9412   11.3404 N.ar    1  UNL1       -0.1220
     11 N          13.6319   38.1861   11.3016 N.ar    1  UNL1       -0.1279
     12 S          17.2887   38.8800   10.2348 S.3     1  UNL1       -0.1031
     13 H          17.5875   39.9236    9.4155 H       1  UNL1        0.1101
     14 C          15.3987   42.6866    7.0882 C.ar    1  UNL1        0.1388
     15 C          14.1475   42.0510    7.1369 C.ar    1  UNL1        0.0384
     16 C          13.8927   41.0697    8.0979 C.ar    1  UNL1        0.0207
     17 C          14.8828   40.7156    9.0243 C.ar    1  UNL1        0.0674
     18 C          16.1339   41.3436    8.9694 C.ar    1  UNL1        0.0207
     19 C          16.3882   42.3256    8.0080 C.ar    1  UNL1        0.0384
     20 C          16.7439   44.6067    6.2993 C.3     1  UNL1        0.2525
     21 O          15.6836   43.6737    6.1408 O.3     1  UNL1       -0.4714
     22 C           7.8515   42.3423    8.5169 C.2     1  UNL1        0.2495
     23 O           8.6441   42.5801    7.5653 O.2     1  UNL1       -0.2698
     24 N           8.2503   41.4946    9.6050 N.am    1  UNL1       -0.2804
     25 H           7.5631   41.2909   10.2799 H       1  UNL1        0.1552
     26 C           6.5007   42.9313    8.5073 C.ar    1  UNL1        0.0537
     27 C           5.4653   42.3417    9.2474 C.ar    1  UNL1        0.0045
     28 C           4.1852   42.9037    9.2444 C.ar    1  UNL1        0.0001
     29 C           3.9311   44.0594    8.5009 C.ar    1  UNL1        0.0000
     30 C           4.9563   44.6531    7.7600 C.ar    1  UNL1        0.0001
     31 C           6.2362   44.0909    7.7624 C.ar    1  UNL1        0.0045
@<TRIPOS>BOND
     1    20    21    1
     2    14    21    1
     3    15    16   ar
     4    17    18   ar
     5    17     9    1
     6    19    14   ar
     7     7    12    1
     8     8     1    1
     9     8     9   ar
    10     2     3   ar
    11     4    24    1
    12     4     5   ar
    13    22    26    1
    14    27    28   ar
    15    29    30   ar
    16    31    26   ar
    17     6     1   ar
    18     9     7   ar
    19    10    11   ar
    20    24    22   am
    21    14    15   ar
    22    16    17   ar
    23    18    19   ar
    24     7    10   ar
    25     8    11   ar
    26     1     2   ar
    27     3     4   ar
    28    22    23    2
    29    26    27   ar
    30    28    29   ar
    31    30    31   ar
    32     5     6   ar
    33    24    25    1
    34    12    13    1
@<TRIPOS>MOLECULE
MolPort-000-013-326 6157221 CSSS03436552883 MCULE-8216926894 ZINC000006157221 ZINC06157221
 31 34 0 0 0
SMALL
GASTEIGER

@<TRIPOS>ATOM
      1 C          10.1342   40.4689   10.4789 C.ar    1  UNL1        0.0364
      2 C          10.5484   39.1771   10.1270 C.ar    1  UNL1        0.0043
      3 C          10.6706   38.8115    8.7837 C.ar    1  UNL1        0.0148
      4 C          10.3927   39.7347    7.7716 C.ar    1  UNL1        0.0505
      5 C           9.9908   41.0323    8.1198 C.ar    1  UNL1        0.0148
      6 C           9.8678   41.3970    9.4632 C.ar    1  UNL1        0.0043
      7 C           9.3179   41.4534   13.8068 C.ar    1  UNL1        0.1934
      8 C          10.0277   40.8864   11.8941 C.ar    1  UNL1        0.1706
      9 N           8.8916   41.2286   12.5475 N.ar    1  UNL1       -0.2692
     10 N          10.6447   41.2678   13.9228 N.ar    1  UNL1       -0.1220
     11 N          11.0887   40.9089   12.7272 N.ar    1  UNL1       -0.1279
     12 S           8.2884   42.0305   15.1546 S.3     1  UNL1       -0.1031
     13 H           6.9980   42.1183   14.7340 H       1  UNL1        0.1101
     14 C           4.9783   41.8935   11.0405 C.ar    1  UNL1        0.1388
     15 C           5.9998   42.8249   10.7933 C.ar    1  UNL1        0.0384
     16 C           7.2881   42.6051   11.2869 C.ar    1  UNL1        0.0207
     17 C           7.5719   41.4503   12.0285 C.ar    1  UNL1        0.0674
     18 C           6.5501   40.5261   12.2824 C.ar    1  UNL1        0.0207
     19 C           5.2616   40.7462   11.7880 C.ar    1  UNL1        0.0384
     20 C           3.4054   42.7618    9.3401 C.3     1  UNL1        0.2525
     21 O           3.6804   42.0833   10.5583 O.3     1  UNL1       -0.4714
     22 C           9.4552   38.8783    5.5417 C.2     1  UNL1        0.2495
     23 O           8.2561   38.9100    5.9308 O.2     1  UNL1       -0.2698
     24 N          10.5150   39.3181    6.4049 N.am    1  UNL1       -0.2804
     25 H          11.4201   39.3354    6.0181 H       1  UNL1        0.1552
     26 C           9.7708   38.3950    4.1857 C.ar    1  UNL1        0.0537
     27 C           9.9753   37.0274    3.9506 C.ar    1  UNL1        0.0045
     28 C          10.2680   36.5672    2.6634 C.ar    1  UNL1        0.0001
     29 C          10.3585   37.4715    1.6017 C.ar    1  UNL1        0.0000
     30 C          10.1570   38.8358    1.8267 C.ar    1  UNL1        0.0001
     31 C           9.8650   39.2961    3.1141 C.ar    1  UNL1        0.0045
@<TRIPOS>BOND
     1    20    21    1
     2    14    21    1
     3    15    16   ar
     4    17    18   ar
     5    17     9    1
     6    19    14   ar
     7     7    12    1
     8     8     1    1
     9     8     9   ar
    10     2     3   ar
    11     4    24    1
    12     4     5   ar
    13    22    26    1
    14    27    28   ar
    15    29    30   ar
    16    31    26   ar
    17     6     1   ar
    18     9     7   ar
    19    10    11   ar
    20    24    22   am
    21    14    15   ar
    22    16    17   ar
    23    18    19   ar
    24     7    10   ar
    25     8    11   ar
    26     1     2   ar
    27     3     4   ar
    28    22    23    2
    29    26    27   ar
    30    28    29   ar
    31    30    31   ar
    32     5     6   ar
    33    24    25    1
    34    12    13    1
