@<TRIPOS>MOLECULE
MolPort-003-020-514 16991800 CSSS03437211695 LN01391658 PubChem-16813897 ZINC000016991800
 30 33 0 0 0
SMALL
GASTEIGER

@<TRIPOS>ATOM
      1 C          11.6471   40.3634   10.6075 C.3     1  UNL1        0.0320
      2 C          10.7153   40.9973    9.6273 C.ar    1  UNL1       -0.0081
      3 C          10.9554   41.0210    8.2554 C.ar    1  UNL1        0.0096
      4 C           8.7918   42.0919    8.8857 C.ar    1  UNL1        0.0901
      5 C           9.4940   41.5946    9.9874 C.ar    1  UNL1        0.0843
      6 S           9.6513   41.7504    7.4832 S.2     1  UNL1       -0.0759
      7 C           6.8625   43.2999    7.7534 C.2     1  UNL1        0.2500
      8 O           7.2944   43.0781    6.5905 O.2     1  UNL1       -0.2698
      9 N           7.4881   42.6861    8.8832 N.am    1  UNL1       -0.2749
     10 H           6.9821   42.6705    9.7276 H       1  UNL1        0.1557
     11 C           5.6293   44.0736    7.9681 C.2     1  UNL1        0.0581
     12 C           4.6054   43.7680    8.7765 C.2     1  UNL1        0.0047
     13 C           4.3951   42.5237    9.5370 C.ar    1  UNL1        0.0001
     14 C           5.1973   42.2842   10.6585 C.ar    1  UNL1        0.0000
     15 C           4.9890   41.1489   11.4479 C.ar    1  UNL1        0.0000
     16 C           3.9627   40.2552   11.1297 C.ar    1  UNL1        0.0000
     17 C           3.1396   40.5016   10.0277 C.ar    1  UNL1        0.0000
     18 C           3.3490   41.6374    9.2402 C.ar    1  UNL1        0.0000
     19 C           8.9822   41.5755   11.3355 C.1     1  UNL1        0.1019
     20 N           8.5738   41.5554   12.4180 N.1     1  UNL1       -0.1908
     21 C          12.1209   40.4044    7.5526 C.3     1  UNL1        0.0590
     22 C          13.1911   41.4175    7.3260 C.ar    1  UNL1       -0.0141
     23 C          14.4378   41.2821    7.9783 C.ar    1  UNL1       -0.0006
     24 C          15.4494   42.2418    7.7929 C.ar    1  UNL1        0.0399
     25 C          15.1688   43.3164    6.9531 C.ar    1  UNL1        0.1764
     26 C          15.2552   45.2320    5.7225 C.3     1  UNL1        0.4294
     27 C          13.9706   43.4509    6.3291 C.ar    1  UNL1        0.1761
     28 C          12.9454   42.5223    6.4880 C.ar    1  UNL1        0.0363
     29 O          15.9848   44.3772    6.6143 O.3     1  UNL1       -0.4346
     30 O          13.9751   44.6028    5.5683 O.3     1  UNL1       -0.4346
@<TRIPOS>BOND
     1     1     2    1
     2     3     6   ar
     3    21     3    1
     4    21    22    1
     5    23    24   ar
     6    25    29    1
     7    26    29    1
     8    26    30    1
     9    27    30    1
    10    27    25   ar
    11    28    22   ar
    12     4     6   ar
    13     4     9    1
    14     7    11    1
    15    12    13    1
    16    14    15   ar
    17    16    17   ar
    18    18    13   ar
    19     5    19    1
    20     5     2   ar
    21     9     7   am
    22     2     3   ar
    23    22    23   ar
    24    24    25   ar
    25    27    28   ar
    26     4     5   ar
    27     7     8    2
    28    11    12    2
    29    13    14   ar
    30    15    16   ar
    31    17    18   ar
    32    19    20    3
    33     9    10    1
@<TRIPOS>MOLECULE
MolPort-003-020-514 16991800 CSSS03437211695 LN01391658 PubChem-16813897 ZINC000016991800
 30 33 0 0 0
SMALL
GASTEIGER

@<TRIPOS>ATOM
      1 C          11.0316   39.3179    6.3222 C.3     1  UNL1        0.0320
      2 C          10.5111   40.3846    7.2290 C.ar    1  UNL1       -0.0081
      3 C          11.3081   41.0475    8.1593 C.ar    1  UNL1        0.0096
      4 C           8.9519   41.8679    8.1325 C.ar    1  UNL1        0.0901
      5 C           9.1833   40.8473    7.2057 C.ar    1  UNL1        0.0843
      6 S          10.3862   42.2230    8.9321 S.2     1  UNL1       -0.0759
      7 C           7.1012   43.4096    7.3191 C.2     1  UNL1        0.2500
      8 O           7.3902   43.2545    6.1024 O.2     1  UNL1       -0.2698
      9 N           7.7430   42.6139    8.3189 N.am    1  UNL1       -0.2749
     10 H           7.3201   42.5756    9.2071 H       1  UNL1        0.1557
     11 C           6.0056   44.3026    7.7290 C.2     1  UNL1        0.0581
     12 C           5.0524   44.0590    8.6385 C.2     1  UNL1        0.0047
     13 C           4.7800   42.7954    9.3456 C.ar    1  UNL1        0.0001
     14 C           5.6785   42.3774   10.3338 C.ar    1  UNL1        0.0000
     15 C           5.4258   41.2192   11.0756 C.ar    1  UNL1        0.0000
     16 C           4.2611   40.4821   10.8452 C.ar    1  UNL1        0.0000
     17 C           3.3453   40.9080    9.8795 C.ar    1  UNL1        0.0000
     18 C           3.5994   42.0664    9.1395 C.ar    1  UNL1        0.0000
     19 C           8.2140   40.3928    6.2394 C.1     1  UNL1        0.1019
     20 N           7.4363   40.0329    5.4618 N.1     1  UNL1       -0.1908
     21 C          12.7725   40.8418    8.3729 C.3     1  UNL1        0.0590
     22 C          13.5612   41.8161    7.5656 C.ar    1  UNL1       -0.0141
     23 C          12.9451   42.5063    6.4969 C.ar    1  UNL1       -0.0006
     24 C          13.6816   43.4114    5.7115 C.ar    1  UNL1        0.0399
     25 C          15.0256   43.5904    6.0282 C.ar    1  UNL1        0.1764
     26 C          17.2045   44.2536    6.0934 C.3     1  UNL1        0.4294
     27 C          15.6207   42.9253    7.0514 C.ar    1  UNL1        0.1761
     28 C          14.9249   42.0220    7.8505 C.ar    1  UNL1        0.0363
     29 O          15.9503   44.4117    5.4149 O.3     1  UNL1       -0.4346
     30 O          16.9481   43.2958    7.1305 O.3     1  UNL1       -0.4346
@<TRIPOS>BOND
     1     1     2    1
     2     3     6   ar
     3    21     3    1
     4    21    22    1
     5    23    24   ar
     6    25    29    1
     7    26    29    1
     8    26    30    1
     9    27    30    1
    10    27    25   ar
    11    28    22   ar
    12     4     6   ar
    13     4     9    1
    14     7    11    1
    15    12    13    1
    16    14    15   ar
    17    16    17   ar
    18    18    13   ar
    19     5    19    1
    20     5     2   ar
    21     9     7   am
    22     2     3   ar
    23    22    23   ar
    24    24    25   ar
    25    27    28   ar
    26     4     5   ar
    27     7     8    2
    28    11    12    2
    29    13    14   ar
    30    15    16   ar
    31    17    18   ar
    32    19    20    3
    33     9    10    1
@<TRIPOS>MOLECULE
MolPort-003-020-514 16991800 CSSS03437211695 LN01391658 PubChem-16813897 ZINC000016991800
 30 33 0 0 0
SMALL
GASTEIGER

@<TRIPOS>ATOM
      1 C          12.1923   37.9805    8.4176 C.3     1  UNL1        0.0320
      2 C          11.5826   39.3264    8.6368 C.ar    1  UNL1       -0.0081
      3 C          12.2839   40.3992    9.1821 C.ar    1  UNL1        0.0096
      4 C           9.9376   40.9806    8.5639 C.ar    1  UNL1        0.0901
      5 C          10.2611   39.6503    8.2811 C.ar    1  UNL1        0.0843
      6 S          11.2871   41.7539    9.1991 S.2     1  UNL1       -0.0759
      7 C           8.3434   42.1595    6.9726 C.2     1  UNL1        0.2500
      8 O           8.9397   41.7541    5.9392 O.2     1  UNL1       -0.2698
      9 N           8.7132   41.6597    8.2603 N.am    1  UNL1       -0.2749
     10 H           8.0749   41.7931    8.9979 H       1  UNL1        0.1557
     11 C           7.1687   43.0403    6.8722 C.2     1  UNL1        0.0581
     12 C           6.1415   43.1300    7.7278 C.2     1  UNL1        0.0047
     13 C           5.8621   42.2775    8.8965 C.ar    1  UNL1        0.0001
     14 C           6.6662   42.4201   10.0331 C.ar    1  UNL1        0.0000
     15 C           6.3966   41.6791   11.1879 C.ar    1  UNL1        0.0000
     16 C           5.3076   40.8037   11.2182 C.ar    1  UNL1        0.0000
     17 C           4.4835   40.6761   10.0969 C.ar    1  UNL1        0.0000
     18 C           4.7543   41.4183    8.9437 C.ar    1  UNL1        0.0000
     19 C           9.3909   38.7326    7.5881 C.1     1  UNL1        0.1019
     20 N           8.6887   37.9974    7.0354 N.1     1  UNL1       -0.1908
     21 C          13.7220   40.3991    9.5876 C.3     1  UNL1        0.0590
     22 C          14.5245   41.2581    8.6704 C.ar    1  UNL1       -0.0141
     23 C          15.9094   41.4277    8.8969 C.ar    1  UNL1       -0.0006
     24 C          16.6755   42.2532    8.0541 C.ar    1  UNL1        0.0399
     25 C          16.0161   42.8884    7.0051 C.ar    1  UNL1        0.1764
     26 C          15.4715   44.1425    5.1824 C.3     1  UNL1        0.4294
     27 C          14.6852   42.7306    6.7883 C.ar    1  UNL1        0.1761
     28 C          13.8941   41.9224    7.6005 C.ar    1  UNL1        0.0363
     29 O          16.5390   43.7396    6.0522 O.3     1  UNL1       -0.4346
     30 O          14.3068   43.4751    5.6891 O.3     1  UNL1       -0.4346
@<TRIPOS>BOND
     1     1     2    1
     2     3     6   ar
     3    21     3    1
     4    21    22    1
     5    23    24   ar
     6    25    29    1
     7    26    29    1
     8    26    30    1
     9    27    30    1
    10    27    25   ar
    11    28    22   ar
    12     4     6   ar
    13     4     9    1
    14     7    11    1
    15    12    13    1
    16    14    15   ar
    17    16    17   ar
    18    18    13   ar
    19     5    19    1
    20     5     2   ar
    21     9     7   am
    22     2     3   ar
    23    22    23   ar
    24    24    25   ar
    25    27    28   ar
    26     4     5   ar
    27     7     8    2
    28    11    12    2
    29    13    14   ar
    30    15    16   ar
    31    17    18   ar
    32    19    20    3
    33     9    10    1
@<TRIPOS>MOLECULE
MolPort-003-020-514 16991800 CSSS03437211695 LN01391658 PubChem-16813897 ZINC000016991800
 30 33 0 0 0
SMALL
GASTEIGER

@<TRIPOS>ATOM
      1 C          12.6087   40.3760   10.6508 C.3     1  UNL1        0.0320
      2 C          11.2193   40.6024   10.1514 C.ar    1  UNL1       -0.0081
      3 C          10.8576   40.4510    8.8148 C.ar    1  UNL1        0.0096
      4 C           8.9382   41.0797   10.2798 C.ar    1  UNL1        0.0901
      5 C          10.1398   40.9510   10.9825 C.ar    1  UNL1        0.0843
      6 S           9.2040   40.7172    8.6609 S.2     1  UNL1       -0.0759
      7 C           6.4077   41.2482   10.1022 C.2     1  UNL1        0.2500
      8 O           6.3563   40.6117    9.0159 O.2     1  UNL1       -0.2698
      9 N           7.6392   41.3454   10.8224 N.am    1  UNL1       -0.2749
     10 H           7.5904   41.6168   11.7675 H       1  UNL1        0.1557
     11 C           5.1860   41.7821   10.7251 C.2     1  UNL1        0.0581
     12 C           4.3819   42.7430   10.2504 C.2     1  UNL1        0.0047
     13 C           4.5942   43.5964    9.0682 C.ar    1  UNL1        0.0001
     14 C           3.4847   44.2255    8.4922 C.ar    1  UNL1        0.0000
     15 C           3.6477   45.0960    7.4101 C.ar    1  UNL1        0.0000
     16 C           4.9262   45.3568    6.9094 C.ar    1  UNL1        0.0000
     17 C           6.0418   44.7541    7.4966 C.ar    1  UNL1        0.0000
     18 C           5.8769   43.8847    8.5788 C.ar    1  UNL1        0.0000
     19 C          10.2549   41.0397   12.4173 C.1     1  UNL1        0.1019
     20 N          10.3492   41.1159   13.5681 N.1     1  UNL1       -0.1908
     21 C          11.7535   40.0135    7.7020 C.3     1  UNL1        0.0590
     22 C          12.8049   41.0384    7.4428 C.ar    1  UNL1       -0.0141
     23 C          14.0734   40.9156    8.0542 C.ar    1  UNL1       -0.0006
     24 C          15.0681   41.8864    7.8379 C.ar    1  UNL1        0.0399
     25 C          14.7489   42.9591    7.0096 C.ar    1  UNL1        0.1764
     26 C          14.7748   44.8774    5.7803 C.3     1  UNL1        0.4294
     27 C          13.5298   43.0816    6.4248 C.ar    1  UNL1        0.1761
     28 C          12.5203   42.1417    6.6151 C.ar    1  UNL1        0.0363
     29 O          15.5420   44.0292    6.6465 O.3     1  UNL1       -0.4346
     30 O          13.4972   44.2346    5.6664 O.3     1  UNL1       -0.4346
@<TRIPOS>BOND
     1     1     2    1
     2     3     6   ar
     3    21     3    1
     4    21    22    1
     5    23    24   ar
     6    25    29    1
     7    26    29    1
     8    26    30    1
     9    27    30    1
    10    27    25   ar
    11    28    22   ar
    12     4     6   ar
    13     4     9    1
    14     7    11    1
    15    12    13    1
    16    14    15   ar
    17    16    17   ar
    18    18    13   ar
    19     5    19    1
    20     5     2   ar
    21     9     7   am
    22     2     3   ar
    23    22    23   ar
    24    24    25   ar
    25    27    28   ar
    26     4     5   ar
    27     7     8    2
    28    11    12    2
    29    13    14   ar
    30    15    16   ar
    31    17    18   ar
    32    19    20    3
    33     9    10    1
@<TRIPOS>MOLECULE
MolPort-003-020-514 16991800 CSSS03437211695 LN01391658 PubChem-16813897 ZINC000016991800
 30 33 0 0 0
SMALL
GASTEIGER

@<TRIPOS>ATOM
      1 C           7.5485   39.6251    6.7715 C.3     1  UNL1        0.0320
      2 C           8.6577   40.5976    7.0063 C.ar    1  UNL1       -0.0081
      3 C           8.8396   41.2663    8.2145 C.ar    1  UNL1        0.0096
      4 C          10.5850   41.8209    6.5200 C.ar    1  UNL1        0.0901
      5 C           9.6423   40.9022    6.0495 C.ar    1  UNL1        0.0843
      6 S          10.2287   42.2095    8.1152 S.2     1  UNL1       -0.0759
      7 C          12.7949   43.0746    6.4303 C.2     1  UNL1        0.2500
      8 O          12.9021   43.1474    7.6838 O.2     1  UNL1       -0.2698
      9 N          11.7571   42.2872    5.8408 N.am    1  UNL1       -0.2749
     10 H          11.8560   42.0460    4.8914 H       1  UNL1        0.1557
     11 C          13.8083   43.6747    5.5479 C.2     1  UNL1        0.0581
     12 C          15.1333   43.7209    5.7414 C.2     1  UNL1        0.0047
     13 C          15.8859   43.3136    6.9408 C.ar    1  UNL1        0.0001
     14 C          15.5809   42.0829    7.5331 C.ar    1  UNL1        0.0000
     15 C          16.3137   41.6262    8.6331 C.ar    1  UNL1        0.0000
     16 C          17.3699   42.3912    9.1355 C.ar    1  UNL1        0.0000
     17 C          17.6986   43.6081    8.5324 C.ar    1  UNL1        0.0000
     18 C          16.9653   44.0626    7.4325 C.ar    1  UNL1        0.0000
     19 C           9.7244   40.2359    4.7731 C.1     1  UNL1        0.1019
     20 N           9.7925   39.7057    3.7468 N.1     1  UNL1       -0.1908
     21 C           8.0128   41.1012    9.4481 C.3     1  UNL1        0.0590
     22 C           6.7119   41.8156    9.3057 C.ar    1  UNL1       -0.0141
     23 C           5.5311   41.2378    9.8251 C.ar    1  UNL1       -0.0006
     24 C           4.2927   41.8885    9.6786 C.ar    1  UNL1        0.0399
     25 C           4.2834   43.1073    9.0054 C.ar    1  UNL1        0.1764
     26 C           3.6942   45.0729    8.0152 C.3     1  UNL1        0.4294
     27 C           5.4156   43.6621    8.5017 C.ar    1  UNL1        0.1761
     28 C           6.6591   43.0483    8.6268 C.ar    1  UNL1        0.0363
     29 O           3.2087   43.9302    8.7341 O.3     1  UNL1       -0.4346
     30 O           5.1074   44.8601    7.8890 O.3     1  UNL1       -0.4346
@<TRIPOS>BOND
     1     1     2    1
     2     3     6   ar
     3    21     3    1
     4    21    22    1
     5    23    24   ar
     6    25    29    1
     7    26    29    1
     8    26    30    1
     9    27    30    1
    10    27    25   ar
    11    28    22   ar
    12     4     6   ar
    13     4     9    1
    14     7    11    1
    15    12    13    1
    16    14    15   ar
    17    16    17   ar
    18    18    13   ar
    19     5    19    1
    20     5     2   ar
    21     9     7   am
    22     2     3   ar
    23    22    23   ar
    24    24    25   ar
    25    27    28   ar
    26     4     5   ar
    27     7     8    2
    28    11    12    2
    29    13    14   ar
    30    15    16   ar
    31    17    18   ar
    32    19    20    3
    33     9    10    1
@<TRIPOS>MOLECULE
MolPort-003-020-514 16991800 CSSS03437211695 LN01391658 PubChem-16813897 ZINC000016991800
 30 33 0 0 0
SMALL
GASTEIGER

@<TRIPOS>ATOM
      1 C          13.6214   41.0887    6.8548 C.3     1  UNL1        0.0320
      2 C          12.4716   40.5213    7.6209 C.ar    1  UNL1       -0.0081
      3 C          12.5743   40.0976    8.9438 C.ar    1  UNL1        0.0096
      4 C          10.2686   39.8614    8.0199 C.ar    1  UNL1        0.0901
      5 C          11.1725   40.3957    7.0971 C.ar    1  UNL1        0.0843
      6 S          11.0602   39.5962    9.4779 S.2     1  UNL1       -0.0759
      7 C           8.2463   38.9908    6.7486 C.2     1  UNL1        0.2500
      8 O           8.9297   38.2284    6.0141 O.2     1  UNL1       -0.2698
      9 N           8.8590   39.6733    7.8456 N.am    1  UNL1       -0.2749
     10 H           8.2642   40.0439    8.5371 H       1  UNL1        0.1557
     11 C           6.7868   39.0887    6.5878 C.2     1  UNL1        0.0581
     12 C           6.0260   40.1858    6.7003 C.2     1  UNL1        0.0047
     13 C           6.4366   41.5279    7.1490 C.ar    1  UNL1        0.0001
     14 C           6.4621   41.7926    8.5230 C.ar    1  UNL1        0.0000
     15 C           6.9078   43.0305    8.9967 C.ar    1  UNL1        0.0000
     16 C           7.3490   44.0052    8.0976 C.ar    1  UNL1        0.0000
     17 C           7.3527   43.7386    6.7259 C.ar    1  UNL1        0.0000
     18 C           6.9074   42.5003    6.2543 C.ar    1  UNL1        0.0000
     19 C          10.8057   40.8853    5.7911 C.1     1  UNL1        0.1019
     20 N          10.5143   41.2826    4.7440 N.1     1  UNL1       -0.1908
     21 C          13.7946   40.1729    9.8026 C.3     1  UNL1        0.0590
     22 C          14.8518   40.9886    9.1393 C.ar    1  UNL1       -0.0141
     23 C          16.2105   40.6217    9.2719 C.ar    1  UNL1       -0.0006
     24 C          17.2211   41.3941    8.6713 C.ar    1  UNL1        0.0399
     25 C          16.8276   42.5211    7.9545 C.ar    1  UNL1        0.1764
     26 C          16.7607   44.4212    6.6989 C.3     1  UNL1        0.4294
     27 C          15.5236   42.8779    7.8296 C.ar    1  UNL1        0.1761
     28 C          14.4957   42.1391    8.4095 C.ar    1  UNL1        0.0363
     29 O          17.6192   43.4308    7.2824 O.3     1  UNL1       -0.4346
     30 O          15.4323   44.0292    7.0735 O.3     1  UNL1       -0.4346
@<TRIPOS>BOND
     1     1     2    1
     2     3     6   ar
     3    21     3    1
     4    21    22    1
     5    23    24   ar
     6    25    29    1
     7    26    29    1
     8    26    30    1
     9    27    30    1
    10    27    25   ar
    11    28    22   ar
    12     4     6   ar
    13     4     9    1
    14     7    11    1
    15    12    13    1
    16    14    15   ar
    17    16    17   ar
    18    18    13   ar
    19     5    19    1
    20     5     2   ar
    21     9     7   am
    22     2     3   ar
    23    22    23   ar
    24    24    25   ar
    25    27    28   ar
    26     4     5   ar
    27     7     8    2
    28    11    12    2
    29    13    14   ar
    30    15    16   ar
    31    17    18   ar
    32    19    20    3
    33     9    10    1
@<TRIPOS>MOLECULE
MolPort-003-020-514 16991800 CSSS03437211695 LN01391658 PubChem-16813897 ZINC000016991800
 30 33 0 0 0
SMALL
GASTEIGER

@<TRIPOS>ATOM
      1 C          10.5952   39.3822    6.5495 C.3     1  UNL1        0.0320
      2 C          10.0702   40.5770    7.2761 C.ar    1  UNL1       -0.0081
      3 C          10.8953   41.5222    7.8813 C.ar    1  UNL1        0.0096
      4 C           8.4696   42.0672    8.0915 C.ar    1  UNL1        0.0901
      5 C           8.7020   40.8826    7.3867 C.ar    1  UNL1        0.0843
      6 S           9.9423   42.7488    8.5265 S.2     1  UNL1       -0.0759
      7 C           6.4173   43.3533    7.3185 C.2     1  UNL1        0.2500
      8 O           6.6286   43.1244    6.0975 O.2     1  UNL1       -0.2698
      9 N           7.2090   42.7087    8.3197 N.am    1  UNL1       -0.2749
     10 H           6.8597   42.7055    9.2401 H       1  UNL1        0.1557
     11 C           5.2710   44.1702    7.7481 C.2     1  UNL1        0.0581
     12 C           4.4167   43.9141    8.7480 C.2     1  UNL1        0.0047
     13 C           4.3250   42.6933    9.5677 C.ar    1  UNL1        0.0001
     14 C           3.2948   41.7852    9.2983 C.ar    1  UNL1        0.0000
     15 C           3.2083   40.5827   10.0069 C.ar    1  UNL1        0.0000
     16 C           4.1649   40.2733   10.9776 C.ar    1  UNL1        0.0000
     17 C           5.2125   41.1622   11.2332 C.ar    1  UNL1        0.0000
     18 C           5.2975   42.3633   10.5233 C.ar    1  UNL1        0.0000
     19 C           7.6737   40.1123    6.7315 C.1     1  UNL1        0.1019
     20 N           6.8449   39.4969    6.2086 N.1     1  UNL1       -0.1908
     21 C          12.3894   41.5244    7.8725 C.3     1  UNL1        0.0590
     22 C          12.9208   40.7714    9.0445 C.ar    1  UNL1       -0.0141
     23 C          12.0792   40.5008   10.1475 C.ar    1  UNL1       -0.0006
     24 C          12.5720   39.8116   11.2704 C.ar    1  UNL1        0.0399
     25 C          13.9073   39.4179   11.2470 C.ar    1  UNL1        0.1764
     26 C          15.9610   38.5622   11.7387 C.3     1  UNL1        0.4294
     27 C          14.7188   39.6806   10.1906 C.ar    1  UNL1        0.1761
     28 C          14.2675   40.3600    9.0622 C.ar    1  UNL1        0.0363
     29 O          14.6191   38.7379   12.2149 O.3     1  UNL1       -0.4346
     30 O          15.9798   39.1791   10.4435 O.3     1  UNL1       -0.4346
@<TRIPOS>BOND
     1     1     2    1
     2     3     6   ar
     3    21     3    1
     4    21    22    1
     5    23    24   ar
     6    25    29    1
     7    26    29    1
     8    26    30    1
     9    27    30    1
    10    27    25   ar
    11    28    22   ar
    12     4     6   ar
    13     4     9    1
    14     7    11    1
    15    12    13    1
    16    14    15   ar
    17    16    17   ar
    18    18    13   ar
    19     5    19    1
    20     5     2   ar
    21     9     7   am
    22     2     3   ar
    23    22    23   ar
    24    24    25   ar
    25    27    28   ar
    26     4     5   ar
    27     7     8    2
    28    11    12    2
    29    13    14   ar
    30    15    16   ar
    31    17    18   ar
    32    19    20    3
    33     9    10    1
@<TRIPOS>MOLECULE
MolPort-003-020-514 16991800 CSSS03437211695 LN01391658 PubChem-16813897 ZINC000016991800
 30 33 0 0 0
SMALL
GASTEIGER

@<TRIPOS>ATOM
      1 C           9.9872   41.5274    7.0451 C.3     1  UNL1        0.0320
      2 C          11.1734   40.8227    7.6173 C.ar    1  UNL1       -0.0081
      3 C          12.3363   41.4838    8.0057 C.ar    1  UNL1        0.0096
      4 C          12.4274   39.0249    8.4191 C.ar    1  UNL1        0.0901
      5 C          11.2173   39.4371    7.8537 C.ar    1  UNL1        0.0843
      6 S          13.4066   40.3675    8.6670 S.2     1  UNL1       -0.0759
      7 C          14.1003   37.1658    8.8757 C.2     1  UNL1        0.2500
      8 O          15.0992   37.9305    8.8021 O.2     1  UNL1       -0.2698
      9 N          12.7767   37.7062    8.8570 N.am    1  UNL1       -0.2749
     10 H          12.0462   37.1252    9.1703 H       1  UNL1        0.1557
     11 C          14.2669   35.7248    9.1236 C.2     1  UNL1        0.0581
     12 C          15.2124   34.9160    8.6263 C.2     1  UNL1        0.0047
     13 C          16.2263   35.2324    7.6052 C.ar    1  UNL1        0.0001
     14 C          17.5548   35.3967    8.0134 C.ar    1  UNL1        0.0000
     15 C          18.5605   35.6327    7.0709 C.ar    1  UNL1        0.0000
     16 C          18.2446   35.6868    5.7106 C.ar    1  UNL1        0.0000
     17 C          16.9249   35.4962    5.2926 C.ar    1  UNL1        0.0000
     18 C          15.9211   35.2597    6.2363 C.ar    1  UNL1        0.0000
     19 C          10.0824   38.5722    7.6443 C.1     1  UNL1        0.1019
     20 N           9.1702   37.8791    7.4814 N.1     1  UNL1       -0.1908
     21 C          12.5718   42.9584    7.9564 C.3     1  UNL1        0.0590
     22 C          13.7777   43.2687    7.1363 C.ar    1  UNL1       -0.0141
     23 C          13.6294   43.6516    5.7837 C.ar    1  UNL1       -0.0006
     24 C          14.7585   43.9252    4.9906 C.ar    1  UNL1        0.0399
     25 C          16.0093   43.7998    5.5891 C.ar    1  UNL1        0.1764
     26 C          18.2429   43.7529    6.0367 C.3     1  UNL1        0.4294
     27 C          16.1543   43.4279    6.8868 C.ar    1  UNL1        0.1761
     28 C          15.0613   43.1489    7.7029 C.ar    1  UNL1        0.0363
     29 O          17.2539   44.0091    5.0295 O.3     1  UNL1       -0.4346
     30 O          17.4968   43.3849    7.2056 O.3     1  UNL1       -0.4346
@<TRIPOS>BOND
     1     1     2    1
     2     3     6   ar
     3    21     3    1
     4    21    22    1
     5    23    24   ar
     6    25    29    1
     7    26    29    1
     8    26    30    1
     9    27    30    1
    10    27    25   ar
    11    28    22   ar
    12     4     6   ar
    13     4     9    1
    14     7    11    1
    15    12    13    1
    16    14    15   ar
    17    16    17   ar
    18    18    13   ar
    19     5    19    1
    20     5     2   ar
    21     9     7   am
    22     2     3   ar
    23    22    23   ar
    24    24    25   ar
    25    27    28   ar
    26     4     5   ar
    27     7     8    2
    28    11    12    2
    29    13    14   ar
    30    15    16   ar
    31    17    18   ar
    32    19    20    3
    33     9    10    1
@<TRIPOS>MOLECULE
MolPort-003-020-514 16991800 CSSS03437211695 LN01391658 PubChem-16813897 ZINC000016991800
 30 33 0 0 0
SMALL
GASTEIGER

@<TRIPOS>ATOM
      1 C          11.0102   38.2032    8.1738 C.3     1  UNL1        0.0320
      2 C          10.3629   39.3918    8.8059 C.ar    1  UNL1       -0.0081
      3 C          10.9386   40.1022    9.8566 C.ar    1  UNL1        0.0096
      4 C           8.7562   41.0564    9.1138 C.ar    1  UNL1        0.0901
      5 C           9.1352   39.9290    8.3793 C.ar    1  UNL1        0.0843
      6 S           9.9512   41.4085   10.2409 S.2     1  UNL1       -0.0759
      7 C           7.4864   42.8657    7.8577 C.2     1  UNL1        0.2500
      8 O           8.2595   42.8368    6.8629 O.2     1  UNL1       -0.2698
      9 N           7.6117   41.8903    8.8957 N.am    1  UNL1       -0.2749
     10 H           6.8501   41.7831    9.5102 H       1  UNL1        0.1557
     11 C           6.3550   43.8052    7.9099 C.2     1  UNL1        0.0581
     12 C           5.2554   43.7156    8.6702 C.2     1  UNL1        0.0047
     13 C           4.8407   42.5935    9.5304 C.ar    1  UNL1        0.0001
     14 C           3.7649   41.7993    9.1176 C.ar    1  UNL1        0.0000
     15 C           3.3790   40.6849    9.8690 C.ar    1  UNL1        0.0000
     16 C           4.0807   40.3475   11.0296 C.ar    1  UNL1        0.0000
     17 C           5.1733   41.1194   11.4335 C.ar    1  UNL1        0.0000
     18 C           5.5580   42.2326   10.6807 C.ar    1  UNL1        0.0000
     19 C           8.4222   39.4319    7.2286 C.1     1  UNL1        0.1019
     20 N           7.8466   39.0372    6.3056 N.1     1  UNL1       -0.1908
     21 C          12.2693   39.8322   10.4802 C.3     1  UNL1        0.0590
     22 C          13.3568   40.4834    9.6952 C.ar    1  UNL1       -0.0141
     23 C          13.0336   41.2966    8.5852 C.ar    1  UNL1       -0.0006
     24 C          14.0491   41.8991    7.8208 C.ar    1  UNL1        0.0399
     25 C          15.3670   41.6581    8.2000 C.ar    1  UNL1        0.1764
     26 C          17.6392   41.6068    8.3605 C.3     1  UNL1        0.4294
     27 C          15.6800   40.8738    9.2631 C.ar    1  UNL1        0.1761
     28 C          14.7032   40.2607   10.0432 C.ar    1  UNL1        0.0363
     29 O          16.5274   42.1277    7.6182 O.3     1  UNL1       -0.4346
     30 O          17.0522   40.8120    9.4008 O.3     1  UNL1       -0.4346
@<TRIPOS>BOND
     1     1     2    1
     2     3     6   ar
     3    21     3    1
     4    21    22    1
     5    23    24   ar
     6    25    29    1
     7    26    29    1
     8    26    30    1
     9    27    30    1
    10    27    25   ar
    11    28    22   ar
    12     4     6   ar
    13     4     9    1
    14     7    11    1
    15    12    13    1
    16    14    15   ar
    17    16    17   ar
    18    18    13   ar
    19     5    19    1
    20     5     2   ar
    21     9     7   am
    22     2     3   ar
    23    22    23   ar
    24    24    25   ar
    25    27    28   ar
    26     4     5   ar
    27     7     8    2
    28    11    12    2
    29    13    14   ar
    30    15    16   ar
    31    17    18   ar
    32    19    20    3
    33     9    10    1
@<TRIPOS>MOLECULE
MolPort-003-020-514 16991800 CSSS03437211695 LN01391658 PubChem-16813897 ZINC000016991800
 30 33 0 0 0
SMALL
GASTEIGER

@<TRIPOS>ATOM
      1 C           9.8247   41.7391    6.2816 C.3     1  UNL1        0.0320
      2 C          10.9159   41.0111    6.9960 C.ar    1  UNL1       -0.0081
      3 C          12.0379   41.6479    7.5212 C.ar    1  UNL1        0.0096
      4 C          12.0212   39.1900    7.9497 C.ar    1  UNL1        0.0901
      5 C          10.8986   39.6262    7.2399 C.ar    1  UNL1        0.0843
      6 S          12.9937   40.5114    8.3111 S.2     1  UNL1       -0.0759
      7 C          11.7045   37.2823    9.6002 C.2     1  UNL1        0.2500
      8 O          10.6727   37.7881   10.1174 O.2     1  UNL1       -0.2698
      9 N          12.2839   37.8662    8.4306 N.am    1  UNL1       -0.2749
     10 H          12.9144   37.3140    7.9140 H       1  UNL1        0.1557
     11 C          12.2530   36.0095   10.0948 C.2     1  UNL1        0.0581
     12 C          13.4741   35.7896   10.6005 C.2     1  UNL1        0.0047
     13 C          14.6110   36.7253   10.6556 C.ar    1  UNL1        0.0001
     14 C          14.6670   37.6448   11.7091 C.ar    1  UNL1        0.0000
     15 C          15.7603   38.5072   11.8381 C.ar    1  UNL1        0.0000
     16 C          16.8142   38.4411   10.9227 C.ar    1  UNL1        0.0000
     17 C          16.7788   37.5069    9.8841 C.ar    1  UNL1        0.0000
     18 C          15.6854   36.6452    9.7573 C.ar    1  UNL1        0.0000
     19 C           9.7779   38.7860    6.8965 C.1     1  UNL1        0.1019
     20 N           8.8763   38.1133    6.6254 N.1     1  UNL1       -0.1908
     21 C          12.3116   43.1166    7.4966 C.3     1  UNL1        0.0590
     22 C          13.6409   43.3909    6.8795 C.ar    1  UNL1       -0.0141
     23 C          13.7170   43.8271    5.5371 C.ar    1  UNL1       -0.0006
     24 C          14.9646   44.0680    4.9336 C.ar    1  UNL1        0.0399
     25 C          16.1033   43.8566    5.7065 C.ar    1  UNL1        0.1764
     26 C          18.2388   43.6770    6.4803 C.3     1  UNL1        0.4294
     27 C          16.0328   43.4334    6.9946 C.ar    1  UNL1        0.1761
     28 C          14.8170   43.1844    7.6260 C.ar    1  UNL1        0.0363
     29 O          17.4265   44.0192    5.3483 O.3     1  UNL1       -0.4346
     30 O          17.3081   43.3089    7.5082 O.3     1  UNL1       -0.4346
@<TRIPOS>BOND
     1     1     2    1
     2     3     6   ar
     3    21     3    1
     4    21    22    1
     5    23    24   ar
     6    25    29    1
     7    26    29    1
     8    26    30    1
     9    27    30    1
    10    27    25   ar
    11    28    22   ar
    12     4     6   ar
    13     4     9    1
    14     7    11    1
    15    12    13    1
    16    14    15   ar
    17    16    17   ar
    18    18    13   ar
    19     5    19    1
    20     5     2   ar
    21     9     7   am
    22     2     3   ar
    23    22    23   ar
    24    24    25   ar
    25    27    28   ar
    26     4     5   ar
    27     7     8    2
    28    11    12    2
    29    13    14   ar
    30    15    16   ar
    31    17    18   ar
    32    19    20    3
    33     9    10    1
