@<TRIPOS>MOLECULE
MolPort-003-121-664 9058376 CSSS03437118148 MCULE-9626322807 PubChem-16939977 ZINC000009058376 ZINC09058376
 34 37 0 0 0
SMALL
GASTEIGER

@<TRIPOS>ATOM
      1 C          14.5377   41.2423    8.3029 C.ar    1  UNL1        0.2135
      2 C          13.6078   41.9372    7.5307 C.ar    1  UNL1        0.1109
      3 C          14.3184   42.9753    6.9718 C.ar    1  UNL1        0.1322
      4 C          14.8736   44.8203    5.6396 C.ar    1  UNL1        0.0991
      5 C          16.2067   44.7564    6.1022 C.ar    1  UNL1        0.0238
      6 C          16.5866   43.7551    7.0135 C.ar    1  UNL1        0.0407
      7 C          15.6011   42.8662    7.4260 C.ar    1  UNL1        0.1644
      8 O          15.7213   41.8318    8.2255 O.2     1  UNL1       -0.4460
      9 N          13.9423   43.9203    6.0752 N.ar    1  UNL1       -0.2394
     10 C          14.2885   40.0328    9.0984 C.2     1  UNL1        0.2856
     11 O          14.7831   39.9239   10.2520 O.2     1  UNL1       -0.2664
     12 N          13.4761   38.9889    8.5444 N.am    1  UNL1       -0.2755
     13 H          13.0457   39.1808    7.6800 H       1  UNL1        0.1554
     14 C          14.1725   36.6454    8.9849 C.ar    1  UNL1        0.1520
     15 C          13.2214   37.6937    9.1121 C.ar    1  UNL1        0.0851
     16 C          12.0369   37.4548    9.8286 C.ar    1  UNL1        0.0178
     17 C          11.7926   36.2168   10.4235 C.ar    1  UNL1        0.0015
     18 C          12.7361   35.1975   10.3143 C.ar    1  UNL1        0.0032
     19 C          13.9155   35.4140    9.5998 C.ar    1  UNL1        0.0382
     20 C          15.9016   35.7627    7.3971 C.3     1  UNL1        0.2525
     21 O          15.3750   36.7542    8.2680 O.3     1  UNL1       -0.4702
     22 C          11.0995   41.9431    7.9757 C.2     1  UNL1        0.2708
     23 O          11.1906   42.4136    9.1407 O.2     1  UNL1       -0.2707
     24 N          12.2625   41.5276    7.2557 N.am    1  UNL1       -0.2771
     25 H          12.1272   40.9054    6.5048 H       1  UNL1        0.1551
     26 C           9.7575   41.7540    7.3651 C.3     1  UNL1        0.2897
     27 O           8.7626   41.7566    8.3804 O.3     1  UNL1       -0.4656
     28 C           7.5801   42.4922    8.2669 C.ar    1  UNL1        0.1393
     29 C           6.6100   42.4859    9.2832 C.ar    1  UNL1        0.0366
     30 C           5.4402   43.2379    9.1457 C.ar    1  UNL1       -0.0011
     31 C           5.2319   44.0005    7.9930 C.ar    1  UNL1       -0.0217
     32 C           3.9908   44.8042    7.8486 C.3     1  UNL1        0.0310
     33 C           6.1919   44.0084    6.9767 C.ar    1  UNL1       -0.0011
     34 C           7.3624   43.2559    7.1146 C.ar    1  UNL1        0.0366
@<TRIPOS>BOND
     1    20    21    1
     2    14    21    1
     3    15    12    1
     4    15    16   ar
     5    10     1    1
     6     1     8   ar
     7     2    24    1
     8     2     3   ar
     9    26    22    1
    10    26    27    1
    11    28    27    1
    12    29    30   ar
    13    31    33   ar
    14    32    31    1
    15    34    28   ar
    16     4     9   ar
    17     5     6   ar
    18     7     8   ar
    19     7     3   ar
    20    17    18   ar
    21    19    14   ar
    22    12    10   am
    23    24    22   am
    24    14    15   ar
    25    10    11    2
    26     1     2   ar
    27    22    23    2
    28    28    29   ar
    29    30    31   ar
    30    33    34   ar
    31     3     9   ar
    32     4     5   ar
    33     6     7   ar
    34    16    17   ar
    35    18    19   ar
    36    12    13    1
    37    24    25    1
@<TRIPOS>MOLECULE
MolPort-003-121-664 9058376 CSSS03437118148 MCULE-9626322807 PubChem-16939977 ZINC000009058376 ZINC09058376
 34 37 0 0 0
SMALL
GASTEIGER

@<TRIPOS>ATOM
      1 C          14.8833   40.9871    8.4576 C.ar    1  UNL1        0.2135
      2 C          13.9283   41.8495    7.9208 C.ar    1  UNL1        0.1109
      3 C          14.6552   42.8654    7.3427 C.ar    1  UNL1        0.1322
      4 C          15.1993   44.7777    6.1040 C.ar    1  UNL1        0.0991
      5 C          16.5728   44.5326    6.3239 C.ar    1  UNL1        0.0238
      6 C          16.9756   43.4069    7.0643 C.ar    1  UNL1        0.0407
      7 C          15.9729   42.5815    7.5590 C.ar    1  UNL1        0.1644
      8 O          16.0993   41.4608    8.2312 O.2     1  UNL1       -0.4460
      9 N          14.2521   43.9334    6.6111 N.ar    1  UNL1       -0.2394
     10 C          14.6267   39.7304    9.1737 C.2     1  UNL1        0.2856
     11 O          14.8411   39.6558   10.4130 O.2     1  UNL1       -0.2664
     12 N          14.1288   38.6010    8.4436 N.am    1  UNL1       -0.2755
     13 H          13.8949   38.7576    7.5002 H       1  UNL1        0.1554
     14 C          12.7112   36.8931    9.5592 C.ar    1  UNL1        0.1520
     15 C          13.9337   37.2658    8.9376 C.ar    1  UNL1        0.0851
     16 C          14.9420   36.2997    8.7852 C.ar    1  UNL1        0.0178
     17 C          14.7534   34.9874    9.2196 C.ar    1  UNL1        0.0015
     18 C          13.5462   34.6200    9.8102 C.ar    1  UNL1        0.0032
     19 C          12.5356   35.5683    9.9769 C.ar    1  UNL1        0.0382
     20 C          10.3485   37.6650    9.2252 C.3     1  UNL1        0.2525
     21 O          11.6452   37.7760    9.7953 O.3     1  UNL1       -0.4702
     22 C          11.4938   42.4821    8.3239 C.2     1  UNL1        0.2708
     23 O          11.7462   43.3691    9.1820 O.2     1  UNL1       -0.2707
     24 N          12.5180   41.6073    7.8450 N.am    1  UNL1       -0.2771
     25 H          12.2290   40.7645    7.4264 H       1  UNL1        0.1551
     26 C          10.0967   42.2971    7.8509 C.3     1  UNL1        0.2897
     27 O           9.4785   41.2437    8.5780 O.3     1  UNL1       -0.4656
     28 C           9.4050   41.2406    9.9733 C.ar    1  UNL1        0.1393
     29 C          10.5052   40.8744   10.7666 C.ar    1  UNL1        0.0366
     30 C          10.4051   40.8885   12.1604 C.ar    1  UNL1       -0.0011
     31 C           9.2062   41.2682   12.7704 C.ar    1  UNL1       -0.0217
     32 C           9.1008   41.2884   14.2521 C.3     1  UNL1        0.0310
     33 C           8.1067   41.6307   11.9865 C.ar    1  UNL1       -0.0011
     34 C           8.2073   41.6165   10.5918 C.ar    1  UNL1        0.0366
@<TRIPOS>BOND
     1    20    21    1
     2    14    21    1
     3    15    12    1
     4    15    16   ar
     5    10     1    1
     6     1     8   ar
     7     2    24    1
     8     2     3   ar
     9    26    22    1
    10    26    27    1
    11    28    27    1
    12    29    30   ar
    13    31    33   ar
    14    32    31    1
    15    34    28   ar
    16     4     9   ar
    17     5     6   ar
    18     7     8   ar
    19     7     3   ar
    20    17    18   ar
    21    19    14   ar
    22    12    10   am
    23    24    22   am
    24    14    15   ar
    25    10    11    2
    26     1     2   ar
    27    22    23    2
    28    28    29   ar
    29    30    31   ar
    30    33    34   ar
    31     3     9   ar
    32     4     5   ar
    33     6     7   ar
    34    16    17   ar
    35    18    19   ar
    36    12    13    1
    37    24    25    1
@<TRIPOS>MOLECULE
MolPort-003-121-664 9058376 CSSS03437118148 MCULE-9626322807 PubChem-16939977 ZINC000009058376 ZINC09058376
 34 37 0 0 0
SMALL
GASTEIGER

@<TRIPOS>ATOM
      1 C          15.1424   41.0462    8.7332 C.ar    1  UNL1        0.2135
      2 C          14.5574   41.7483    7.6803 C.ar    1  UNL1        0.1109
      3 C          15.5244   42.6370    7.2681 C.ar    1  UNL1        0.1322
      4 C          16.6601   44.2555    6.0120 C.ar    1  UNL1        0.0991
      5 C          17.7974   44.1000    6.8351 C.ar    1  UNL1        0.0238
      6 C          17.7796   43.1691    7.8890 C.ar    1  UNL1        0.0407
      7 C          16.6100   42.4414    8.0724 C.ar    1  UNL1        0.1644
      8 O          16.3704   41.4934    8.9486 O.2     1  UNL1       -0.4460
      9 N          15.5344   43.5134    6.2336 N.ar    1  UNL1       -0.2394
     10 C          14.5283   39.9644    9.5146 C.2     1  UNL1        0.2856
     11 O          14.6401   39.9513   10.7695 O.2     1  UNL1       -0.2664
     12 N          13.8027   38.9346    8.8295 N.am    1  UNL1       -0.2755
     13 H          13.6751   39.0585    7.8612 H       1  UNL1        0.1554
     14 C          11.8717   37.6915    9.7766 C.ar    1  UNL1        0.1520
     15 C          13.2414   37.7416    9.4009 C.ar    1  UNL1        0.0851
     16 C          14.0355   36.5950    9.5687 C.ar    1  UNL1        0.0178
     17 C          13.4967   35.4147   10.0813 C.ar    1  UNL1        0.0015
     18 C          12.1488   35.3626   10.4297 C.ar    1  UNL1        0.0032
     19 C          11.3459   36.4942   10.2771 C.ar    1  UNL1        0.0382
     20 C          10.9526   39.8817   10.5818 C.3     1  UNL1        0.2525
     21 O          10.9887   38.7796    9.6858 O.3     1  UNL1       -0.4702
     22 C          12.0298   41.9884    7.4717 C.2     1  UNL1        0.2708
     23 O          11.8644   42.4677    8.6248 O.2     1  UNL1       -0.2707
     24 N          13.2945   41.4577    7.0687 N.am    1  UNL1       -0.2771
     25 H          13.2981   40.8381    6.3036 H       1  UNL1        0.1551
     26 C          10.8757   41.9115    6.5380 C.3     1  UNL1        0.2897
     27 O           9.7144   41.4923    7.2425 O.3     1  UNL1       -0.4656
     28 C           8.5890   42.3086    7.3823 C.ar    1  UNL1        0.1393
     29 C           8.3503   43.0362    8.5602 C.ar    1  UNL1        0.0366
     30 C           7.2202   43.8511    8.6686 C.ar    1  UNL1       -0.0011
     31 C           6.3219   43.9444    7.6019 C.ar    1  UNL1       -0.0217
     32 C           5.1231   44.8146    7.7147 C.3     1  UNL1        0.0310
     33 C           6.5521   43.2204    6.4282 C.ar    1  UNL1       -0.0011
     34 C           7.6830   42.4051    6.3201 C.ar    1  UNL1        0.0366
@<TRIPOS>BOND
     1    20    21    1
     2    14    21    1
     3    15    12    1
     4    15    16   ar
     5    10     1    1
     6     1     8   ar
     7     2    24    1
     8     2     3   ar
     9    26    22    1
    10    26    27    1
    11    28    27    1
    12    29    30   ar
    13    31    33   ar
    14    32    31    1
    15    34    28   ar
    16     4     9   ar
    17     5     6   ar
    18     7     8   ar
    19     7     3   ar
    20    17    18   ar
    21    19    14   ar
    22    12    10   am
    23    24    22   am
    24    14    15   ar
    25    10    11    2
    26     1     2   ar
    27    22    23    2
    28    28    29   ar
    29    30    31   ar
    30    33    34   ar
    31     3     9   ar
    32     4     5   ar
    33     6     7   ar
    34    16    17   ar
    35    18    19   ar
    36    12    13    1
    37    24    25    1
@<TRIPOS>MOLECULE
MolPort-003-121-664 9058376 CSSS03437118148 MCULE-9626322807 PubChem-16939977 ZINC000009058376 ZINC09058376
 34 37 0 0 0
SMALL
GASTEIGER

@<TRIPOS>ATOM
      1 C          14.5313   41.2137    8.3665 C.ar    1  UNL1        0.2135
      2 C          13.6007   42.0065    7.6961 C.ar    1  UNL1        0.1109
      3 C          14.3475   42.9908    7.0893 C.ar    1  UNL1        0.1322
      4 C          14.9419   44.8111    5.7400 C.ar    1  UNL1        0.0991
      5 C          16.3007   44.6184    6.0743 C.ar    1  UNL1        0.0238
      6 C          16.6710   43.5658    6.9300 C.ar    1  UNL1        0.0407
      7 C          15.6515   42.7579    7.4192 C.ar    1  UNL1        0.1644
      8 O          15.7510   41.6979    8.1876 O.2     1  UNL1       -0.4460
      9 N          13.9772   43.9867    6.2470 N.ar    1  UNL1       -0.2394
     10 C          14.2482   40.0122    9.1629 C.2     1  UNL1        0.2856
     11 O          14.7747   39.8701   10.2987 O.2     1  UNL1       -0.2664
     12 N          13.3668   39.0143    8.6302 N.am    1  UNL1       -0.2755
     13 H          12.9181   39.2338    7.7818 H       1  UNL1        0.1554
     14 C          14.0082   36.6670    9.1301 C.ar    1  UNL1        0.1520
     15 C          13.0664   37.7291    9.1985 C.ar    1  UNL1        0.0851
     16 C          11.8448   37.5142    9.8579 C.ar    1  UNL1        0.0178
     17 C          11.5543   36.2864   10.4533 C.ar    1  UNL1        0.0015
     18 C          12.4879   35.2535   10.4020 C.ar    1  UNL1        0.0032
     19 C          13.7041   35.4462    9.7447 C.ar    1  UNL1        0.0382
     20 C          16.5160   36.6605    9.1031 C.3     1  UNL1        0.2525
     21 O          15.2461   36.7517    8.4726 O.3     1  UNL1       -0.4702
     22 C          11.2131   41.8307    8.5669 C.2     1  UNL1        0.2708
     23 O          11.5350   41.8266    9.7848 O.2     1  UNL1       -0.2707
     24 N          12.2043   41.7242    7.5423 N.am    1  UNL1       -0.2771
     25 H          11.9007   41.4311    6.6528 H       1  UNL1        0.1551
     26 C           9.7762   41.8793    8.1893 C.3     1  UNL1        0.2897
     27 O           9.6541   42.0575    6.7843 O.3     1  UNL1       -0.4656
     28 C           9.6646   40.9836    5.8905 C.ar    1  UNL1        0.1393
     29 C           8.7736   39.9058    6.0258 C.ar    1  UNL1        0.0366
     30 C           8.8017   38.8490    5.1117 C.ar    1  UNL1       -0.0011
     31 C           9.7193   38.8620    4.0575 C.ar    1  UNL1       -0.0217
     32 C           9.7461   37.7414    3.0825 C.3     1  UNL1        0.0310
     33 C          10.6108   39.9301    3.9193 C.ar    1  UNL1       -0.0011
     34 C          10.5824   40.9874    4.8340 C.ar    1  UNL1        0.0366
@<TRIPOS>BOND
     1    20    21    1
     2    14    21    1
     3    15    12    1
     4    15    16   ar
     5    10     1    1
     6     1     8   ar
     7     2    24    1
     8     2     3   ar
     9    26    22    1
    10    26    27    1
    11    28    27    1
    12    29    30   ar
    13    31    33   ar
    14    32    31    1
    15    34    28   ar
    16     4     9   ar
    17     5     6   ar
    18     7     8   ar
    19     7     3   ar
    20    17    18   ar
    21    19    14   ar
    22    12    10   am
    23    24    22   am
    24    14    15   ar
    25    10    11    2
    26     1     2   ar
    27    22    23    2
    28    28    29   ar
    29    30    31   ar
    30    33    34   ar
    31     3     9   ar
    32     4     5   ar
    33     6     7   ar
    34    16    17   ar
    35    18    19   ar
    36    12    13    1
    37    24    25    1
@<TRIPOS>MOLECULE
MolPort-003-121-664 9058376 CSSS03437118148 MCULE-9626322807 PubChem-16939977 ZINC000009058376 ZINC09058376
 34 37 0 0 0
SMALL
GASTEIGER

@<TRIPOS>ATOM
      1 C          13.3500   41.2584    7.7347 C.ar    1  UNL1        0.2135
      2 C          12.6932   42.2155    6.9624 C.ar    1  UNL1        0.1109
      3 C          13.6793   43.0949    6.5764 C.ar    1  UNL1        0.1322
      4 C          14.7837   44.8547    5.4943 C.ar    1  UNL1        0.0991
      5 C          16.0089   44.4366    6.0594 C.ar    1  UNL1        0.0238
      6 C          16.0482   43.3034    6.8911 C.ar    1  UNL1        0.0407
      7 C          14.8463   42.6459    7.1242 C.ar    1  UNL1        0.1644
      8 O          14.6388   41.5518    7.8196 O.2     1  UNL1       -0.4460
      9 N          13.6290   44.1715    5.7537 N.ar    1  UNL1       -0.2394
     10 C          12.7453   40.0836    8.3768 C.2     1  UNL1        0.2856
     11 O          11.6105   40.1743    8.9164 O.2     1  UNL1       -0.2664
     12 N          13.4624   38.8417    8.3752 N.am    1  UNL1       -0.2755
     13 H          14.2978   38.8189    7.8548 H       1  UNL1        0.1554
     14 C          13.9532   36.4940    9.0220 C.ar    1  UNL1        0.1520
     15 C          13.0958   37.6271    9.0497 C.ar    1  UNL1        0.0851
     16 C          11.8937   37.5535    9.7729 C.ar    1  UNL1        0.0178
     17 C          11.5423   36.3970   10.4696 C.ar    1  UNL1        0.0015
     18 C          12.3946   35.2949   10.4572 C.ar    1  UNL1        0.0032
     19 C          13.5897   35.3470    9.7380 C.ar    1  UNL1        0.0382
     20 C          16.4565   36.4083    8.8947 C.3     1  UNL1        0.2525
     21 O          15.1620   36.4370    8.3097 O.3     1  UNL1       -0.4702
     22 C          10.7397   41.1279    5.7415 C.2     1  UNL1        0.2708
     23 O          11.4537   40.3598    5.0436 O.2     1  UNL1       -0.2707
     24 N          11.3270   42.1632    6.5332 N.am    1  UNL1       -0.2771
     25 H          10.7414   42.9055    6.8076 H       1  UNL1        0.1551
     26 C           9.2596   41.0001    5.6899 C.3     1  UNL1        0.2897
     27 O           8.6617   42.2840    5.8117 O.3     1  UNL1       -0.4656
     28 C           7.6037   42.5362    6.6889 C.ar    1  UNL1        0.1393
     29 C           6.8719   43.7341    6.6330 C.ar    1  UNL1        0.0366
     30 C           5.8134   43.9555    7.5180 C.ar    1  UNL1       -0.0011
     31 C           5.4792   42.9824    8.4641 C.ar    1  UNL1       -0.0217
     32 C           4.3506   43.2151    9.4018 C.3     1  UNL1        0.0310
     33 C           6.2056   41.7895    8.5270 C.ar    1  UNL1       -0.0011
     34 C           7.2648   41.5683    7.6412 C.ar    1  UNL1        0.0366
@<TRIPOS>BOND
     1    20    21    1
     2    14    21    1
     3    15    12    1
     4    15    16   ar
     5    10     1    1
     6     1     8   ar
     7     2    24    1
     8     2     3   ar
     9    26    22    1
    10    26    27    1
    11    28    27    1
    12    29    30   ar
    13    31    33   ar
    14    32    31    1
    15    34    28   ar
    16     4     9   ar
    17     5     6   ar
    18     7     8   ar
    19     7     3   ar
    20    17    18   ar
    21    19    14   ar
    22    12    10   am
    23    24    22   am
    24    14    15   ar
    25    10    11    2
    26     1     2   ar
    27    22    23    2
    28    28    29   ar
    29    30    31   ar
    30    33    34   ar
    31     3     9   ar
    32     4     5   ar
    33     6     7   ar
    34    16    17   ar
    35    18    19   ar
    36    12    13    1
    37    24    25    1
@<TRIPOS>MOLECULE
MolPort-003-121-664 9058376 CSSS03437118148 MCULE-9626322807 PubChem-16939977 ZINC000009058376 ZINC09058376
 34 37 0 0 0
SMALL
GASTEIGER

@<TRIPOS>ATOM
      1 C          14.5294   39.0444    9.6954 C.ar    1  UNL1        0.2135
      2 C          13.1441   39.1856    9.6249 C.ar    1  UNL1        0.1109
      3 C          12.6460   37.9421    9.9414 C.ar    1  UNL1        0.1322
      4 C          11.1481   36.2211   10.4726 C.ar    1  UNL1        0.0991
      5 C          12.2320   35.3441   10.6990 C.ar    1  UNL1        0.0238
      6 C          13.5519   35.8062   10.5512 C.ar    1  UNL1        0.0407
      7 C          13.7207   37.1324   10.1719 C.ar    1  UNL1        0.1644
      8 O          14.8417   37.7980   10.0165 O.2     1  UNL1       -0.4460
      9 N          11.3683   37.5180   10.1026 N.ar    1  UNL1       -0.2394
     10 C          15.5312   40.0924    9.4584 C.2     1  UNL1        0.2856
     11 O          16.5194   40.2064   10.2316 O.2     1  UNL1       -0.2664
     12 N          15.3671   40.9735    8.3389 N.am    1  UNL1       -0.2755
     13 H          14.6260   40.7678    7.7244 H       1  UNL1        0.1554
     14 C          15.7261   43.0622    7.0430 C.ar    1  UNL1        0.1520
     15 C          16.1654   42.1237    8.0155 C.ar    1  UNL1        0.0851
     16 C          17.3815   42.3517    8.6808 C.ar    1  UNL1        0.0178
     17 C          18.1483   43.4854    8.4108 C.ar    1  UNL1        0.0015
     18 C          17.7050   44.4140    7.4715 C.ar    1  UNL1        0.0032
     19 C          16.5028   44.2005    6.7951 C.ar    1  UNL1        0.0382
     20 C          13.8606   43.9900    5.6468 C.3     1  UNL1        0.2525
     21 O          14.5472   42.9266    6.2922 O.3     1  UNL1       -0.4702
     22 C          12.1343   41.0287    8.1851 C.2     1  UNL1        0.2708
     23 O          12.7943   40.7415    7.1514 O.2     1  UNL1       -0.2707
     24 N          12.4276   40.4130    9.4415 N.am    1  UNL1       -0.2771
     25 H          12.1094   40.8725   10.2519 H       1  UNL1        0.1551
     26 C          11.0785   42.0727    8.1136 C.3     1  UNL1        0.2897
     27 O           9.8685   41.5007    7.6347 O.3     1  UNL1       -0.4656
     28 C           9.8271   40.6688    6.5128 C.ar    1  UNL1        0.1393
     29 C          10.3124   41.0933    5.2646 C.ar    1  UNL1        0.0366
     30 C          10.2654   40.2364    4.1616 C.ar    1  UNL1       -0.0011
     31 C           9.7338   38.9510    4.2982 C.ar    1  UNL1       -0.0217
     32 C           9.6884   38.0379    3.1272 C.3     1  UNL1        0.0310
     33 C           9.2462   38.5238    5.5369 C.ar    1  UNL1       -0.0011
     34 C           9.2934   39.3814    6.6404 C.ar    1  UNL1        0.0366
@<TRIPOS>BOND
     1    20    21    1
     2    14    21    1
     3    15    12    1
     4    15    16   ar
     5    10     1    1
     6     1     8   ar
     7     2    24    1
     8     2     3   ar
     9    26    22    1
    10    26    27    1
    11    28    27    1
    12    29    30   ar
    13    31    33   ar
    14    32    31    1
    15    34    28   ar
    16     4     9   ar
    17     5     6   ar
    18     7     8   ar
    19     7     3   ar
    20    17    18   ar
    21    19    14   ar
    22    12    10   am
    23    24    22   am
    24    14    15   ar
    25    10    11    2
    26     1     2   ar
    27    22    23    2
    28    28    29   ar
    29    30    31   ar
    30    33    34   ar
    31     3     9   ar
    32     4     5   ar
    33     6     7   ar
    34    16    17   ar
    35    18    19   ar
    36    12    13    1
    37    24    25    1
@<TRIPOS>MOLECULE
MolPort-003-121-664 9058376 CSSS03437118148 MCULE-9626322807 PubChem-16939977 ZINC000009058376 ZINC09058376
 34 37 0 0 0
SMALL
GASTEIGER

@<TRIPOS>ATOM
      1 C          13.6149   39.3983    9.1809 C.ar    1  UNL1        0.2135
      2 C          12.3779   39.0658    9.7317 C.ar    1  UNL1        0.1109
      3 C          12.4198   37.6997    9.8947 C.ar    1  UNL1        0.1322
      4 C          11.8404   35.5230   10.5378 C.ar    1  UNL1        0.0991
      5 C          13.0816   35.0483   10.0589 C.ar    1  UNL1        0.0238
      6 C          14.0086   35.9462    9.5002 C.ar    1  UNL1        0.0407
      7 C          13.6384   37.2843    9.4406 C.ar    1  UNL1        0.1644
      8 O          14.3430   38.3051    9.0103 O.2     1  UNL1       -0.4460
      9 N          11.5254   36.8502   10.4574 N.ar    1  UNL1       -0.2394
     10 C          14.0844   40.7446    8.8275 C.2     1  UNL1        0.2856
     11 O          13.2926   41.7230    8.8821 O.2     1  UNL1       -0.2664
     12 N          15.4495   40.9240    8.4262 N.am    1  UNL1       -0.2755
     13 H          16.0343   40.1352    8.4974 H       1  UNL1        0.1554
     14 C          15.4112   42.9128    6.9381 C.ar    1  UNL1        0.1520
     15 C          16.0575   42.1283    7.9315 C.ar    1  UNL1        0.0851
     16 C          17.2897   42.5632    8.4470 C.ar    1  UNL1        0.0178
     17 C          17.8737   43.7524    8.0099 C.ar    1  UNL1        0.0015
     18 C          17.2279   44.5296    7.0507 C.ar    1  UNL1        0.0032
     19 C          16.0064   44.1097    6.5215 C.ar    1  UNL1        0.0382
     20 C          13.4002   43.4362    5.5340 C.3     1  UNL1        0.2525
     21 O          14.1958   42.5658    6.3265 O.3     1  UNL1       -0.4702
     22 C          10.2745   40.4677    9.4156 C.2     1  UNL1        0.2708
     23 O          10.2860   40.4100    8.1573 O.2     1  UNL1       -0.2707
     24 N          11.3792   39.9878   10.1855 N.am    1  UNL1       -0.2771
     25 H          11.4612   40.3200   11.1087 H       1  UNL1        0.1551
     26 C           9.1245   41.1051   10.1091 C.3     1  UNL1        0.2897
     27 O           8.0368   41.2477    9.2050 O.3     1  UNL1       -0.4656
     28 C           6.7251   41.4543    9.6397 C.ar    1  UNL1        0.1393
     29 C           6.3823   41.3867   11.0005 C.ar    1  UNL1        0.0366
     30 C           5.0633   41.6059   11.4068 C.ar    1  UNL1       -0.0011
     31 C           4.0789   41.8939   10.4573 C.ar    1  UNL1       -0.0217
     32 C           2.6776   42.1322   10.8893 C.3     1  UNL1        0.0310
     33 C           4.4130   41.9594    9.1013 C.ar    1  UNL1       -0.0011
     34 C           5.7329   41.7401    8.6950 C.ar    1  UNL1        0.0366
@<TRIPOS>BOND
     1    20    21    1
     2    14    21    1
     3    15    12    1
     4    15    16   ar
     5    10     1    1
     6     1     8   ar
     7     2    24    1
     8     2     3   ar
     9    26    22    1
    10    26    27    1
    11    28    27    1
    12    29    30   ar
    13    31    33   ar
    14    32    31    1
    15    34    28   ar
    16     4     9   ar
    17     5     6   ar
    18     7     8   ar
    19     7     3   ar
    20    17    18   ar
    21    19    14   ar
    22    12    10   am
    23    24    22   am
    24    14    15   ar
    25    10    11    2
    26     1     2   ar
    27    22    23    2
    28    28    29   ar
    29    30    31   ar
    30    33    34   ar
    31     3     9   ar
    32     4     5   ar
    33     6     7   ar
    34    16    17   ar
    35    18    19   ar
    36    12    13    1
    37    24    25    1
@<TRIPOS>MOLECULE
MolPort-003-121-664 9058376 CSSS03437118148 MCULE-9626322807 PubChem-16939977 ZINC000009058376 ZINC09058376
 34 37 0 0 0
SMALL
GASTEIGER

@<TRIPOS>ATOM
      1 C          14.1096   41.3044    8.3340 C.ar    1  UNL1        0.2135
      2 C          13.2571   42.2120    7.7066 C.ar    1  UNL1        0.1109
      3 C          14.0924   43.0667    7.0236 C.ar    1  UNL1        0.1322
      4 C          14.8444   44.7575    5.5874 C.ar    1  UNL1        0.0991
      5 C          16.1818   44.3757    5.8338 C.ar    1  UNL1        0.0238
      6 C          16.4571   43.2956    6.6912 C.ar    1  UNL1        0.0407
      7 C          15.3697   42.6529    7.2706 C.ar    1  UNL1        0.1644
      8 O          15.3704   41.6033    8.0594 O.2     1  UNL1       -0.4460
      9 N          13.8099   44.0908    6.1811 N.ar    1  UNL1       -0.2394
     10 C          13.7145   40.1708    9.1806 C.2     1  UNL1        0.2856
     11 O          13.7815   40.2672   10.4350 O.2     1  UNL1       -0.2664
     12 N          13.2518   38.9642    8.5589 N.am    1  UNL1       -0.2755
     13 H          13.1352   38.9917    7.5817 H       1  UNL1        0.1554
     14 C          13.9189   36.6962    9.3219 C.ar    1  UNL1        0.1520
     15 C          12.9395   37.7195    9.2053 C.ar    1  UNL1        0.0851
     16 C          11.6657   37.5087    9.7589 C.ar    1  UNL1        0.0178
     17 C          11.3586   36.3237   10.4281 C.ar    1  UNL1        0.0015
     18 C          12.3272   35.3307   10.5584 C.ar    1  UNL1        0.0032
     19 C          13.5961   35.5193   10.0083 C.ar    1  UNL1        0.0382
     20 C          16.3717   37.1899    9.4950 C.3     1  UNL1        0.2525
     21 O          15.2130   36.7781    8.7832 O.3     1  UNL1       -0.4702
     22 C          11.0699   41.0387    7.1330 C.2     1  UNL1        0.2708
     23 O          11.5887   40.2108    6.3379 O.2     1  UNL1       -0.2707
     24 N          11.8273   42.1326    7.6558 N.am    1  UNL1       -0.2771
     25 H          11.3221   42.8987    8.0122 H       1  UNL1        0.1551
     26 C           9.6300   40.9162    7.4813 C.3     1  UNL1        0.2897
     27 O           9.2656   41.9475    8.3892 O.3     1  UNL1       -0.4656
     28 C           9.1968   41.7393    9.7692 C.ar    1  UNL1        0.1393
     29 C           7.9925   41.8913   10.4765 C.ar    1  UNL1        0.0366
     30 C           7.9520   41.6685   11.8555 C.ar    1  UNL1       -0.0011
     31 C           9.1133   41.2926   12.5364 C.ar    1  UNL1       -0.0217
     32 C           9.0696   41.0505   14.0015 C.3     1  UNL1        0.0310
     33 C          10.3156   41.1427   11.8388 C.ar    1  UNL1       -0.0011
     34 C          10.3558   41.3657   10.4589 C.ar    1  UNL1        0.0366
@<TRIPOS>BOND
     1    20    21    1
     2    14    21    1
     3    15    12    1
     4    15    16   ar
     5    10     1    1
     6     1     8   ar
     7     2    24    1
     8     2     3   ar
     9    26    22    1
    10    26    27    1
    11    28    27    1
    12    29    30   ar
    13    31    33   ar
    14    32    31    1
    15    34    28   ar
    16     4     9   ar
    17     5     6   ar
    18     7     8   ar
    19     7     3   ar
    20    17    18   ar
    21    19    14   ar
    22    12    10   am
    23    24    22   am
    24    14    15   ar
    25    10    11    2
    26     1     2   ar
    27    22    23    2
    28    28    29   ar
    29    30    31   ar
    30    33    34   ar
    31     3     9   ar
    32     4     5   ar
    33     6     7   ar
    34    16    17   ar
    35    18    19   ar
    36    12    13    1
    37    24    25    1
@<TRIPOS>MOLECULE
MolPort-003-121-664 9058376 CSSS03437118148 MCULE-9626322807 PubChem-16939977 ZINC000009058376 ZINC09058376
 34 37 0 0 0
SMALL
GASTEIGER

@<TRIPOS>ATOM
      1 C          13.7981   41.5654    8.1845 C.ar    1  UNL1        0.2135
      2 C          13.0913   42.5062    7.4367 C.ar    1  UNL1        0.1109
      3 C          14.0592   43.2663    6.8201 C.ar    1  UNL1        0.1322
      4 C          15.0905   44.8335    5.4174 C.ar    1  UNL1        0.0991
      5 C          16.3598   44.3640    5.8218 C.ar    1  UNL1        0.0238
      6 C          16.4565   43.3040    6.7409 C.ar    1  UNL1        0.0407
      7 C          15.2663   42.7695    7.2195 C.ar    1  UNL1        0.1644
      8 O          15.1005   41.7575    8.0394 O.2     1  UNL1       -0.4460
      9 N          13.9495   44.2717    5.9170 N.ar    1  UNL1       -0.2394
     10 C          13.2270   40.5016    9.0213 C.2     1  UNL1        0.2856
     11 O          12.6809   40.7883   10.1199 O.2     1  UNL1       -0.2664
     12 N          13.2988   39.1431    8.5675 N.am    1  UNL1       -0.2755
     13 H          13.6529   39.0026    7.6597 H       1  UNL1        0.1554
     14 C          11.5383   37.6481    9.4821 C.ar    1  UNL1        0.1520
     15 C          12.9108   37.9645    9.2920 C.ar    1  UNL1        0.0851
     16 C          13.8872   37.0906    9.7983 C.ar    1  UNL1        0.0178
     17 C          13.5285   35.9195   10.4663 C.ar    1  UNL1        0.0015
     18 C          12.1823   35.6018   10.6333 C.ar    1  UNL1        0.0032
     19 C          11.1980   36.4619   10.1436 C.ar    1  UNL1        0.0382
     20 C           9.6427   38.1879    7.9313 C.3     1  UNL1        0.2525
     21 O          10.4752   38.4577    9.0506 O.3     1  UNL1       -0.4702
     22 C          10.9344   41.6397    6.3943 C.2     1  UNL1        0.2708
     23 O          11.5031   40.9888    5.4779 O.2     1  UNL1       -0.2707
     24 N          11.6732   42.5314    7.2324 N.am    1  UNL1       -0.2771
     25 H          11.1628   43.2238    7.7114 H       1  UNL1        0.1551
     26 C           9.4617   41.5307    6.5646 C.3     1  UNL1        0.2897
     27 O           9.0475   42.3109    7.6783 O.3     1  UNL1       -0.4656
     28 C           7.9547   41.9575    8.4740 C.ar    1  UNL1        0.1393
     29 C           8.0020   42.0580    9.8745 C.ar    1  UNL1        0.0366
     30 C           6.8905   41.7050   10.6445 C.ar    1  UNL1       -0.0011
     31 C           5.7254   41.2496   10.0210 C.ar    1  UNL1       -0.0217
     32 C           4.5418   40.8792   10.8389 C.3     1  UNL1        0.0310
     33 C           5.6731   41.1442    8.6279 C.ar    1  UNL1       -0.0011
     34 C           6.7854   41.4976    7.8577 C.ar    1  UNL1        0.0366
@<TRIPOS>BOND
     1    20    21    1
     2    14    21    1
     3    15    12    1
     4    15    16   ar
     5    10     1    1
     6     1     8   ar
     7     2    24    1
     8     2     3   ar
     9    26    22    1
    10    26    27    1
    11    28    27    1
    12    29    30   ar
    13    31    33   ar
    14    32    31    1
    15    34    28   ar
    16     4     9   ar
    17     5     6   ar
    18     7     8   ar
    19     7     3   ar
    20    17    18   ar
    21    19    14   ar
    22    12    10   am
    23    24    22   am
    24    14    15   ar
    25    10    11    2
    26     1     2   ar
    27    22    23    2
    28    28    29   ar
    29    30    31   ar
    30    33    34   ar
    31     3     9   ar
    32     4     5   ar
    33     6     7   ar
    34    16    17   ar
    35    18    19   ar
    36    12    13    1
    37    24    25    1
@<TRIPOS>MOLECULE
MolPort-003-121-664 9058376 CSSS03437118148 MCULE-9626322807 PubChem-16939977 ZINC000009058376 ZINC09058376
 34 37 0 0 0
SMALL
GASTEIGER

@<TRIPOS>ATOM
      1 C          13.3214   41.1128    7.3156 C.ar    1  UNL1        0.2135
      2 C          12.6542   42.0980    6.5889 C.ar    1  UNL1        0.1109
      3 C          13.6015   43.0700    6.3596 C.ar    1  UNL1        0.1322
      4 C          14.6533   44.9914    5.5294 C.ar    1  UNL1        0.0991
      5 C          15.8633   44.5969    6.1421 C.ar    1  UNL1        0.0238
      6 C          15.9240   43.3928    6.8660 C.ar    1  UNL1        0.0407
      7 C          14.7569   42.6428    6.9480 C.ar    1  UNL1        0.1644
      8 O          14.5784   41.4756    7.5220 O.2     1  UNL1       -0.4460
      9 N          13.5333   44.2163    5.6386 N.ar    1  UNL1       -0.2394
     10 C          12.7566   39.8461    7.7999 C.2     1  UNL1        0.2856
     11 O          11.5706   39.5336    7.5117 O.2     1  UNL1       -0.2664
     12 N          13.5737   38.9779    8.5968 N.am    1  UNL1       -0.2755
     13 H          14.5168   39.2394    8.7031 H       1  UNL1        0.1554
     14 C          12.0135   37.7463   10.0868 C.ar    1  UNL1        0.1520
     15 C          13.1672   37.7681    9.2571 C.ar    1  UNL1        0.0851
     16 C          13.8911   36.5794    9.0666 C.ar    1  UNL1        0.0178
     17 C          13.4860   35.3860    9.6649 C.ar    1  UNL1        0.0015
     18 C          12.3431   35.3634   10.4613 C.ar    1  UNL1        0.0032
     19 C          11.6153   36.5364   10.6682 C.ar    1  UNL1        0.0382
     20 C          11.6675   40.0092   11.1114 C.3     1  UNL1        0.2525
     21 O          11.2294   38.8744   10.3771 O.3     1  UNL1       -0.4702
     22 C          10.8496   40.9798    5.1808 C.2     1  UNL1        0.2708
     23 O          11.6488   40.2776    4.5063 O.2     1  UNL1       -0.2707
     24 N          11.3269   42.0034    6.0571 N.am    1  UNL1       -0.2771
     25 H          10.6875   42.7050    6.3183 H       1  UNL1        0.1551
     26 C           9.3851   40.7874    5.0136 C.3     1  UNL1        0.2897
     27 O           8.7640   40.6919    6.2887 O.3     1  UNL1       -0.4656
     28 C           8.4285   41.8189    7.0435 C.ar    1  UNL1        0.1393
     29 C           7.4948   42.7616    6.5817 C.ar    1  UNL1        0.0366
     30 C           7.1727   43.8753    7.3620 C.ar    1  UNL1       -0.0011
     31 C           7.7806   44.0543    8.6078 C.ar    1  UNL1       -0.0217
     32 C           7.4346   45.2353    9.4400 C.3     1  UNL1        0.0310
     33 C           8.7130   43.1214    9.0716 C.ar    1  UNL1       -0.0011
     34 C           9.0351   42.0072    8.2905 C.ar    1  UNL1        0.0366
@<TRIPOS>BOND
     1    20    21    1
     2    14    21    1
     3    15    12    1
     4    15    16   ar
     5    10     1    1
     6     1     8   ar
     7     2    24    1
     8     2     3   ar
     9    26    22    1
    10    26    27    1
    11    28    27    1
    12    29    30   ar
    13    31    33   ar
    14    32    31    1
    15    34    28   ar
    16     4     9   ar
    17     5     6   ar
    18     7     8   ar
    19     7     3   ar
    20    17    18   ar
    21    19    14   ar
    22    12    10   am
    23    24    22   am
    24    14    15   ar
    25    10    11    2
    26     1     2   ar
    27    22    23    2
    28    28    29   ar
    29    30    31   ar
    30    33    34   ar
    31     3     9   ar
    32     4     5   ar
    33     6     7   ar
    34    16    17   ar
    35    18    19   ar
    36    12    13    1
    37    24    25    1
