@<TRIPOS>MOLECULE
MolPort-006-579-716 ChemDiv-V002-8400 MCULE-7113003043 PubChem-46040680 ZINC000037544389 ZINC37544389
 31 34 0 0 0
SMALL
GASTEIGER

@<TRIPOS>ATOM
      1 C          13.9522   39.7075    8.9381 C.3     1  UNL1        0.0971
      2 C          13.0945   38.9574    9.9514 C.3     1  UNL1        0.0435
      3 C          12.6224   39.9358   11.0150 C.3     1  UNL1        0.1015
      4 C          12.2330   41.5436    9.1628 C.2     1  UNL1        0.3112
      5 N          13.2485   40.8710    8.3950 N.am    1  UNL1       -0.2596
      6 N          11.7812   40.9645   10.4044 N.am    1  UNL1       -0.2430
      7 O          11.7417   42.6274    8.7439 O.2     1  UNL1       -0.2520
      8 C          10.5287   41.3204   11.0304 C.ar    1  UNL1        0.0565
      9 C          10.2569   40.9195   12.3489 C.ar    1  UNL1        0.0150
     10 C           9.0423   41.2449   12.9566 C.ar    1  UNL1        0.0026
     11 C           8.0821   41.9720   12.2509 C.ar    1  UNL1        0.0148
     12 C           8.3294   42.3770   10.9320 C.ar    1  UNL1        0.0519
     13 C           9.5484   42.0458   10.3323 C.ar    1  UNL1        0.0296
     14 C           6.2309   42.5995    9.4741 C.2     1  UNL1        0.2842
     15 N           7.3684   43.1232   10.1732 N.am    1  UNL1       -0.2778
     16 O           5.9808   41.3639    9.4752 O.2     1  UNL1       -0.2665
     17 H           7.5037   44.0973   10.1271 H       1  UNL1        0.1553
     18 C           5.3495   43.5198    8.7484 C.ar    1  UNL1        0.1988
     19 C           5.6830   44.2175    7.6063 C.ar    1  UNL1        0.0455
     20 C           4.5479   44.9446    7.2926 C.ar    1  UNL1        0.0440
     21 C           3.6042   44.6423    8.2595 C.ar    1  UNL1        0.1798
     22 O           4.1211   43.7889    9.1101 O.2     1  UNL1       -0.4458
     23 C          13.7339   41.4475    7.1469 C.3     1  UNL1        0.1217
     24 F          18.4727   44.3984    7.9948 F       1  UNL1       -0.2018
     25 F          16.5930   45.2877    6.1695 F       1  UNL1       -0.2018
     26 C          17.3317   43.6957    7.7914 C.ar    1  UNL1        0.1674
     27 C          17.1065   42.5154    8.5066 C.ar    1  UNL1        0.0317
     28 C          15.9316   41.7861    8.3015 C.ar    1  UNL1       -0.0002
     29 C          14.9774   42.2379    7.3835 C.ar    1  UNL1        0.0001
     30 C          15.2056   43.4161    6.6640 C.ar    1  UNL1        0.0294
     31 C          16.3800   44.1464    6.8686 C.ar    1  UNL1        0.1671
@<TRIPOS>BOND
     1    26    24    1
     2    27    28   ar
     3    29    30   ar
     4    23    29    1
     5    23     5    1
     6     1     5    1
     7     1     2    1
     8     2     3    1
     9     3     6    1
    10     4     5   am
    11     9    10   ar
    12    11    12   ar
    13    12    15    1
    14    14    18    1
    15    18    22   ar
    16    19    20   ar
    17    21    22   ar
    18    13     8   ar
    19    31    25    1
    20    31    26   ar
    21     6     4   am
    22     6     8    1
    23    15    14   am
    24    26    27   ar
    25    28    29   ar
    26     4     7    2
    27     8     9   ar
    28    10    11   ar
    29    12    13   ar
    30    14    16    2
    31    18    19   ar
    32    20    21   ar
    33    30    31   ar
    34    15    17    1
@<TRIPOS>MOLECULE
MolPort-006-579-716 ChemDiv-V002-8400 MCULE-7113003043 PubChem-46040680 ZINC000037544389 ZINC37544389
 31 34 0 0 0
SMALL
GASTEIGER

@<TRIPOS>ATOM
      1 C          13.4597   39.8854    8.4222 C.3     1  UNL1        0.0971
      2 C          12.8285   38.9600    9.4568 C.3     1  UNL1        0.0435
      3 C          12.6268   39.7341   10.7497 C.3     1  UNL1        0.1015
      4 C          11.8779   41.6309    9.3325 C.2     1  UNL1        0.3112
      5 N          12.6822   41.1149    8.2555 N.am    1  UNL1       -0.2596
      6 N          11.6970   40.8405   10.5256 N.am    1  UNL1       -0.2430
      7 O          11.3330   42.7636    9.2243 O.2     1  UNL1       -0.2520
      8 C          10.6226   41.0656   11.4648 C.ar    1  UNL1        0.0565
      9 C          10.8651   41.0017   12.8469 C.ar    1  UNL1        0.0150
     10 C           9.8294   41.2018   13.7621 C.ar    1  UNL1        0.0026
     11 C           8.5365   41.4640   13.3058 C.ar    1  UNL1        0.0148
     12 C           8.2702   41.5260   11.9311 C.ar    1  UNL1        0.0519
     13 C           9.3140   41.3238   11.0228 C.ar    1  UNL1        0.0296
     14 C           6.4956   41.5834   10.0802 C.2     1  UNL1        0.2842
     15 N           6.9559   41.7909   11.4225 N.am    1  UNL1       -0.2778
     16 O           7.2659   41.1260    9.1932 O.2     1  UNL1       -0.2665
     17 H           6.3008   42.1532   12.0619 H       1  UNL1        0.1553
     18 C           5.1072   41.9108    9.7400 C.ar    1  UNL1        0.1988
     19 C           4.6521   43.1449    9.3250 C.ar    1  UNL1        0.0455
     20 C           3.2935   42.9714    9.1254 C.ar    1  UNL1        0.0440
     21 C           3.0141   41.6501    9.4303 C.ar    1  UNL1        0.1798
     22 O           4.1224   41.0508    9.7930 O.2     1  UNL1       -0.4458
     23 C          12.8943   41.9044    7.0482 C.3     1  UNL1        0.1217
     24 F          17.8966   44.5189    7.2047 F       1  UNL1       -0.2018
     25 F          15.7551   45.6988    5.9097 F       1  UNL1       -0.2018
     26 C          16.6929   43.8971    7.1687 C.ar    1  UNL1        0.1674
     27 C          16.5354   42.6530    7.7874 C.ar    1  UNL1        0.0317
     28 C          15.2963   42.0064    7.7538 C.ar    1  UNL1       -0.0002
     29 C          14.2109   42.6048    7.1047 C.ar    1  UNL1        0.0001
     30 C          14.3703   43.8471    6.4810 C.ar    1  UNL1        0.0294
     31 C          15.6089   44.4947    6.5143 C.ar    1  UNL1        0.1671
@<TRIPOS>BOND
     1    26    24    1
     2    27    28   ar
     3    29    30   ar
     4    23    29    1
     5    23     5    1
     6     1     5    1
     7     1     2    1
     8     2     3    1
     9     3     6    1
    10     4     5   am
    11     9    10   ar
    12    11    12   ar
    13    12    15    1
    14    14    18    1
    15    18    22   ar
    16    19    20   ar
    17    21    22   ar
    18    13     8   ar
    19    31    25    1
    20    31    26   ar
    21     6     4   am
    22     6     8    1
    23    15    14   am
    24    26    27   ar
    25    28    29   ar
    26     4     7    2
    27     8     9   ar
    28    10    11   ar
    29    12    13   ar
    30    14    16    2
    31    18    19   ar
    32    20    21   ar
    33    30    31   ar
    34    15    17    1
@<TRIPOS>MOLECULE
MolPort-006-579-716 ChemDiv-V002-8400 MCULE-7113003043 PubChem-46040680 ZINC000037544389 ZINC37544389
 31 34 0 0 0
SMALL
GASTEIGER

@<TRIPOS>ATOM
      1 C           6.8712   40.9790    6.3023 C.3     1  UNL1        0.0971
      2 C           7.4908   39.5863    6.2623 C.3     1  UNL1        0.0435
      3 C           8.9906   39.7220    6.0541 C.3     1  UNL1        0.1015
      4 C           8.9016   41.6098    7.6651 C.2     1  UNL1        0.3112
      5 N           7.5275   41.8308    7.2961 N.am    1  UNL1       -0.2596
      6 N           9.5859   40.4346    7.1840 N.am    1  UNL1       -0.2430
      7 O           9.4946   42.4381    8.4093 O.2     1  UNL1       -0.2520
      8 C          10.7880   39.9166    7.7956 C.ar    1  UNL1        0.0565
      9 C          10.7707   38.6736    8.4497 C.ar    1  UNL1        0.0150
     10 C          11.9236   38.1724    9.0578 C.ar    1  UNL1        0.0026
     11 C          13.1077   38.9109    9.0232 C.ar    1  UNL1        0.0148
     12 C          13.1464   40.1565    8.3816 C.ar    1  UNL1        0.0519
     13 C          11.9865   40.6498    7.7761 C.ar    1  UNL1        0.0296
     14 C          14.6487   41.9757    7.3758 C.2     1  UNL1        0.2842
     15 N          14.3420   40.9461    8.3258 N.am    1  UNL1       -0.2778
     16 O          13.8361   42.2771    6.4603 O.2     1  UNL1       -0.2665
     17 H          15.0239   40.7620    9.0116 H       1  UNL1        0.1553
     18 C          15.9286   42.6846    7.4753 C.ar    1  UNL1        0.1988
     19 C          16.8813   42.4877    8.4531 C.ar    1  UNL1        0.0455
     20 C          17.8999   43.3696    8.1364 C.ar    1  UNL1        0.0440
     21 C          17.5013   44.0407    6.9928 C.ar    1  UNL1        0.1798
     22 O          16.3197   43.6036    6.6299 O.2     1  UNL1       -0.4458
     23 C           6.8218   43.0212    7.7551 C.3     1  UNL1        0.1217
     24 F           3.3248   41.6951   11.9855 F       1  UNL1       -0.2018
     25 F           5.8723   40.6186   11.9028 F       1  UNL1       -0.2018
     26 C           4.1691   42.0143   10.9744 C.ar    1  UNL1        0.1674
     27 C           3.7482   42.8898    9.9687 C.ar    1  UNL1        0.0317
     28 C           4.6143   43.2231    8.9231 C.ar    1  UNL1       -0.0002
     29 C           5.9049   42.6844    8.8835 C.ar    1  UNL1        0.0001
     30 C           6.3239   41.8040    9.8870 C.ar    1  UNL1        0.0294
     31 C           5.4587   41.4704   10.9333 C.ar    1  UNL1        0.1671
@<TRIPOS>BOND
     1    26    24    1
     2    27    28   ar
     3    29    30   ar
     4    23    29    1
     5    23     5    1
     6     1     5    1
     7     1     2    1
     8     2     3    1
     9     3     6    1
    10     4     5   am
    11     9    10   ar
    12    11    12   ar
    13    12    15    1
    14    14    18    1
    15    18    22   ar
    16    19    20   ar
    17    21    22   ar
    18    13     8   ar
    19    31    25    1
    20    31    26   ar
    21     6     4   am
    22     6     8    1
    23    15    14   am
    24    26    27   ar
    25    28    29   ar
    26     4     7    2
    27     8     9   ar
    28    10    11   ar
    29    12    13   ar
    30    14    16    2
    31    18    19   ar
    32    20    21   ar
    33    30    31   ar
    34    15    17    1
@<TRIPOS>MOLECULE
MolPort-006-579-716 ChemDiv-V002-8400 MCULE-7113003043 PubChem-46040680 ZINC000037544389 ZINC37544389
 31 34 0 0 0
SMALL
GASTEIGER

@<TRIPOS>ATOM
      1 C          11.3393   42.1434    8.8847 C.3     1  UNL1        0.0971
      2 C          11.4374   41.4603   10.2445 C.3     1  UNL1        0.0435
      3 C          10.8612   40.0579   10.1321 C.3     1  UNL1        0.1015
      4 C          12.0332   39.9032    7.9481 C.2     1  UNL1        0.3112
      5 N          11.9590   41.3364    7.8319 N.am    1  UNL1       -0.2596
      6 N          11.6527   39.2705    9.1874 N.am    1  UNL1       -0.2430
      7 O          12.4350   39.2125    6.9718 O.2     1  UNL1       -0.2520
      8 C          12.0579   37.9307    9.5452 C.ar    1  UNL1        0.0565
      9 C          11.1703   37.0803   10.2251 C.ar    1  UNL1        0.0150
     10 C          11.5587   35.7893   10.5894 C.ar    1  UNL1        0.0026
     11 C          12.8421   35.3342   10.2820 C.ar    1  UNL1        0.0148
     12 C          13.7464   36.1679    9.6098 C.ar    1  UNL1        0.0519
     13 C          13.3480   37.4590    9.2497 C.ar    1  UNL1        0.0296
     14 C          15.4580   34.4591    8.7560 C.2     1  UNL1        0.2842
     15 N          15.0736   35.7385    9.2778 N.am    1  UNL1       -0.2778
     16 O          14.5995   33.5613    8.5411 O.2     1  UNL1       -0.2665
     17 H          15.7969   36.3904    9.4232 H       1  UNL1        0.1553
     18 C          16.8724   34.1969    8.4709 C.ar    1  UNL1        0.1988
     19 C          17.3578   33.5245    7.3688 C.ar    1  UNL1        0.0455
     20 C          18.7322   33.5247    7.5321 C.ar    1  UNL1        0.0440
     21 C          18.9901   34.1941    8.7163 C.ar    1  UNL1        0.1798
     22 O          17.8546   34.5792    9.2464 O.2     1  UNL1       -0.4458
     23 C          12.3203   41.9959    6.5827 C.3     1  UNL1        0.1217
     24 F          17.3702   44.4872    7.0007 F       1  UNL1       -0.2018
     25 F          15.3271   45.7203    5.6004 F       1  UNL1       -0.2018
     26 C          16.1551   43.8950    6.9017 C.ar    1  UNL1        0.1674
     27 C          15.9359   42.6545    7.5088 C.ar    1  UNL1        0.0317
     28 C          14.6848   42.0385    7.4104 C.ar    1  UNL1       -0.0002
     29 C          13.6489   42.6638    6.7080 C.ar    1  UNL1        0.0001
     30 C          13.8702   43.9025    6.0960 C.ar    1  UNL1        0.0294
     31 C          15.1209   44.5196    6.1941 C.ar    1  UNL1        0.1671
@<TRIPOS>BOND
     1    26    24    1
     2    27    28   ar
     3    29    30   ar
     4    23    29    1
     5    23     5    1
     6     1     5    1
     7     1     2    1
     8     2     3    1
     9     3     6    1
    10     4     5   am
    11     9    10   ar
    12    11    12   ar
    13    12    15    1
    14    14    18    1
    15    18    22   ar
    16    19    20   ar
    17    21    22   ar
    18    13     8   ar
    19    31    25    1
    20    31    26   ar
    21     6     4   am
    22     6     8    1
    23    15    14   am
    24    26    27   ar
    25    28    29   ar
    26     4     7    2
    27     8     9   ar
    28    10    11   ar
    29    12    13   ar
    30    14    16    2
    31    18    19   ar
    32    20    21   ar
    33    30    31   ar
    34    15    17    1
@<TRIPOS>MOLECULE
MolPort-006-579-716 ChemDiv-V002-8400 MCULE-7113003043 PubChem-46040680 ZINC000037544389 ZINC37544389
 31 34 0 0 0
SMALL
GASTEIGER

@<TRIPOS>ATOM
      1 C          11.2730   42.5989    8.8172 C.3     1  UNL1        0.0971
      2 C          11.4017   41.9501   10.1911 C.3     1  UNL1        0.0435
      3 C          10.8253   40.5448   10.1263 C.3     1  UNL1        0.1015
      4 C          11.9496   40.3366    7.9218 C.2     1  UNL1        0.3112
      5 N          11.8708   41.7664    7.7715 N.am    1  UNL1       -0.2596
      6 N          11.5971   39.7348    9.1846 N.am    1  UNL1       -0.2430
      7 O          12.3310   39.6221    6.9546 O.2     1  UNL1       -0.2520
      8 C          12.0119   38.4047    9.5668 C.ar    1  UNL1        0.0565
      9 C          11.0559   37.4419    9.9306 C.ar    1  UNL1        0.0150
     10 C          11.4484   36.1586   10.3171 C.ar    1  UNL1        0.0026
     11 C          12.8032   35.8236   10.3490 C.ar    1  UNL1        0.0148
     12 C          13.7748   36.7704    9.9962 C.ar    1  UNL1        0.0519
     13 C          13.3715   38.0527    9.6110 C.ar    1  UNL1        0.0296
     14 C          16.2565   37.3727    9.7590 C.2     1  UNL1        0.2842
     15 N          15.1758   36.4661   10.0178 N.am    1  UNL1       -0.2778
     16 O          16.0361   38.5804    9.4724 O.2     1  UNL1       -0.2665
     17 H          15.4217   35.5373   10.2328 H       1  UNL1        0.1553
     18 C          17.6366   36.8815    9.8295 C.ar    1  UNL1        0.1988
     19 C          18.4664   36.9742   10.9274 C.ar    1  UNL1        0.0455
     20 C          19.6513   36.3827   10.5253 C.ar    1  UNL1        0.0440
     21 C          19.4644   35.9715    9.2165 C.ar    1  UNL1        0.1798
     22 O          18.2496   36.2875    8.8378 O.2     1  UNL1       -0.4458
     23 C          12.2039   42.3948    6.4987 C.3     1  UNL1        0.1217
     24 F          17.4969   44.3580    6.6140 F       1  UNL1       -0.2018
     25 F          16.8008   42.1563    8.1384 F       1  UNL1       -0.2018
     26 C          16.2287   43.8806    6.5858 C.ar    1  UNL1        0.1674
     27 C          15.2690   44.5061    5.7839 C.ar    1  UNL1        0.0317
     28 C          13.9593   44.0185    5.7504 C.ar    1  UNL1       -0.0002
     29 C          13.6075   42.9015    6.5159 C.ar    1  UNL1        0.0001
     30 C          14.5666   42.2791    7.3224 C.ar    1  UNL1        0.0294
     31 C          15.8768   42.7657    7.3563 C.ar    1  UNL1        0.1671
@<TRIPOS>BOND
     1    26    24    1
     2    27    28   ar
     3    29    30   ar
     4    23    29    1
     5    23     5    1
     6     1     5    1
     7     1     2    1
     8     2     3    1
     9     3     6    1
    10     4     5   am
    11     9    10   ar
    12    11    12   ar
    13    12    15    1
    14    14    18    1
    15    18    22   ar
    16    19    20   ar
    17    21    22   ar
    18    13     8   ar
    19    31    25    1
    20    31    26   ar
    21     6     4   am
    22     6     8    1
    23    15    14   am
    24    26    27   ar
    25    28    29   ar
    26     4     7    2
    27     8     9   ar
    28    10    11   ar
    29    12    13   ar
    30    14    16    2
    31    18    19   ar
    32    20    21   ar
    33    30    31   ar
    34    15    17    1
@<TRIPOS>MOLECULE
MolPort-006-579-716 ChemDiv-V002-8400 MCULE-7113003043 PubChem-46040680 ZINC000037544389 ZINC37544389
 31 34 0 0 0
SMALL
GASTEIGER

@<TRIPOS>ATOM
      1 C           8.0296   41.9783   10.2011 C.3     1  UNL1        0.0971
      2 C           9.2825   42.3351   10.9937 C.3     1  UNL1        0.0435
      3 C          10.0482   41.0585   11.3026 C.3     1  UNL1        0.1015
      4 C           9.5247   40.3495    8.9808 C.2     1  UNL1        0.3112
      5 N           8.3526   41.1852    9.0135 N.am    1  UNL1       -0.2596
      6 N          10.4821   40.4265   10.0571 N.am    1  UNL1       -0.2430
      7 O           9.7101   39.5629    8.0120 O.2     1  UNL1       -0.2520
      8 C          11.8428   39.9560    9.9368 C.ar    1  UNL1        0.0565
      9 C          12.1772   38.6487   10.3270 C.ar    1  UNL1        0.0150
     10 C          13.4928   38.1905   10.2296 C.ar    1  UNL1        0.0026
     11 C          14.4918   39.0364    9.7446 C.ar    1  UNL1        0.0148
     12 C          14.1821   40.3469    9.3555 C.ar    1  UNL1        0.0519
     13 C          12.8618   40.7962    9.4573 C.ar    1  UNL1        0.0296
     14 C          15.0953   42.0496    7.6688 C.2     1  UNL1        0.2842
     15 N          15.1795   41.2468    8.8542 N.am    1  UNL1       -0.2778
     16 O          14.0718   42.0162    6.9336 O.2     1  UNL1       -0.2665
     17 H          16.0092   41.3214    9.3789 H       1  UNL1        0.1553
     18 C          16.2202   42.9199    7.3112 C.ar    1  UNL1        0.1988
     19 C          17.3107   43.1916    8.1109 C.ar    1  UNL1        0.0455
     20 C          18.0948   44.0493    7.3593 C.ar    1  UNL1        0.0440
     21 C          17.4329   44.2411    6.1585 C.ar    1  UNL1        0.1798
     22 O          16.3185   43.5505    6.1689 O.2     1  UNL1       -0.4458
     23 C           7.3622   41.1104    7.9462 C.3     1  UNL1        0.1217
     24 F           3.4273   45.1194    8.5184 F       1  UNL1       -0.2018
     25 F           3.1191   42.6820    9.7911 F       1  UNL1       -0.2018
     26 C           4.3715   44.1559    8.3876 C.ar    1  UNL1        0.1674
     27 C           5.5044   44.3960    7.6039 C.ar    1  UNL1        0.0317
     28 C           6.4820   43.4064    7.4650 C.ar    1  UNL1       -0.0002
     29 C           6.3305   42.1757    8.1131 C.ar    1  UNL1        0.0001
     30 C           5.1941   41.9338    8.8927 C.ar    1  UNL1        0.0294
     31 C           4.2161   42.9230    9.0326 C.ar    1  UNL1        0.1671
@<TRIPOS>BOND
     1    26    24    1
     2    27    28   ar
     3    29    30   ar
     4    23    29    1
     5    23     5    1
     6     1     5    1
     7     1     2    1
     8     2     3    1
     9     3     6    1
    10     4     5   am
    11     9    10   ar
    12    11    12   ar
    13    12    15    1
    14    14    18    1
    15    18    22   ar
    16    19    20   ar
    17    21    22   ar
    18    13     8   ar
    19    31    25    1
    20    31    26   ar
    21     6     4   am
    22     6     8    1
    23    15    14   am
    24    26    27   ar
    25    28    29   ar
    26     4     7    2
    27     8     9   ar
    28    10    11   ar
    29    12    13   ar
    30    14    16    2
    31    18    19   ar
    32    20    21   ar
    33    30    31   ar
    34    15    17    1
@<TRIPOS>MOLECULE
MolPort-006-579-716 ChemDiv-V002-8400 MCULE-7113003043 PubChem-46040680 ZINC000037544389 ZINC37544389
 31 34 0 0 0
SMALL
GASTEIGER

@<TRIPOS>ATOM
      1 C           8.0589   41.8265   11.6151 C.3     1  UNL1        0.0971
      2 C           9.4801   42.3062   11.3407 C.3     1  UNL1        0.0435
      3 C          10.2082   41.2462   10.5299 C.3     1  UNL1        0.1015
      4 C           8.1068   40.9978    9.2300 C.2     1  UNL1        0.3112
      5 N           7.3685   41.4560   10.3782 N.am    1  UNL1       -0.2596
      6 N           9.5475   41.0696    9.2371 N.am    1  UNL1       -0.2430
      7 O           7.4918   40.5444    8.2261 O.2     1  UNL1       -0.2520
      8 C          10.3450   41.0238    8.0333 C.ar    1  UNL1        0.0565
      9 C           9.9274   40.2523    6.9362 C.ar    1  UNL1        0.0150
     10 C          10.6998   40.1890    5.7744 C.ar    1  UNL1        0.0026
     11 C          11.9025   40.8934    5.6973 C.ar    1  UNL1        0.0148
     12 C          12.3418   41.6644    6.7823 C.ar    1  UNL1        0.0519
     13 C          11.5614   41.7209    7.9412 C.ar    1  UNL1        0.0296
     14 C          14.7824   42.0899    7.4463 C.2     1  UNL1        0.2842
     15 N          13.5717   42.4007    6.7431 N.am    1  UNL1       -0.2778
     16 O          14.8545   41.0825    8.2007 O.2     1  UNL1       -0.2665
     17 H          13.5865   43.2037    6.1738 H       1  UNL1        0.1553
     18 C          15.9505   42.9612    7.2820 C.ar    1  UNL1        0.1988
     19 C          16.2272   43.7318    6.1720 C.ar    1  UNL1        0.0455
     20 C          17.4168   44.3716    6.4740 C.ar    1  UNL1        0.0440
     21 C          17.7825   43.9500    7.7410 C.ar    1  UNL1        0.1798
     22 O          16.8820   43.1090    8.1889 O.2     1  UNL1       -0.4458
     23 C           5.9129   41.3753   10.4006 C.3     1  UNL1        0.1217
     24 F           3.6537   45.5382    7.3267 F       1  UNL1       -0.2018
     25 F           6.3861   45.1055    7.2798 F       1  UNL1       -0.2018
     26 C           4.1997   44.5372    8.0593 C.ar    1  UNL1        0.1674
     27 C           3.3771   43.7222    8.8432 C.ar    1  UNL1        0.0317
     28 C           3.9342   42.6880    9.6011 C.ar    1  UNL1       -0.0002
     29 C           5.3149   42.4641    9.5735 C.ar    1  UNL1        0.0001
     30 C           6.1384   43.2832    8.7933 C.ar    1  UNL1        0.0294
     31 C           5.5823   44.3175    8.0347 C.ar    1  UNL1        0.1671
@<TRIPOS>BOND
     1    26    24    1
     2    27    28   ar
     3    29    30   ar
     4    23    29    1
     5    23     5    1
     6     1     5    1
     7     1     2    1
     8     2     3    1
     9     3     6    1
    10     4     5   am
    11     9    10   ar
    12    11    12   ar
    13    12    15    1
    14    14    18    1
    15    18    22   ar
    16    19    20   ar
    17    21    22   ar
    18    13     8   ar
    19    31    25    1
    20    31    26   ar
    21     6     4   am
    22     6     8    1
    23    15    14   am
    24    26    27   ar
    25    28    29   ar
    26     4     7    2
    27     8     9   ar
    28    10    11   ar
    29    12    13   ar
    30    14    16    2
    31    18    19   ar
    32    20    21   ar
    33    30    31   ar
    34    15    17    1
@<TRIPOS>MOLECULE
MolPort-006-579-716 ChemDiv-V002-8400 MCULE-7113003043 PubChem-46040680 ZINC000037544389 ZINC37544389
 31 34 0 0 0
SMALL
GASTEIGER

@<TRIPOS>ATOM
      1 C          13.9884   39.9357   10.9751 C.3     1  UNL1        0.0971
      2 C          12.6187   39.4844   11.4705 C.3     1  UNL1        0.0435
      3 C          11.5491   40.3203   10.7860 C.3     1  UNL1        0.1015
      4 C          12.8855   40.0735    8.7075 C.2     1  UNL1        0.3112
      5 N          14.0672   39.9076    9.5133 N.am    1  UNL1       -0.2596
      6 N          11.5901   40.0926    9.3419 N.am    1  UNL1       -0.2430
      7 O          12.9890   40.1940    7.4559 O.2     1  UNL1       -0.2520
      8 C          10.3585   39.8512    8.6265 C.ar    1  UNL1        0.0565
      9 C          10.1200   38.6028    8.0283 C.ar    1  UNL1        0.0150
     10 C           8.9395   38.3654    7.3209 C.ar    1  UNL1        0.0026
     11 C           7.9842   39.3760    7.1991 C.ar    1  UNL1        0.0148
     12 C           8.2040   40.6315    7.7825 C.ar    1  UNL1        0.0519
     13 C           9.3894   40.8592    8.4883 C.ar    1  UNL1        0.0296
     14 C           6.2005   42.0039    8.6074 C.2     1  UNL1        0.2842
     15 N           7.2487   41.6957    7.6784 N.am    1  UNL1       -0.2778
     16 O           6.0321   41.3133    9.6486 O.2     1  UNL1       -0.2665
     17 H           7.3198   42.2757    6.8860 H       1  UNL1        0.1553
     18 C           5.3139   43.1402    8.3365 C.ar    1  UNL1        0.1988
     19 C           5.6031   44.2043    7.5079 C.ar    1  UNL1        0.0455
     20 C           4.4816   45.0131    7.5673 C.ar    1  UNL1        0.0440
     21 C           3.5892   44.3904    8.4234 C.ar    1  UNL1        0.1798
     22 O           4.1230   43.2760    8.8615 O.2     1  UNL1       -0.4458
     23 C          15.3879   39.9043    8.8957 C.3     1  UNL1        0.1217
     24 F          16.6318   45.0665    6.9752 F       1  UNL1       -0.2018
     25 F          18.4314   43.7146    8.5844 F       1  UNL1       -0.2018
     26 C          16.3394   43.8254    7.4346 C.ar    1  UNL1        0.1674
     27 C          15.1215   43.2283    7.0944 C.ar    1  UNL1        0.0317
     28 C          14.8140   41.9483    7.5651 C.ar    1  UNL1       -0.0002
     29 C          15.7257   41.2610    8.3737 C.ar    1  UNL1        0.0001
     30 C          16.9418   41.8610    8.7184 C.ar    1  UNL1        0.0294
     31 C          17.2506   43.1408    8.2480 C.ar    1  UNL1        0.1671
@<TRIPOS>BOND
     1    26    24    1
     2    27    28   ar
     3    29    30   ar
     4    23    29    1
     5    23     5    1
     6     1     5    1
     7     1     2    1
     8     2     3    1
     9     3     6    1
    10     4     5   am
    11     9    10   ar
    12    11    12   ar
    13    12    15    1
    14    14    18    1
    15    18    22   ar
    16    19    20   ar
    17    21    22   ar
    18    13     8   ar
    19    31    25    1
    20    31    26   ar
    21     6     4   am
    22     6     8    1
    23    15    14   am
    24    26    27   ar
    25    28    29   ar
    26     4     7    2
    27     8     9   ar
    28    10    11   ar
    29    12    13   ar
    30    14    16    2
    31    18    19   ar
    32    20    21   ar
    33    30    31   ar
    34    15    17    1
@<TRIPOS>MOLECULE
MolPort-006-579-716 ChemDiv-V002-8400 MCULE-7113003043 PubChem-46040680 ZINC000037544389 ZINC37544389
 31 34 0 0 0
SMALL
GASTEIGER

@<TRIPOS>ATOM
      1 C           8.8632   40.1532    6.3954 C.3     1  UNL1        0.0971
      2 C          10.1374   39.7874    5.6419 C.3     1  UNL1        0.0435
      3 C          10.9211   41.0585    5.3565 C.3     1  UNL1        0.1015
      4 C          10.3313   41.7721    7.6608 C.2     1  UNL1        0.3112
      5 N           9.1550   40.9446    7.5922 N.am    1  UNL1       -0.2596
      6 N          11.3209   41.6880    6.6146 N.am    1  UNL1       -0.2430
      7 O          10.4922   42.5578    8.6347 O.2     1  UNL1       -0.2520
      8 C          12.6804   42.1490    6.7766 C.ar    1  UNL1        0.0565
      9 C          13.0945   43.3546    6.1864 C.ar    1  UNL1        0.0150
     10 C          14.4109   43.8001    6.3240 C.ar    1  UNL1        0.0026
     11 C          15.3312   43.0424    7.0504 C.ar    1  UNL1        0.0148
     12 C          14.9417   41.8332    7.6425 C.ar    1  UNL1        0.0519
     13 C          13.6214   41.3956    7.4985 C.ar    1  UNL1        0.0296
     14 C          15.5552   40.2354    9.5528 C.2     1  UNL1        0.2842
     15 N          15.8572   41.0254    8.3946 N.am    1  UNL1       -0.2778
     16 O          14.3867   40.1950   10.0243 O.2     1  UNL1       -0.2665
     17 H          16.7910   41.0118    8.0832 H       1  UNL1        0.1553
     18 C          16.6259   39.4656   10.1944 C.ar    1  UNL1        0.1988
     19 C          16.4590   38.5609   11.2221 C.ar    1  UNL1        0.0455
     20 C          17.7337   38.0939   11.4918 C.ar    1  UNL1        0.0440
     21 C          18.5867   38.7419   10.6146 C.ar    1  UNL1        0.1798
     22 O          17.8873   39.5520    9.8573 O.2     1  UNL1       -0.4458
     23 C           8.1327   41.0268    8.6285 C.3     1  UNL1        0.1217
     24 F           4.5063   45.2043    7.4964 F       1  UNL1       -0.2018
     25 F           4.0845   43.5547    9.6774 F       1  UNL1       -0.2018
     26 C           5.3767   44.2032    7.7746 C.ar    1  UNL1        0.1674
     27 C           6.4907   44.0037    6.9533 C.ar    1  UNL1        0.0317
     28 C           7.3922   42.9729    7.2349 C.ar    1  UNL1       -0.0002
     29 C           7.1835   42.1420    8.3410 C.ar    1  UNL1        0.0001
     30 C           6.0658   42.3385    9.1594 C.ar    1  UNL1        0.0294
     31 C           5.1638   43.3692    8.8789 C.ar    1  UNL1        0.1671
@<TRIPOS>BOND
     1    26    24    1
     2    27    28   ar
     3    29    30   ar
     4    23    29    1
     5    23     5    1
     6     1     5    1
     7     1     2    1
     8     2     3    1
     9     3     6    1
    10     4     5   am
    11     9    10   ar
    12    11    12   ar
    13    12    15    1
    14    14    18    1
    15    18    22   ar
    16    19    20   ar
    17    21    22   ar
    18    13     8   ar
    19    31    25    1
    20    31    26   ar
    21     6     4   am
    22     6     8    1
    23    15    14   am
    24    26    27   ar
    25    28    29   ar
    26     4     7    2
    27     8     9   ar
    28    10    11   ar
    29    12    13   ar
    30    14    16    2
    31    18    19   ar
    32    20    21   ar
    33    30    31   ar
    34    15    17    1
@<TRIPOS>MOLECULE
MolPort-006-579-716 ChemDiv-V002-8400 MCULE-7113003043 PubChem-46040680 ZINC000037544389 ZINC37544389
 31 34 0 0 0
SMALL
GASTEIGER

@<TRIPOS>ATOM
      1 C           7.2849   40.7167    8.0578 C.3     1  UNL1        0.0971
      2 C           8.3530   39.8368    7.4176 C.3     1  UNL1        0.0435
      3 C           9.6852   40.5675    7.4664 C.3     1  UNL1        0.1015
      4 C           9.0615   41.2593    9.7685 C.2     1  UNL1        0.3112
      5 N           7.6736   41.1399    9.4045 N.am    1  UNL1       -0.2596
      6 N          10.0774   40.7917    8.8574 N.am    1  UNL1       -0.2430
      7 O           9.3795   41.7639   10.8802 O.2     1  UNL1       -0.2520
      8 C          11.4299   40.4951    9.2698 C.ar    1  UNL1        0.0565
      9 C          11.6689   39.5830   10.3110 C.ar    1  UNL1        0.0150
     10 C          12.9720   39.3023   10.7273 C.ar    1  UNL1        0.0026
     11 C          14.0528   39.9343   10.1100 C.ar    1  UNL1        0.0148
     12 C          13.8375   40.8528    9.0733 C.ar    1  UNL1        0.0519
     13 C          12.5289   41.1273    8.6640 C.ar    1  UNL1        0.0296
     14 C          14.8249   42.6552    7.5388 C.2     1  UNL1        0.2842
     15 N          14.9203   41.5241    8.4153 N.am    1  UNL1       -0.2778
     16 O          13.7080   43.1714    7.2645 O.2     1  UNL1       -0.2665
     17 H          15.8242   41.1715    8.5829 H       1  UNL1        0.1553
     18 C          16.0484   43.2150    6.9553 C.ar    1  UNL1        0.1988
     19 C          16.1592   43.7598    5.6930 C.ar    1  UNL1        0.0455
     20 C          17.4835   44.1489    5.5914 C.ar    1  UNL1        0.0440
     21 C          18.0870   43.8169    6.7924 C.ar    1  UNL1        0.1798
     22 O          17.1975   43.2616    7.5794 O.2     1  UNL1       -0.4458
     23 C           6.6305   41.6232   10.3015 C.3     1  UNL1        0.1217
     24 F           3.1178   45.1418    7.6251 F       1  UNL1       -0.2018
     25 F           5.8533   45.3987    7.2983 F       1  UNL1       -0.2018
     26 C           3.9645   44.2965    8.2619 C.ar    1  UNL1        0.1674
     27 C           3.4514   43.2924    9.0888 C.ar    1  UNL1        0.0317
     28 C           4.3194   42.4173    9.7484 C.ar    1  UNL1       -0.0002
     29 C           5.7026   42.5420    9.5791 C.ar    1  UNL1        0.0001
     30 C           6.2159   43.5504    8.7560 C.ar    1  UNL1        0.0294
     31 C           5.3487   44.4258    8.0956 C.ar    1  UNL1        0.1671
@<TRIPOS>BOND
     1    26    24    1
     2    27    28   ar
     3    29    30   ar
     4    23    29    1
     5    23     5    1
     6     1     5    1
     7     1     2    1
     8     2     3    1
     9     3     6    1
    10     4     5   am
    11     9    10   ar
    12    11    12   ar
    13    12    15    1
    14    14    18    1
    15    18    22   ar
    16    19    20   ar
    17    21    22   ar
    18    13     8   ar
    19    31    25    1
    20    31    26   ar
    21     6     4   am
    22     6     8    1
    23    15    14   am
    24    26    27   ar
    25    28    29   ar
    26     4     7    2
    27     8     9   ar
    28    10    11   ar
    29    12    13   ar
    30    14    16    2
    31    18    19   ar
    32    20    21   ar
    33    30    31   ar
    34    15    17    1
