@<TRIPOS>MOLECULE
MolPort-046-958-460 MCULE-2708163713 PubChem-110093732
 31 34 0 0 0
SMALL
GASTEIGER

@<TRIPOS>ATOM
      1 C           7.1109   41.4570    6.5703 C.3     1  UNL1        0.0958
      2 C           7.1040   40.4348    7.7082 C.3     1  UNL1        0.0196
      3 C           8.5300   40.0937    8.1033 C.3     1  UNL1        0.0089
      4 C           9.2544   41.3682    8.5136 C.3     1  UNL1        0.0581
      5 C           9.2228   42.3909    7.3725 C.3     1  UNL1        0.1017
      6 N           7.8586   42.6789    6.9057 N.3     1  UNL1       -0.1551
      7 C          10.6592   41.0784    8.9355 C.ar    1  UNL1        0.0614
      8 C          12.9751   41.0522    8.3733 C.ar    1  UNL1        0.1328
      9 C          13.2897   40.5609    9.6475 C.ar    1  UNL1        0.0344
     10 C          12.2686   40.3289   10.5691 C.ar    1  UNL1        0.0041
     11 C          10.9446   40.5872   10.2165 C.ar    1  UNL1        0.0149
     12 N          11.6742   41.2957    8.0553 N.ar    1  UNL1       -0.2348
     13 N          13.9868   41.3074    7.3886 N.pl3   1  UNL1       -0.2821
     14 H          14.4251   40.5166    6.9990 H       1  UNL1        0.1551
     15 C          14.4328   42.5821    6.9067 C.ar    1  UNL1        0.1526
     16 C          16.0522   44.3133    6.8152 C.ar    1  UNL1        0.1210
     17 C          15.2327   45.0354    5.9465 C.ar    1  UNL1        0.1196
     18 C          13.6156   43.3078    6.0372 C.ar    1  UNL1        0.1332
     19 N          15.6350   43.1046    7.2755 N.ar    1  UNL1       -0.2258
     20 N          14.0323   44.5168    5.5766 N.ar    1  UNL1       -0.2378
     21 S           6.9926   43.6609    8.0568 S.O2    1  UNL1        0.0633
     22 O           7.9412   44.5215    8.8458 O.2     1  UNL1       -0.1528
     23 O           6.0267   44.5541    7.3295 O.2     1  UNL1       -0.1528
     24 C           3.9355   40.0526   11.8295 C.3     1  UNL1        0.0307
     25 C           4.6651   40.9468   10.8847 C.ar    1  UNL1       -0.0257
     26 C           4.0518   41.4444    9.7196 C.ar    1  UNL1       -0.0245
     27 C           4.7719   42.2800    8.8601 C.ar    1  UNL1        0.0153
     28 C           6.0948   42.6254    9.1534 C.ar    1  UNL1        0.1219
     29 C           6.7034   42.1269   10.3094 C.ar    1  UNL1        0.0196
     30 C           5.9898   41.2914   11.1722 C.ar    1  UNL1       -0.0032
     31 C           2.6429   41.1012    9.3718 C.3     1  UNL1        0.0307
@<TRIPOS>BOND
     1    24    25    1
     2    26    27   ar
     3    28    29   ar
     4    30    25   ar
     5     1     6    1
     6     1     2    1
     7     2     3    1
     8     3     4    1
     9     4     5    1
    10     4     7    1
    11     5     6    1
    12     8    12   ar
    13     8    13    1
    14     9    10   ar
    15    11     7   ar
    16    16    19   ar
    17    17    20   ar
    18    18    15   ar
    19    31    26    1
    20    21    28    1
    21    21     6    1
    22    13    15    1
    23    25    26   ar
    24    27    28   ar
    25    29    30   ar
    26     7    12   ar
    27     8     9   ar
    28    10    11   ar
    29    15    19   ar
    30    16    17   ar
    31    18    20   ar
    32    21    22    2
    33    21    23    2
    34    13    14    1
@<TRIPOS>MOLECULE
MolPort-046-958-460 MCULE-2708163713 PubChem-110093732
 31 34 0 0 0
SMALL
GASTEIGER

@<TRIPOS>ATOM
      1 C          14.6757   39.1273   11.0973 C.3     1  UNL1        0.0958
      2 C          13.2379   39.5660   11.3795 C.3     1  UNL1        0.0196
      3 C          12.6904   40.3345   10.1896 C.3     1  UNL1        0.0089
      4 C          12.7635   39.4552    8.9491 C.3     1  UNL1        0.0581
      5 C          14.2060   39.0003    8.7016 C.3     1  UNL1        0.1017
      6 N          14.7975   38.3282    9.8679 N.3     1  UNL1       -0.1551
      7 C          12.2114   40.1624    7.7531 C.ar    1  UNL1        0.0614
      8 C          12.3735   41.9879    6.2295 C.ar    1  UNL1        0.1328
      9 C          11.2415   41.5288    5.5425 C.ar    1  UNL1        0.0344
     10 C          10.5943   40.3713    5.9750 C.ar    1  UNL1        0.0041
     11 C          11.0773   39.6806    7.0856 C.ar    1  UNL1        0.0149
     12 N          12.8239   41.2943    7.3106 N.ar    1  UNL1       -0.2348
     13 N          13.0757   43.1724    5.8266 N.pl3   1  UNL1       -0.2821
     14 H          12.5800   43.7981    5.2504 H       1  UNL1        0.1551
     15 C          14.4165   43.5495    6.1670 C.ar    1  UNL1        0.1526
     16 C          16.4732   43.1248    7.2706 C.ar    1  UNL1        0.1210
     17 C          16.9838   44.3293    6.7848 C.ar    1  UNL1        0.1196
     18 C          14.9312   44.7542    5.6827 C.ar    1  UNL1        0.1332
     19 N          15.2030   42.7620    6.9516 N.ar    1  UNL1       -0.2258
     20 N          16.2016   45.1176    6.0015 N.ar    1  UNL1       -0.2378
     21 S          14.1340   36.7297   10.0780 S.O2    1  UNL1        0.0633
     22 O          14.2487   36.2875   11.5112 O.2     1  UNL1       -0.1528
     23 O          12.6811   36.7338    9.6922 O.2     1  UNL1       -0.1528
     24 C          17.0814   32.8582    6.4832 C.3     1  UNL1        0.0307
     25 C          16.3409   33.7907    7.3813 C.ar    1  UNL1       -0.0257
     26 C          15.2844   33.3438    8.1971 C.ar    1  UNL1       -0.0245
     27 C          14.6159   34.2514    9.0245 C.ar    1  UNL1        0.0153
     28 C          14.9931   35.5978    9.0477 C.ar    1  UNL1        0.1219
     29 C          16.0403   36.0404    8.2336 C.ar    1  UNL1        0.0196
     30 C          16.7121   35.1389    7.4043 C.ar    1  UNL1       -0.0032
     31 C          14.8529   31.9163    8.2029 C.3     1  UNL1        0.0307
@<TRIPOS>BOND
     1    24    25    1
     2    26    27   ar
     3    28    29   ar
     4    30    25   ar
     5     1     6    1
     6     1     2    1
     7     2     3    1
     8     3     4    1
     9     4     5    1
    10     4     7    1
    11     5     6    1
    12     8    12   ar
    13     8    13    1
    14     9    10   ar
    15    11     7   ar
    16    16    19   ar
    17    17    20   ar
    18    18    15   ar
    19    31    26    1
    20    21    28    1
    21    21     6    1
    22    13    15    1
    23    25    26   ar
    24    27    28   ar
    25    29    30   ar
    26     7    12   ar
    27     8     9   ar
    28    10    11   ar
    29    15    19   ar
    30    16    17   ar
    31    18    20   ar
    32    21    22    2
    33    21    23    2
    34    13    14    1
@<TRIPOS>MOLECULE
MolPort-046-958-460 MCULE-2708163713 PubChem-110093732
 31 34 0 0 0
SMALL
GASTEIGER

@<TRIPOS>ATOM
      1 C          10.0325   40.8903    7.9810 C.3     1  UNL1        0.0958
      2 C          10.0078   39.5669    8.7475 C.3     1  UNL1        0.0196
      3 C          11.4252   39.1439    9.0915 C.3     1  UNL1        0.0089
      4 C          12.0904   40.2413    9.9103 C.3     1  UNL1        0.0581
      5 C          12.0768   41.5656    9.1389 C.3     1  UNL1        0.1017
      6 N          10.7260   41.9612    8.7137 N.3     1  UNL1       -0.1551
      7 C          13.4837   39.8586   10.2944 C.ar    1  UNL1        0.0614
      8 C          15.8247   40.1059    9.9215 C.ar    1  UNL1        0.1328
      9 C          16.0957   39.1935   10.9502 C.ar    1  UNL1        0.0344
     10 C          15.0401   38.6124   11.6529 C.ar    1  UNL1        0.0041
     11 C          13.7252   38.9429   11.3275 C.ar    1  UNL1        0.0149
     12 N          14.5318   40.4108    9.6245 N.ar    1  UNL1       -0.2348
     13 N          16.8730   40.7315    9.1679 N.pl3   1  UNL1       -0.2821
     14 H          17.7414   40.2676    9.1612 H       1  UNL1        0.1551
     15 C          16.8012   41.9548    8.4234 C.ar    1  UNL1        0.1526
     16 C          17.7697   43.9877    7.6769 C.ar    1  UNL1        0.1210
     17 C          16.6015   44.2877    6.9749 C.ar    1  UNL1        0.1196
     18 C          15.6338   42.2586    7.7195 C.ar    1  UNL1        0.1332
     19 N          17.8438   42.8299    8.3846 N.ar    1  UNL1       -0.2258
     20 N          15.5591   43.4166    7.0116 N.ar    1  UNL1       -0.2378
     21 S           9.7798   42.5257   10.0648 S.O2    1  UNL1        0.0633
     22 O           9.6697   41.4613   11.1220 O.2     1  UNL1       -0.1528
     23 O          10.4375   43.7351   10.6686 O.2     1  UNL1       -0.1528
     24 C           4.2436   44.0917    8.1951 C.3     1  UNL1        0.0307
     25 C           5.5992   43.6790    8.6603 C.ar    1  UNL1       -0.0257
     26 C           5.8304   42.4082    9.2199 C.ar    1  UNL1       -0.0245
     27 C           7.1170   42.0613    9.6439 C.ar    1  UNL1        0.0153
     28 C           8.1736   42.9677    9.5124 C.ar    1  UNL1        0.1219
     29 C           7.9409   44.2310    8.9598 C.ar    1  UNL1        0.0196
     30 C           6.6579   44.5841    8.5345 C.ar    1  UNL1       -0.0032
     31 C           4.7313   41.4124    9.3760 C.3     1  UNL1        0.0307
@<TRIPOS>BOND
     1    24    25    1
     2    26    27   ar
     3    28    29   ar
     4    30    25   ar
     5     1     6    1
     6     1     2    1
     7     2     3    1
     8     3     4    1
     9     4     5    1
    10     4     7    1
    11     5     6    1
    12     8    12   ar
    13     8    13    1
    14     9    10   ar
    15    11     7   ar
    16    16    19   ar
    17    17    20   ar
    18    18    15   ar
    19    31    26    1
    20    21    28    1
    21    21     6    1
    22    13    15    1
    23    25    26   ar
    24    27    28   ar
    25    29    30   ar
    26     7    12   ar
    27     8     9   ar
    28    10    11   ar
    29    15    19   ar
    30    16    17   ar
    31    18    20   ar
    32    21    22    2
    33    21    23    2
    34    13    14    1
@<TRIPOS>MOLECULE
MolPort-046-958-460 MCULE-2708163713 PubChem-110093732
 31 34 0 0 0
SMALL
GASTEIGER

@<TRIPOS>ATOM
      1 C           8.9283   41.5636    7.8021 C.3     1  UNL1        0.0958
      2 C           9.0414   40.1752    8.4338 C.3     1  UNL1        0.0196
      3 C          10.5040   39.8057    8.6083 C.3     1  UNL1        0.0089
      4 C          11.1871   40.8589    9.4694 C.3     1  UNL1        0.0581
      5 C          11.0355   42.2465    8.8364 C.3     1  UNL1        0.1017
      6 N           9.6329   42.6001    8.5728 N.3     1  UNL1       -0.1551
      7 C          12.6276   40.5244    9.6898 C.ar    1  UNL1        0.0614
      8 C          14.8981   40.8287    9.0322 C.ar    1  UNL1        0.1328
      9 C          15.3186   39.9482   10.0381 C.ar    1  UNL1        0.0344
     10 C          14.3733   39.3540   10.8743 C.ar    1  UNL1        0.0041
     11 C          13.0194   39.6399   10.7037 C.ar    1  UNL1        0.0149
     12 N          13.5701   41.0902    8.8876 N.ar    1  UNL1       -0.2348
     13 N          15.8286   41.4660    8.1454 N.pl3   1  UNL1       -0.2821
     14 H          16.7286   41.0694    8.0998 H       1  UNL1        0.1551
     15 C          15.5983   42.6141    7.3180 C.ar    1  UNL1        0.1526
     16 C          16.2490   44.7428    6.4974 C.ar    1  UNL1        0.1210
     17 C          15.0994   44.7910    5.7078 C.ar    1  UNL1        0.1196
     18 C          14.4490   42.6661    6.5262 C.ar    1  UNL1        0.1332
     19 N          16.4729   43.6574    7.2839 N.ar    1  UNL1       -0.2258
     20 N          14.2246   43.7516    5.7394 N.ar    1  UNL1       -0.2378
     21 S           8.7898   42.9793   10.0510 S.O2    1  UNL1        0.0633
     22 O           9.3343   42.1734   11.1985 O.2     1  UNL1       -0.1528
     23 O           8.9604   44.4391   10.3666 O.2     1  UNL1       -0.1528
     24 C           2.9082   41.7473    9.3531 C.3     1  UNL1        0.0307
     25 C           4.3538   42.0770    9.5142 C.ar    1  UNL1       -0.0257
     26 C           4.9027   43.2600    8.9845 C.ar    1  UNL1       -0.0245
     27 C           6.2636   43.5308    9.1578 C.ar    1  UNL1        0.0153
     28 C           7.0798   42.6354    9.8560 C.ar    1  UNL1        0.1219
     29 C           6.5332   41.4589   10.3780 C.ar    1  UNL1        0.0196
     30 C           5.1745   41.1820   10.2081 C.ar    1  UNL1       -0.0032
     31 C           4.0663   44.2414    8.2354 C.3     1  UNL1        0.0307
@<TRIPOS>BOND
     1    24    25    1
     2    26    27   ar
     3    28    29   ar
     4    30    25   ar
     5     1     6    1
     6     1     2    1
     7     2     3    1
     8     3     4    1
     9     4     5    1
    10     4     7    1
    11     5     6    1
    12     8    12   ar
    13     8    13    1
    14     9    10   ar
    15    11     7   ar
    16    16    19   ar
    17    17    20   ar
    18    18    15   ar
    19    31    26    1
    20    21    28    1
    21    21     6    1
    22    13    15    1
    23    25    26   ar
    24    27    28   ar
    25    29    30   ar
    26     7    12   ar
    27     8     9   ar
    28    10    11   ar
    29    15    19   ar
    30    16    17   ar
    31    18    20   ar
    32    21    22    2
    33    21    23    2
    34    13    14    1
@<TRIPOS>MOLECULE
MolPort-046-958-460 MCULE-2708163713 PubChem-110093732
 31 34 0 0 0
SMALL
GASTEIGER

@<TRIPOS>ATOM
      1 C           7.9049   42.9398   10.8852 C.3     1  UNL1        0.0958
      2 C           9.0323   43.9451   10.6442 C.3     1  UNL1        0.0196
      3 C          10.3749   43.2379   10.7026 C.3     1  UNL1        0.0089
      4 C          10.3998   42.1245    9.6647 C.3     1  UNL1        0.0581
      5 C           9.2446   41.1459    9.9039 C.3     1  UNL1        0.1017
      6 N           7.9345   41.8121    9.9407 N.3     1  UNL1       -0.1551
      7 C          11.7148   41.4131    9.6680 C.ar    1  UNL1        0.0614
      8 C          13.8424   41.0907    8.6434 C.ar    1  UNL1        0.1328
      9 C          14.1740   40.1310    9.6092 C.ar    1  UNL1        0.0344
     10 C          13.2570   39.8160   10.6122 C.ar    1  UNL1        0.0041
     11 C          12.0194   40.4573   10.6465 C.ar    1  UNL1        0.0149
     12 N          12.6273   41.7015    8.7003 N.ar    1  UNL1       -0.2348
     13 N          14.7485   41.4510    7.5910 N.pl3   1  UNL1       -0.2821
     14 H          15.3487   40.7397    7.2701 H       1  UNL1        0.1551
     15 C          14.8801   42.7283    6.9528 C.ar    1  UNL1        0.1526
     16 C          16.1304   44.6856    6.4692 C.ar    1  UNL1        0.1210
     17 C          15.0717   45.1736    5.7021 C.ar    1  UNL1        0.1196
     18 C          13.8228   43.2201    6.1842 C.ar    1  UNL1        0.1332
     19 N          16.0116   43.4757    7.0767 N.ar    1  UNL1       -0.2258
     20 N          13.9410   44.4302    5.5764 N.ar    1  UNL1       -0.2378
     21 S           7.4320   42.3033    8.3451 S.O2    1  UNL1        0.0633
     22 O           5.9316   42.3190    8.2386 O.2     1  UNL1       -0.1528
     23 O           7.9476   43.6862    8.0593 O.2     1  UNL1       -0.1528
     24 C           9.7015   38.4388    4.2816 C.3     1  UNL1        0.0307
     25 C           9.1619   39.4106    5.2760 C.ar    1  UNL1       -0.0257
     26 C           9.8316   40.6138    5.5679 C.ar    1  UNL1       -0.0245
     27 C           9.2913   41.4974    6.5075 C.ar    1  UNL1        0.0153
     28 C           8.0898   41.1935    7.1551 C.ar    1  UNL1        0.1219
     29 C           7.4283   39.9958    6.8666 C.ar    1  UNL1        0.0196
     30 C           7.9628   39.1084    5.9292 C.ar    1  UNL1       -0.0032
     31 C          11.1138   40.9758    4.8980 C.3     1  UNL1        0.0307
@<TRIPOS>BOND
     1    24    25    1
     2    26    27   ar
     3    28    29   ar
     4    30    25   ar
     5     1     6    1
     6     1     2    1
     7     2     3    1
     8     3     4    1
     9     4     5    1
    10     4     7    1
    11     5     6    1
    12     8    12   ar
    13     8    13    1
    14     9    10   ar
    15    11     7   ar
    16    16    19   ar
    17    17    20   ar
    18    18    15   ar
    19    31    26    1
    20    21    28    1
    21    21     6    1
    22    13    15    1
    23    25    26   ar
    24    27    28   ar
    25    29    30   ar
    26     7    12   ar
    27     8     9   ar
    28    10    11   ar
    29    15    19   ar
    30    16    17   ar
    31    18    20   ar
    32    21    22    2
    33    21    23    2
    34    13    14    1
@<TRIPOS>MOLECULE
MolPort-046-958-460 MCULE-2708163713 PubChem-110093732
 31 34 0 0 0
SMALL
GASTEIGER

@<TRIPOS>ATOM
      1 C           9.9113   39.2079    6.0804 C.3     1  UNL1        0.0958
      2 C           9.1152   39.0738    7.3796 C.3     1  UNL1        0.0196
      3 C           9.8676   38.1870    8.3560 C.3     1  UNL1        0.0089
      4 C          11.2448   38.7822    8.6140 C.3     1  UNL1        0.0581
      5 C          12.0140   38.9380    7.2975 C.3     1  UNL1        0.1017
      6 N          11.2736   39.7198    6.2963 N.3     1  UNL1       -0.1551
      7 C          12.0161   37.9542    9.5912 C.ar    1  UNL1        0.0614
      8 C          13.8831   37.7772   11.0619 C.ar    1  UNL1        0.1328
      9 C          13.4987   36.4754   11.4104 C.ar    1  UNL1        0.0344
     10 C          12.3573   35.9159   10.8360 C.ar    1  UNL1        0.0041
     11 C          11.6084   36.6546    9.9209 C.ar    1  UNL1        0.0149
     12 N          13.1339   38.4762   10.1659 N.ar    1  UNL1       -0.2348
     13 N          15.0480   38.3991   11.6229 N.pl3   1  UNL1       -0.2821
     14 H          14.9143   38.8998   12.4600 H       1  UNL1        0.1551
     15 C          16.3846   38.3750   11.1044 C.ar    1  UNL1        0.1526
     16 C          18.4651   37.2808   10.7843 C.ar    1  UNL1        0.1210
     17 C          18.9418   38.3898   10.0840 C.ar    1  UNL1        0.1196
     18 C          16.8653   39.4829   10.4029 C.ar    1  UNL1        0.1332
     19 N          17.1992   37.2977   11.2783 N.ar    1  UNL1       -0.2258
     20 N          18.1314   39.4666    9.9086 N.ar    1  UNL1       -0.2378
     21 S          11.2608   41.4149    6.7036 S.O2    1  UNL1        0.0633
     22 O          10.5680   42.2160    5.6354 O.2     1  UNL1       -0.1528
     23 O          10.5305   41.6144    8.0023 O.2     1  UNL1       -0.1528
     24 C          16.9364   43.3966    7.3808 C.3     1  UNL1        0.0307
     25 C          15.5339   42.9258    7.1918 C.ar    1  UNL1       -0.0257
     26 C          14.6621   43.5553    6.2835 C.ar    1  UNL1       -0.0245
     27 C          13.3543   43.0823    6.1369 C.ar    1  UNL1        0.0153
     28 C          12.9102   41.9873    6.8847 C.ar    1  UNL1        0.1219
     29 C          13.7767   41.3659    7.7893 C.ar    1  UNL1        0.0196
     30 C          15.0844   41.8337    7.9408 C.ar    1  UNL1       -0.0032
     31 C          15.0973   44.7243    5.4662 C.3     1  UNL1        0.0307
@<TRIPOS>BOND
     1    24    25    1
     2    26    27   ar
     3    28    29   ar
     4    30    25   ar
     5     1     6    1
     6     1     2    1
     7     2     3    1
     8     3     4    1
     9     4     5    1
    10     4     7    1
    11     5     6    1
    12     8    12   ar
    13     8    13    1
    14     9    10   ar
    15    11     7   ar
    16    16    19   ar
    17    17    20   ar
    18    18    15   ar
    19    31    26    1
    20    21    28    1
    21    21     6    1
    22    13    15    1
    23    25    26   ar
    24    27    28   ar
    25    29    30   ar
    26     7    12   ar
    27     8     9   ar
    28    10    11   ar
    29    15    19   ar
    30    16    17   ar
    31    18    20   ar
    32    21    22    2
    33    21    23    2
    34    13    14    1
@<TRIPOS>MOLECULE
MolPort-046-958-460 MCULE-2708163713 PubChem-110093732
 31 34 0 0 0
SMALL
GASTEIGER

@<TRIPOS>ATOM
      1 C           9.8101   38.7336    6.5834 C.3     1  UNL1        0.0958
      2 C           9.4466   38.6297    8.0655 C.3     1  UNL1        0.0196
      3 C          10.7038   38.4209    8.8912 C.3     1  UNL1        0.0089
      4 C          11.6649   39.5745    8.6404 C.3     1  UNL1        0.0581
      5 C          11.9917   39.6818    7.1468 C.3     1  UNL1        0.1017
      6 N          10.7888   39.7974    6.3092 N.3     1  UNL1       -0.1551
      7 C          12.9111   39.4250    9.4528 C.ar    1  UNL1        0.0614
      8 C          15.2305   39.9110    9.7063 C.ar    1  UNL1        0.1328
      9 C          15.2618   39.1875   10.9061 C.ar    1  UNL1        0.0344
     10 C          14.0976   38.5792   11.3756 C.ar    1  UNL1        0.0041
     11 C          12.9133   38.6952   10.6491 C.ar    1  UNL1        0.0149
     12 N          14.0609   40.0083    9.0170 N.ar    1  UNL1       -0.2348
     13 N          16.3991   40.5552    9.1792 N.pl3   1  UNL1       -0.2821
     14 H          17.2460   40.0608    9.2665 H       1  UNL1        0.1551
     15 C          16.4751   41.8363    8.5399 C.ar    1  UNL1        0.1526
     16 C          17.5738   43.9056    8.1667 C.ar    1  UNL1        0.1210
     17 C          16.5640   44.2832    7.2806 C.ar    1  UNL1        0.1196
     18 C          15.4664   42.2179    7.6524 C.ar    1  UNL1        0.1332
     19 N          17.5073   42.6926    8.7759 N.ar    1  UNL1       -0.2258
     20 N          15.5324   43.4310    7.0429 N.ar    1  UNL1       -0.2378
     21 S          10.0693   41.3788    6.4541 S.O2    1  UNL1        0.0633
     22 O          10.9723   42.3089    7.2171 O.2     1  UNL1       -0.1528
     23 O           9.8368   41.9526    5.0842 O.2     1  UNL1       -0.1528
     24 C           4.7391   40.9677    9.2857 C.3     1  UNL1        0.0307
     25 C           6.0660   41.0727    8.6128 C.ar    1  UNL1       -0.0257
     26 C           7.2248   41.4389    9.3230 C.ar    1  UNL1       -0.0245
     27 C           8.4494   41.5260    8.6536 C.ar    1  UNL1        0.0153
     28 C           8.5289   41.2486    7.2854 C.ar    1  UNL1        0.1219
     29 C           7.3758   40.8888    6.5809 C.ar    1  UNL1        0.0196
     30 C           6.1491   40.8003    7.2436 C.ar    1  UNL1       -0.0032
     31 C           7.1827   41.7409   10.7828 C.3     1  UNL1        0.0307
@<TRIPOS>BOND
     1    24    25    1
     2    26    27   ar
     3    28    29   ar
     4    30    25   ar
     5     1     6    1
     6     1     2    1
     7     2     3    1
     8     3     4    1
     9     4     5    1
    10     4     7    1
    11     5     6    1
    12     8    12   ar
    13     8    13    1
    14     9    10   ar
    15    11     7   ar
    16    16    19   ar
    17    17    20   ar
    18    18    15   ar
    19    31    26    1
    20    21    28    1
    21    21     6    1
    22    13    15    1
    23    25    26   ar
    24    27    28   ar
    25    29    30   ar
    26     7    12   ar
    27     8     9   ar
    28    10    11   ar
    29    15    19   ar
    30    16    17   ar
    31    18    20   ar
    32    21    22    2
    33    21    23    2
    34    13    14    1
@<TRIPOS>MOLECULE
MolPort-046-958-460 MCULE-2708163713 PubChem-110093732
 31 34 0 0 0
SMALL
GASTEIGER

@<TRIPOS>ATOM
      1 C          10.3087   39.4834    9.4814 C.3     1  UNL1        0.0958
      2 C          10.8161   40.0271   10.8180 C.3     1  UNL1        0.0196
      3 C          12.3137   39.8027   10.9307 C.3     1  UNL1        0.0089
      4 C          13.0112   40.4820    9.7604 C.3     1  UNL1        0.0581
      5 C          12.4670   39.9470    8.4312 C.3     1  UNL1        0.1017
      6 N          11.0056   40.0694    8.3256 N.3     1  UNL1       -0.1551
      7 C          14.4940   40.3086    9.8416 C.ar    1  UNL1        0.0614
      8 C          16.6537   40.9918    9.1005 C.ar    1  UNL1        0.1328
      9 C          17.2534   40.0414    9.9378 C.ar    1  UNL1        0.0344
     10 C          16.4539   39.2195   10.7323 C.ar    1  UNL1        0.0041
     11 C          15.0664   39.3494   10.6879 C.ar    1  UNL1        0.0149
     12 N          15.2969   41.0975    9.0766 N.ar    1  UNL1       -0.2348
     13 N          17.4296   41.8611    8.2634 N.pl3   1  UNL1       -0.2821
     14 H          18.4031   41.7142    8.2664 H       1  UNL1        0.1551
     15 C          16.9499   42.9192    7.4231 C.ar    1  UNL1        0.1526
     16 C          15.1700   44.1439    6.4432 C.ar    1  UNL1        0.1210
     17 C          16.0918   44.9682    5.7965 C.ar    1  UNL1        0.1196
     18 C          17.8693   43.7464    6.7742 C.ar    1  UNL1        0.1332
     19 N          15.6185   43.1392    7.2409 N.ar    1  UNL1       -0.2258
     20 N          17.4213   44.7514    5.9761 N.ar    1  UNL1       -0.2378
     21 S          10.5287   41.7261    8.0661 S.O2    1  UNL1        0.0633
     22 O          11.2869   42.6498    8.9798 O.2     1  UNL1       -0.1528
     23 O          10.8177   42.1153    6.6432 O.2     1  UNL1       -0.1528
     24 C           4.5976   42.3591    9.0756 C.3     1  UNL1        0.0307
     25 C           6.0628   42.1921    8.8530 C.ar    1  UNL1       -0.0257
     26 C           6.9270   41.8079    9.8955 C.ar    1  UNL1       -0.0245
     27 C           8.2949   41.6630    9.6441 C.ar    1  UNL1        0.0153
     28 C           8.8071   41.8946    8.3637 C.ar    1  UNL1        0.1219
     29 C           7.9475   42.2800    7.3303 C.ar    1  UNL1        0.0196
     30 C           6.5799   42.4270    7.5749 C.ar    1  UNL1       -0.0032
     31 C           6.4203   41.5498   11.2741 C.3     1  UNL1        0.0307
@<TRIPOS>BOND
     1    24    25    1
     2    26    27   ar
     3    28    29   ar
     4    30    25   ar
     5     1     6    1
     6     1     2    1
     7     2     3    1
     8     3     4    1
     9     4     5    1
    10     4     7    1
    11     5     6    1
    12     8    12   ar
    13     8    13    1
    14     9    10   ar
    15    11     7   ar
    16    16    19   ar
    17    17    20   ar
    18    18    15   ar
    19    31    26    1
    20    21    28    1
    21    21     6    1
    22    13    15    1
    23    25    26   ar
    24    27    28   ar
    25    29    30   ar
    26     7    12   ar
    27     8     9   ar
    28    10    11   ar
    29    15    19   ar
    30    16    17   ar
    31    18    20   ar
    32    21    22    2
    33    21    23    2
    34    13    14    1
@<TRIPOS>MOLECULE
MolPort-046-958-460 MCULE-2708163713 PubChem-110093732
 31 34 0 0 0
SMALL
GASTEIGER

@<TRIPOS>ATOM
      1 C           8.5858   42.3722   10.5807 C.3     1  UNL1        0.0958
      2 C           9.6070   43.4364   10.1755 C.3     1  UNL1        0.0196
      3 C          11.0138   42.8851   10.3271 C.3     1  UNL1        0.0089
      4 C          11.1558   41.6333    9.4726 C.3     1  UNL1        0.0581
      5 C          10.1043   40.5922    9.8722 C.3     1  UNL1        0.1017
      6 N           8.7334   41.1211    9.8205 N.3     1  UNL1       -0.1551
      7 C          12.5359   41.0667    9.5707 C.ar    1  UNL1        0.0614
      8 C          14.7895   41.0849    8.7953 C.ar    1  UNL1        0.1328
      9 C          15.1185   40.0620    9.6950 C.ar    1  UNL1        0.0344
     10 C          14.1362   39.5423   10.5381 C.ar    1  UNL1        0.0041
     11 C          12.8364   40.0434   10.4798 C.ar    1  UNL1        0.0149
     12 N          13.5129   41.5557    8.7593 N.ar    1  UNL1       -0.2348
     13 N          15.7614   41.6539    7.9065 N.pl3   1  UNL1       -0.2821
     14 H          16.6184   41.1747    7.8334 H       1  UNL1        0.1551
     15 C          15.6280   42.8403    7.1125 C.ar    1  UNL1        0.1526
     16 C          14.4130   44.1850    5.5815 C.ar    1  UNL1        0.1210
     17 C          15.4307   45.1395    5.6106 C.ar    1  UNL1        0.1196
     18 C          16.6443   43.7979    7.1389 C.ar    1  UNL1        0.1332
     19 N          14.5338   43.0583    6.3318 N.ar    1  UNL1       -0.2258
     20 N          16.5241   44.9250    6.3887 N.ar    1  UNL1       -0.2378
     21 S           8.1912   41.3076    8.1740 S.O2    1  UNL1        0.0633
     22 O           9.2857   41.8749    7.3120 O.2     1  UNL1       -0.1528
     23 O           7.7914   39.9679    7.6218 O.2     1  UNL1       -0.1528
     24 C           3.4299   45.0376    8.0508 C.3     1  UNL1        0.0307
     25 C           4.5876   44.0982    8.0939 C.ar    1  UNL1       -0.0257
     26 C           4.5202   42.8783    8.7929 C.ar    1  UNL1       -0.0245
     27 C           5.6290   42.0263    8.8084 C.ar    1  UNL1        0.0153
     28 C           6.8010   42.3783    8.1318 C.ar    1  UNL1        0.1219
     29 C           6.8671   43.5925    7.4413 C.ar    1  UNL1        0.0196
     30 C           5.7631   44.4484    7.4221 C.ar    1  UNL1       -0.0032
     31 C           3.2887   42.4654    9.5254 C.3     1  UNL1        0.0307
@<TRIPOS>BOND
     1    24    25    1
     2    26    27   ar
     3    28    29   ar
     4    30    25   ar
     5     1     6    1
     6     1     2    1
     7     2     3    1
     8     3     4    1
     9     4     5    1
    10     4     7    1
    11     5     6    1
    12     8    12   ar
    13     8    13    1
    14     9    10   ar
    15    11     7   ar
    16    16    19   ar
    17    17    20   ar
    18    18    15   ar
    19    31    26    1
    20    21    28    1
    21    21     6    1
    22    13    15    1
    23    25    26   ar
    24    27    28   ar
    25    29    30   ar
    26     7    12   ar
    27     8     9   ar
    28    10    11   ar
    29    15    19   ar
    30    16    17   ar
    31    18    20   ar
    32    21    22    2
    33    21    23    2
    34    13    14    1
@<TRIPOS>MOLECULE
MolPort-046-958-460 MCULE-2708163713 PubChem-110093732
 31 34 0 0 0
SMALL
GASTEIGER

@<TRIPOS>ATOM
      1 C          12.6446   40.9508    7.2980 C.3     1  UNL1        0.0958
      2 C          12.5184   42.3560    7.8888 C.3     1  UNL1        0.0196
      3 C          11.2244   42.4702    8.6753 C.3     1  UNL1        0.0089
      4 C          11.2077   41.4107    9.7683 C.3     1  UNL1        0.0581
      5 C          11.3671   40.0132    9.1594 C.3     1  UNL1        0.1017
      6 N          12.5673   39.8938    8.3186 N.3     1  UNL1       -0.1551
      7 C           9.9599   41.4998   10.5872 C.ar    1  UNL1        0.0614
      8 C           7.6790   42.1758   10.7307 C.ar    1  UNL1        0.1328
      9 C           7.6103   41.7018   12.0477 C.ar    1  UNL1        0.0344
     10 C           8.7364   41.1217   12.6318 C.ar    1  UNL1        0.0041
     11 C           9.9201   41.0176   11.9024 C.ar    1  UNL1        0.0149
     12 N           8.8470   42.0617   10.0413 N.ar    1  UNL1       -0.2348
     13 N           6.5506   42.7809   10.0834 N.pl3   1  UNL1       -0.2821
     14 H           6.7016   43.6677    9.6834 H       1  UNL1        0.1551
     15 C           5.2283   42.2423    9.9522 C.ar    1  UNL1        0.1526
     16 C           3.6848   40.4554   10.1828 C.ar    1  UNL1        0.1210
     17 C           2.6685   41.2666    9.6764 C.ar    1  UNL1        0.1196
     18 C           4.2083   43.0509    9.4458 C.ar    1  UNL1        0.1332
     19 N           4.9403   40.9602   10.3094 N.ar    1  UNL1       -0.2258
     20 N           2.9525   42.5466    9.3189 N.ar    1  UNL1       -0.2378
     21 S          14.0143   39.8376    9.2894 S.O2    1  UNL1        0.0633
     22 O          13.7045   40.1462   10.7287 O.2     1  UNL1       -0.1528
     23 O          14.6180   38.4630    9.2128 O.2     1  UNL1       -0.1528
     24 C          18.0205   43.8796    7.2374 C.3     1  UNL1        0.0307
     25 C          17.0154   42.8898    7.7216 C.ar    1  UNL1       -0.0257
     26 C          15.7329   42.8020    7.1482 C.ar    1  UNL1       -0.0245
     27 C          14.8202   41.8597    7.6325 C.ar    1  UNL1        0.0153
     28 C          15.1757   41.0038    8.6796 C.ar    1  UNL1        0.1219
     29 C          16.4490   41.0953    9.2504 C.ar    1  UNL1        0.0196
     30 C          17.3655   42.0347    8.7716 C.ar    1  UNL1       -0.0032
     31 C          15.3155   43.6949    6.0292 C.3     1  UNL1        0.0307
@<TRIPOS>BOND
     1    24    25    1
     2    26    27   ar
     3    28    29   ar
     4    30    25   ar
     5     1     6    1
     6     1     2    1
     7     2     3    1
     8     3     4    1
     9     4     5    1
    10     4     7    1
    11     5     6    1
    12     8    12   ar
    13     8    13    1
    14     9    10   ar
    15    11     7   ar
    16    16    19   ar
    17    17    20   ar
    18    18    15   ar
    19    31    26    1
    20    21    28    1
    21    21     6    1
    22    13    15    1
    23    25    26   ar
    24    27    28   ar
    25    29    30   ar
    26     7    12   ar
    27     8     9   ar
    28    10    11   ar
    29    15    19   ar
    30    16    17   ar
    31    18    20   ar
    32    21    22    2
    33    21    23    2
    34    13    14    1
