@<TRIPOS>MOLECULE
MolPort-045-959-764 952873461 CSSS00159691194 MCULE-7349963438 PubChem-131952780 ZINC000952873461
 32 34 0 0 0
SMALL
GASTEIGER

@<TRIPOS>ATOM
      1 C          12.4977   40.2716    8.5678 C.2     1  UNL1        0.2492
      2 O          11.7318   39.3094    8.2963 O.2     1  UNL1       -0.2727
      3 N          12.0692   41.3477    9.4120 N.am    1  UNL1       -0.2823
      4 H          12.7325   42.0497    9.6031 H       1  UNL1        0.1549
      5 C           8.1988   41.8325   11.1053 C.ar    1  UNL1        0.0463
      6 C           8.4467   42.1330    9.7579 C.ar    1  UNL1        0.0156
      7 C           9.7225   41.9701    9.2135 C.ar    1  UNL1        0.0159
      8 C          10.7746   41.5076   10.0068 C.ar    1  UNL1        0.0501
      9 C          10.5347   41.2083   11.3547 C.ar    1  UNL1        0.0116
     10 C           9.2595   41.3692   11.9047 C.ar    1  UNL1       -0.0071
     11 C           9.0533   41.0405   13.3440 C.3     1  UNL1        0.0324
     12 C           5.6116   41.8105   11.0750 C.2     1  UNL1        0.2261
     13 O           4.5756   42.0739   11.7398 O.2     1  UNL1       -0.2748
     14 N           6.8949   42.0015   11.6886 N.am    1  UNL1       -0.2842
     15 H           6.8810   42.2851   12.6313 H       1  UNL1        0.1548
     16 C           5.4609   41.2810    9.6864 C.3     1  UNL1        0.0854
     17 C           5.3524   42.4272    8.6949 C.3     1  UNL1        0.0096
     18 C           4.1198   44.5143    8.1122 C.3     1  UNL1        0.0000
     19 C           4.1641   43.3093    9.0330 C.3     1  UNL1        0.0005
     20 C          13.8681   40.3054    7.9780 C.3     1  UNL1        0.1918
     21 C          13.2004   42.0616    6.4009 C.ar    1  UNL1        0.0410
     22 C          11.9477   41.3117    6.0818 C.3     1  UNL1        0.0501
     23 C          13.4175   43.2713    5.7419 C.ar    1  UNL1        0.0548
     24 C          14.5601   44.0167    6.0095 C.ar    1  UNL1        0.1981
     25 C          15.4876   43.5479    6.9476 C.ar    1  UNL1        0.0548
     26 C          16.6461   44.2817    7.2437 C.ar    1  UNL1        0.0046
     27 C          17.5616   43.8072    8.1844 C.ar    1  UNL1        0.0002
     28 C          17.3281   42.5967    8.8378 C.ar    1  UNL1        0.0015
     29 C          16.1791   41.8570    8.5513 C.ar    1  UNL1        0.0173
     30 C          15.2441   42.3153    7.6045 C.ar    1  UNL1        0.0631
     31 O          14.7427   45.1071    5.4040 O.2     1  UNL1       -0.2865
     32 N          14.1102   41.5924    7.3160 N.ar    1  UNL1       -0.3223
@<TRIPOS>BOND
     1    18    19    1
     2    19    17    1
     3    17    16    1
     4    16    12    1
     5    12    14   am
     6     6     7   ar
     7     8     3    1
     8     8     9   ar
     9    20     1    1
    10    20    32    1
    11    22    21    1
    12    23    24   ar
    13    24    25   ar
    14    26    27   ar
    15    28    29   ar
    16    30    32   ar
    17    30    25   ar
    18    10     5   ar
    19    11    10    1
    20    14     5    1
    21     3     1   am
    22    32    21   ar
    23    12    13    2
    24     5     6   ar
    25     7     8   ar
    26     1     2    2
    27    21    23   ar
    28    24    31    2
    29    25    26   ar
    30    27    28   ar
    31    29    30   ar
    32     9    10   ar
    33    14    15    1
    34     3     4    1
@<TRIPOS>MOLECULE
MolPort-045-959-764 952873461 CSSS00159691194 MCULE-7349963438 PubChem-131952780 ZINC000952873461
 32 34 0 0 0
SMALL
GASTEIGER

@<TRIPOS>ATOM
      1 C          11.8752   40.2277    7.9163 C.2     1  UNL1        0.2492
      2 O          11.3419   39.4567    7.0751 O.2     1  UNL1       -0.2727
      3 N          11.0804   41.0045    8.8213 N.am    1  UNL1       -0.2823
      4 H          11.5680   41.5621    9.4698 H       1  UNL1        0.1549
      5 C           6.8390   41.1909    9.0615 C.ar    1  UNL1        0.0463
      6 C           7.6469   41.5802   10.1398 C.ar    1  UNL1        0.0156
      7 C           9.0390   41.5140   10.0488 C.ar    1  UNL1        0.0159
      8 C           9.6488   41.0535    8.8799 C.ar    1  UNL1        0.0501
      9 C           8.8475   40.6600    7.7996 C.ar    1  UNL1        0.0116
     10 C           7.4535   40.7247    7.8852 C.ar    1  UNL1       -0.0071
     11 C           6.6430   40.2926    6.7112 C.3     1  UNL1        0.0324
     12 C           4.5555   42.3977    9.2185 C.2     1  UNL1        0.2261
     13 O           3.3139   42.2316    9.3425 O.2     1  UNL1       -0.2748
     14 N           5.4035   41.2426    9.1368 N.am    1  UNL1       -0.2842
     15 H           4.9428   40.3726    9.1318 H       1  UNL1        0.1548
     16 C           5.0907   43.7894    9.1307 C.3     1  UNL1        0.0854
     17 C           5.3732   44.1544    7.6830 C.3     1  UNL1        0.0096
     18 C           7.5746   44.8393    8.6314 C.3     1  UNL1        0.0000
     19 C           6.8696   44.2246    7.4369 C.3     1  UNL1        0.0005
     20 C          13.3616   40.3550    7.9535 C.3     1  UNL1        0.1918
     21 C          12.9832   42.1414    6.3157 C.ar    1  UNL1        0.0410
     22 C          11.6630   41.5422    5.9531 C.3     1  UNL1        0.0501
     23 C          13.3753   43.2998    5.6454 C.ar    1  UNL1        0.0548
     24 C          14.5881   43.9068    5.9515 C.ar    1  UNL1        0.1981
     25 C          15.4096   43.3509    6.9396 C.ar    1  UNL1        0.0548
     26 C          16.6353   43.9452    7.2751 C.ar    1  UNL1        0.0046
     27 C          17.4442   43.3852    8.2653 C.ar    1  UNL1        0.0002
     28 C          17.0359   42.2280    8.9293 C.ar    1  UNL1        0.0015
     29 C          15.8183   41.6269    8.6039 C.ar    1  UNL1        0.0173
     30 C          14.9885   42.1731    7.6069 C.ar    1  UNL1        0.0631
     31 O          14.9290   44.9522    5.3352 O.2     1  UNL1       -0.2865
     32 N          13.7881   41.5868    7.2799 N.ar    1  UNL1       -0.3223
@<TRIPOS>BOND
     1    18    19    1
     2    19    17    1
     3    17    16    1
     4    16    12    1
     5    12    14   am
     6     6     7   ar
     7     8     3    1
     8     8     9   ar
     9    20     1    1
    10    20    32    1
    11    22    21    1
    12    23    24   ar
    13    24    25   ar
    14    26    27   ar
    15    28    29   ar
    16    30    32   ar
    17    30    25   ar
    18    10     5   ar
    19    11    10    1
    20    14     5    1
    21     3     1   am
    22    32    21   ar
    23    12    13    2
    24     5     6   ar
    25     7     8   ar
    26     1     2    2
    27    21    23   ar
    28    24    31    2
    29    25    26   ar
    30    27    28   ar
    31    29    30   ar
    32     9    10   ar
    33    14    15    1
    34     3     4    1
@<TRIPOS>MOLECULE
MolPort-045-959-764 952873461 CSSS00159691194 MCULE-7349963438 PubChem-131952780 ZINC000952873461
 32 34 0 0 0
SMALL
GASTEIGER

@<TRIPOS>ATOM
      1 C          12.0000   41.1310    8.4364 C.2     1  UNL1        0.2492
      2 O          12.1079   41.8858    9.4390 O.2     1  UNL1       -0.2727
      3 N          10.7799   41.0588    7.6880 N.am    1  UNL1       -0.2823
      4 H          10.7798   40.4689    6.8998 H       1  UNL1        0.1549
      5 C           7.1817   43.1359    8.5945 C.ar    1  UNL1        0.0463
      6 C           8.0360   42.6821    9.6102 C.ar    1  UNL1        0.0156
      7 C           9.2148   42.0007    9.2997 C.ar    1  UNL1        0.0159
      8 C           9.5594   41.7567    7.9685 C.ar    1  UNL1        0.0501
      9 C           8.7088   42.2046    6.9487 C.ar    1  UNL1        0.0116
     10 C           7.5278   42.8876    7.2539 C.ar    1  UNL1       -0.0071
     11 C           6.6537   43.3423    6.1353 C.3     1  UNL1        0.0324
     12 C           4.6484   43.2838    9.0998 C.2     1  UNL1        0.2261
     13 O           3.6841   44.0709    9.2878 O.2     1  UNL1       -0.2748
     14 N           5.9586   43.8317    8.8921 N.am    1  UNL1       -0.2842
     15 H           6.0293   44.8112    8.9624 H       1  UNL1        0.1548
     16 C           4.3937   41.8124    9.1316 C.3     1  UNL1        0.0854
     17 C           3.2440   41.4972   10.0737 C.3     1  UNL1        0.0096
     18 C           5.2859   40.9229   11.3833 C.3     1  UNL1        0.0000
     19 C           3.7733   41.0355   11.4194 C.3     1  UNL1        0.0005
     20 C          13.1557   40.2759    8.0361 C.3     1  UNL1        0.1918
     21 C          15.3365   40.6617    9.0908 C.ar    1  UNL1        0.0410
     22 C          15.1149   39.4945    9.9975 C.3     1  UNL1        0.0501
     23 C          16.5285   41.3723    9.2285 C.ar    1  UNL1        0.0548
     24 C          16.7924   42.4593    8.4029 C.ar    1  UNL1        0.1981
     25 C          15.8571   42.8320    7.4301 C.ar    1  UNL1        0.0548
     26 C          16.0990   43.9198    6.5778 C.ar    1  UNL1        0.0046
     27 C          15.1616   44.2795    5.6081 C.ar    1  UNL1        0.0002
     28 C          13.9754   43.5560    5.4807 C.ar    1  UNL1        0.0015
     29 C          13.7229   42.4717    6.3234 C.ar    1  UNL1        0.0173
     30 C          14.6529   42.0934    7.3097 C.ar    1  UNL1        0.0631
     31 O          17.8735   43.0926    8.5413 O.2     1  UNL1       -0.2865
     32 N          14.4115   41.0271    8.1442 N.ar    1  UNL1       -0.3223
@<TRIPOS>BOND
     1    18    19    1
     2    19    17    1
     3    17    16    1
     4    16    12    1
     5    12    14   am
     6     6     7   ar
     7     8     3    1
     8     8     9   ar
     9    20     1    1
    10    20    32    1
    11    22    21    1
    12    23    24   ar
    13    24    25   ar
    14    26    27   ar
    15    28    29   ar
    16    30    32   ar
    17    30    25   ar
    18    10     5   ar
    19    11    10    1
    20    14     5    1
    21     3     1   am
    22    32    21   ar
    23    12    13    2
    24     5     6   ar
    25     7     8   ar
    26     1     2    2
    27    21    23   ar
    28    24    31    2
    29    25    26   ar
    30    27    28   ar
    31    29    30   ar
    32     9    10   ar
    33    14    15    1
    34     3     4    1
@<TRIPOS>MOLECULE
MolPort-045-959-764 952873461 CSSS00159691194 MCULE-7349963438 PubChem-131952780 ZINC000952873461
 32 34 0 0 0
SMALL
GASTEIGER

@<TRIPOS>ATOM
      1 C          11.6849   40.4978    8.5810 C.2     1  UNL1        0.2492
      2 O          11.6945   40.9388    9.7608 O.2     1  UNL1       -0.2727
      3 N          10.6082   40.7978    7.6839 N.am    1  UNL1       -0.2823
      4 H          10.6842   40.4425    6.7689 H       1  UNL1        0.1549
      5 C           7.1415   43.0671    8.6403 C.ar    1  UNL1        0.0463
      6 C           7.9582   42.5273    9.6447 C.ar    1  UNL1        0.0156
      7 C           9.0940   41.7833    9.3178 C.ar    1  UNL1        0.0159
      8 C           9.4321   41.5618    7.9811 C.ar    1  UNL1        0.0501
      9 C           8.6188   42.0957    6.9723 C.ar    1  UNL1        0.0116
     10 C           7.4809   42.8415    7.2939 C.ar    1  UNL1       -0.0071
     11 C           6.6452   43.3868    6.1866 C.3     1  UNL1        0.0324
     12 C           4.6121   43.3639    9.0973 C.2     1  UNL1        0.2261
     13 O           3.7005   44.2046    9.3137 O.2     1  UNL1       -0.2748
     14 N           5.9625   43.8287    8.9545 N.am    1  UNL1       -0.2842
     15 H           6.0996   44.7942    9.0891 H       1  UNL1        0.1548
     16 C           4.2543   41.9153    9.0287 C.3     1  UNL1        0.0854
     17 C           2.9924   41.6462    9.8310 C.3     1  UNL1        0.0096
     18 C           4.0502   40.1954   11.5605 C.3     1  UNL1        0.0000
     19 C           3.3229   41.5023   11.3057 C.3     1  UNL1        0.0005
     20 C          12.8024   39.6244    8.1169 C.3     1  UNL1        0.1918
     21 C          12.6475   37.8779    9.8323 C.ar    1  UNL1        0.0410
     22 C          11.2926   37.4938    9.3322 C.3     1  UNL1        0.0501
     23 C          13.1613   37.1719   10.9197 C.ar    1  UNL1        0.0548
     24 C          14.4223   37.4788   11.4184 C.ar    1  UNL1        0.1981
     25 C          15.1740   38.4964   10.8189 C.ar    1  UNL1        0.0548
     26 C          16.4524   38.8235   11.2955 C.ar    1  UNL1        0.0046
     27 C          17.1952   39.8367   10.6871 C.ar    1  UNL1        0.0002
     28 C          16.6684   40.5312    9.5976 C.ar    1  UNL1        0.0015
     29 C          15.3971   40.2153    9.1145 C.ar    1  UNL1        0.0173
     30 C          14.6298   39.1993    9.7145 C.ar    1  UNL1        0.0631
     31 O          14.8716   36.8328   12.4031 O.2     1  UNL1       -0.2865
     32 N          13.3764   38.8825    9.2452 N.ar    1  UNL1       -0.3223
@<TRIPOS>BOND
     1    18    19    1
     2    19    17    1
     3    17    16    1
     4    16    12    1
     5    12    14   am
     6     6     7   ar
     7     8     3    1
     8     8     9   ar
     9    20     1    1
    10    20    32    1
    11    22    21    1
    12    23    24   ar
    13    24    25   ar
    14    26    27   ar
    15    28    29   ar
    16    30    32   ar
    17    30    25   ar
    18    10     5   ar
    19    11    10    1
    20    14     5    1
    21     3     1   am
    22    32    21   ar
    23    12    13    2
    24     5     6   ar
    25     7     8   ar
    26     1     2    2
    27    21    23   ar
    28    24    31    2
    29    25    26   ar
    30    27    28   ar
    31    29    30   ar
    32     9    10   ar
    33    14    15    1
    34     3     4    1
@<TRIPOS>MOLECULE
MolPort-045-959-764 952873461 CSSS00159691194 MCULE-7349963438 PubChem-131952780 ZINC000952873461
 32 34 0 0 0
SMALL
GASTEIGER

@<TRIPOS>ATOM
      1 C          11.4414   41.2265    8.0218 C.2     1  UNL1        0.2492
      2 O          11.4064   42.0772    8.9500 O.2     1  UNL1       -0.2727
      3 N          10.2497   40.8303    7.3311 N.am    1  UNL1       -0.2823
      4 H          10.3593   40.1828    6.5977 H       1  UNL1        0.1549
      5 C           6.2645   42.0888    8.1168 C.ar    1  UNL1        0.0463
      6 C           6.5434   40.7863    7.6775 C.ar    1  UNL1        0.0156
      7 C           7.8565   40.3850    7.4223 C.ar    1  UNL1        0.0159
      8 C           8.9146   41.2795    7.5978 C.ar    1  UNL1        0.0501
      9 C           8.6429   42.5834    8.0336 C.ar    1  UNL1        0.0116
     10 C           7.3303   42.9902    8.2909 C.ar    1  UNL1       -0.0071
     11 C           7.0905   44.3879    8.7501 C.3     1  UNL1        0.0324
     12 C           3.9003   41.8681    9.1449 C.2     1  UNL1        0.2261
     13 O           2.7543   42.3857    9.2024 O.2     1  UNL1       -0.2748
     14 N           4.9190   42.5256    8.3768 N.am    1  UNL1       -0.2842
     15 H           4.6636   43.3877    7.9759 H       1  UNL1        0.1548
     16 C           4.1602   40.6078    9.9033 C.3     1  UNL1        0.0854
     17 C           4.3424   40.9108   11.3811 C.3     1  UNL1        0.0096
     18 C           6.7976   41.2902   11.5871 C.3     1  UNL1        0.0000
     19 C           5.4314   41.9498   11.5784 C.3     1  UNL1        0.0005
     20 C          12.7442   40.5996    7.6521 C.3     1  UNL1        0.1918
     21 C          13.3379   42.4560    6.1628 C.ar    1  UNL1        0.0410
     22 C          11.9939   42.3777    5.5140 C.3     1  UNL1        0.0501
     23 C          14.2292   43.4204    5.6932 C.ar    1  UNL1        0.0548
     24 C          15.4885   43.5461    6.2686 C.ar    1  UNL1        0.1981
     25 C          15.8535   42.7026    7.3247 C.ar    1  UNL1        0.0548
     26 C          17.1146   42.8109    7.9300 C.ar    1  UNL1        0.0046
     27 C          17.4661   41.9679    8.9856 C.ar    1  UNL1        0.0002
     28 C          16.5616   41.0107    9.4463 C.ar    1  UNL1        0.0015
     29 C          15.3038   40.8928    8.8517 C.ar    1  UNL1        0.0173
     30 C          14.9296   41.7305    7.7844 C.ar    1  UNL1        0.0631
     31 O          16.2834   44.4213    5.8314 O.2     1  UNL1       -0.2865
     32 N          13.6929   41.6204    7.1928 N.ar    1  UNL1       -0.3223
@<TRIPOS>BOND
     1    18    19    1
     2    19    17    1
     3    17    16    1
     4    16    12    1
     5    12    14   am
     6     6     7   ar
     7     8     3    1
     8     8     9   ar
     9    20     1    1
    10    20    32    1
    11    22    21    1
    12    23    24   ar
    13    24    25   ar
    14    26    27   ar
    15    28    29   ar
    16    30    32   ar
    17    30    25   ar
    18    10     5   ar
    19    11    10    1
    20    14     5    1
    21     3     1   am
    22    32    21   ar
    23    12    13    2
    24     5     6   ar
    25     7     8   ar
    26     1     2    2
    27    21    23   ar
    28    24    31    2
    29    25    26   ar
    30    27    28   ar
    31    29    30   ar
    32     9    10   ar
    33    14    15    1
    34     3     4    1
@<TRIPOS>MOLECULE
MolPort-045-959-764 952873461 CSSS00159691194 MCULE-7349963438 PubChem-131952780 ZINC000952873461
 32 34 0 0 0
SMALL
GASTEIGER

@<TRIPOS>ATOM
      1 C          12.2696   42.3764    7.2986 C.2     1  UNL1        0.2492
      2 O          12.3379   43.2728    8.1808 O.2     1  UNL1       -0.2727
      3 N          11.1644   41.4653    7.2485 N.am    1  UNL1       -0.2823
      4 H          11.1653   40.8105    6.5133 H       1  UNL1        0.1549
      5 C           7.9250   41.3350   10.0001 C.ar    1  UNL1        0.0463
      6 C           9.2111   41.7187   10.4074 C.ar    1  UNL1        0.0156
      7 C          10.2671   41.7571    9.4942 C.ar    1  UNL1        0.0159
      8 C          10.0578   41.4088    8.1582 C.ar    1  UNL1        0.0501
      9 C           8.7759   41.0215    7.7450 C.ar    1  UNL1        0.0116
     10 C           7.7152   40.9816    8.6548 C.ar    1  UNL1       -0.0071
     11 C           6.3702   40.5607    8.1692 C.3     1  UNL1        0.0324
     12 C           5.5711   41.9748   10.8633 C.2     1  UNL1        0.2261
     13 O           4.7556   41.8418   11.8129 O.2     1  UNL1       -0.2748
     14 N           6.8254   41.2798   10.9257 N.am    1  UNL1       -0.2842
     15 H           6.9491   40.6886   11.7031 H       1  UNL1        0.1548
     16 C           5.1864   42.8255    9.6974 C.3     1  UNL1        0.0854
     17 C           3.7125   43.1870    9.7730 C.3     1  UNL1        0.0096
     18 C           2.7714   41.0064    9.0154 C.3     1  UNL1        0.0000
     19 C           2.8903   41.9762   10.1761 C.3     1  UNL1        0.0005
     20 C          13.3733   42.2435    6.3031 C.3     1  UNL1        0.1918
     21 C          15.3062   43.7397    6.5079 C.ar    1  UNL1        0.0410
     22 C          14.7190   44.6541    5.4819 C.3     1  UNL1        0.0501
     23 C          16.5403   44.0881    7.0562 C.ar    1  UNL1        0.0548
     24 C          17.1272   43.2805    8.0237 C.ar    1  UNL1        0.1981
     25 C          16.4694   42.1194    8.4471 C.ar    1  UNL1        0.0548
     26 C          17.0335   41.2888    9.4271 C.ar    1  UNL1        0.0046
     27 C          16.3666   40.1362    9.8453 C.ar    1  UNL1        0.0002
     28 C          15.1308   39.8035    9.2896 C.ar    1  UNL1        0.0015
     29 C          14.5593   40.6218    8.3131 C.ar    1  UNL1        0.0173
     30 C          15.2156   41.7871    7.8748 C.ar    1  UNL1        0.0631
     31 O          18.2439   43.6081    8.5080 O.2     1  UNL1       -0.2865
     32 N          14.6599   42.5981    6.9130 N.ar    1  UNL1       -0.3223
@<TRIPOS>BOND
     1    18    19    1
     2    19    17    1
     3    17    16    1
     4    16    12    1
     5    12    14   am
     6     6     7   ar
     7     8     3    1
     8     8     9   ar
     9    20     1    1
    10    20    32    1
    11    22    21    1
    12    23    24   ar
    13    24    25   ar
    14    26    27   ar
    15    28    29   ar
    16    30    32   ar
    17    30    25   ar
    18    10     5   ar
    19    11    10    1
    20    14     5    1
    21     3     1   am
    22    32    21   ar
    23    12    13    2
    24     5     6   ar
    25     7     8   ar
    26     1     2    2
    27    21    23   ar
    28    24    31    2
    29    25    26   ar
    30    27    28   ar
    31    29    30   ar
    32     9    10   ar
    33    14    15    1
    34     3     4    1
@<TRIPOS>MOLECULE
MolPort-045-959-764 952873461 CSSS00159691194 MCULE-7349963438 PubChem-131952780 ZINC000952873461
 32 34 0 0 0
SMALL
GASTEIGER

@<TRIPOS>ATOM
      1 C          13.0171   40.0688    8.9306 C.2     1  UNL1        0.2492
      2 O          12.2657   39.5628    8.0554 O.2     1  UNL1       -0.2727
      3 N          12.5153   41.0116    9.8863 N.am    1  UNL1       -0.2823
      4 H          13.1548   41.3420   10.5580 H       1  UNL1        0.1549
      5 C           8.5582   42.5600   10.0493 C.ar    1  UNL1        0.0463
      6 C           9.4471   42.9395    9.0329 C.ar    1  UNL1        0.0156
      7 C          10.7446   42.4243    8.9904 C.ar    1  UNL1        0.0159
      8 C          11.1785   41.5235    9.9653 C.ar    1  UNL1        0.0501
      9 C          10.2965   41.1423   10.9855 C.ar    1  UNL1        0.0116
     10 C           8.9966   41.6546   11.0326 C.ar    1  UNL1       -0.0071
     11 C           8.0956   41.2219   12.1384 C.3     1  UNL1        0.0324
     12 C           6.2387   43.1619    9.0733 C.2     1  UNL1        0.2261
     13 O           5.1369   43.7200    9.3165 O.2     1  UNL1       -0.2748
     14 N           7.2209   43.0851   10.1171 N.am    1  UNL1       -0.2842
     15 H           6.9432   43.4377   10.9933 H       1  UNL1        0.1548
     16 C           6.4655   42.5759    7.7183 C.3     1  UNL1        0.0854
     17 C           6.4904   41.0587    7.7982 C.3     1  UNL1        0.0096
     18 C           7.9102   39.3697    6.6380 C.3     1  UNL1        0.0000
     19 C           6.8751   40.4639    6.4556 C.3     1  UNL1        0.0005
     20 C          14.4629   39.7000    8.9560 C.3     1  UNL1        0.1918
     21 C          16.5018   41.0281    9.2652 C.ar    1  UNL1        0.0410
     22 C          17.0104   40.0335   10.2579 C.3     1  UNL1        0.0501
     23 C          17.3019   42.1368    8.9902 C.ar    1  UNL1        0.0548
     24 C          16.8838   43.0873    8.0658 C.ar    1  UNL1        0.1981
     25 C          15.6582   42.9215    7.4097 C.ar    1  UNL1        0.0548
     26 C          15.2135   43.8601    6.4666 C.ar    1  UNL1        0.0046
     27 C          13.9921   43.6822    5.8148 C.ar    1  UNL1        0.0002
     28 C          13.2049   42.5657    6.0983 C.ar    1  UNL1        0.0015
     29 C          13.6365   41.6248    7.0354 C.ar    1  UNL1        0.0173
     30 C          14.8632   41.7857    7.7062 C.ar    1  UNL1        0.0631
     31 O          17.6175   44.0848    7.8300 O.2     1  UNL1       -0.2865
     32 N          15.2951   40.8640    8.6311 N.ar    1  UNL1       -0.3223
@<TRIPOS>BOND
     1    18    19    1
     2    19    17    1
     3    17    16    1
     4    16    12    1
     5    12    14   am
     6     6     7   ar
     7     8     3    1
     8     8     9   ar
     9    20     1    1
    10    20    32    1
    11    22    21    1
    12    23    24   ar
    13    24    25   ar
    14    26    27   ar
    15    28    29   ar
    16    30    32   ar
    17    30    25   ar
    18    10     5   ar
    19    11    10    1
    20    14     5    1
    21     3     1   am
    22    32    21   ar
    23    12    13    2
    24     5     6   ar
    25     7     8   ar
    26     1     2    2
    27    21    23   ar
    28    24    31    2
    29    25    26   ar
    30    27    28   ar
    31    29    30   ar
    32     9    10   ar
    33    14    15    1
    34     3     4    1
@<TRIPOS>MOLECULE
MolPort-045-959-764 952873461 CSSS00159691194 MCULE-7349963438 PubChem-131952780 ZINC000952873461
 32 34 0 0 0
SMALL
GASTEIGER

@<TRIPOS>ATOM
      1 C          10.9669   40.6547    7.6854 C.2     1  UNL1        0.2492
      2 O          10.9017   41.0700    8.8727 O.2     1  UNL1       -0.2727
      3 N           9.9747   41.0154    6.7160 N.am    1  UNL1       -0.2823
      4 H          10.1079   40.6767    5.8013 H       1  UNL1        0.1549
      5 C           6.4733   43.3461    7.3406 C.ar    1  UNL1        0.0463
      6 C           6.4931   42.2973    6.4096 C.ar    1  UNL1        0.0156
      7 C           7.6495   41.5392    6.2132 C.ar    1  UNL1        0.0159
      8 C           8.8084   41.8182    6.9407 C.ar    1  UNL1        0.0501
      9 C           8.7966   42.8668    7.8705 C.ar    1  UNL1        0.0116
     10 C           7.6416   43.6286    8.0713 C.ar    1  UNL1       -0.0071
     11 C           7.6780   44.7354    9.0691 C.3     1  UNL1        0.0324
     12 C           4.2618   43.9677    8.5314 C.2     1  UNL1        0.2261
     13 O           3.2704   44.7433    8.5144 O.2     1  UNL1       -0.2748
     14 N           5.2961   44.1451    7.5522 N.am    1  UNL1       -0.2842
     15 H           5.1855   44.9135    6.9468 H       1  UNL1        0.1548
     16 C           4.3347   42.9152    9.5887 C.3     1  UNL1        0.0854
     17 C           3.2711   41.8563    9.3517 C.3     1  UNL1        0.0096
     18 C           3.8445   41.0133   11.6266 C.3     1  UNL1        0.0000
     19 C           3.5561   40.6227   10.1893 C.3     1  UNL1        0.0005
     20 C          12.0836   39.7484    7.2872 C.3     1  UNL1        0.1918
     21 C          14.0798   40.5132    8.4902 C.ar    1  UNL1        0.0410
     22 C          14.2284   41.6546    7.5370 C.3     1  UNL1        0.0501
     23 C          15.0235   40.3932    9.5100 C.ar    1  UNL1        0.0548
     24 C          14.9265   39.3576   10.4324 C.ar    1  UNL1        0.1981
     25 C          13.8736   38.4402   10.3339 C.ar    1  UNL1        0.0548
     26 C          13.7456   37.3892   11.2545 C.ar    1  UNL1        0.0046
     27 C          12.6890   36.4832   11.1497 C.ar    1  UNL1        0.0002
     28 C          11.7510   36.6191   10.1258 C.ar    1  UNL1        0.0015
     29 C          11.8679   37.6605    9.2031 C.ar    1  UNL1        0.0173
     30 C          12.9267   38.5837    9.2885 C.ar    1  UNL1        0.0631
     31 O          15.7886   39.2617   11.3471 O.2     1  UNL1       -0.2865
     32 N          13.0495   39.6120    8.3833 N.ar    1  UNL1       -0.3223
@<TRIPOS>BOND
     1    18    19    1
     2    19    17    1
     3    17    16    1
     4    16    12    1
     5    12    14   am
     6     6     7   ar
     7     8     3    1
     8     8     9   ar
     9    20     1    1
    10    20    32    1
    11    22    21    1
    12    23    24   ar
    13    24    25   ar
    14    26    27   ar
    15    28    29   ar
    16    30    32   ar
    17    30    25   ar
    18    10     5   ar
    19    11    10    1
    20    14     5    1
    21     3     1   am
    22    32    21   ar
    23    12    13    2
    24     5     6   ar
    25     7     8   ar
    26     1     2    2
    27    21    23   ar
    28    24    31    2
    29    25    26   ar
    30    27    28   ar
    31    29    30   ar
    32     9    10   ar
    33    14    15    1
    34     3     4    1
@<TRIPOS>MOLECULE
MolPort-045-959-764 952873461 CSSS00159691194 MCULE-7349963438 PubChem-131952780 ZINC000952873461
 32 34 0 0 0
SMALL
GASTEIGER

@<TRIPOS>ATOM
      1 C          10.2826   42.3195   10.0341 C.2     1  UNL1        0.2492
      2 O          11.0052   43.3189    9.7783 O.2     1  UNL1       -0.2727
      3 N          10.8495   41.0125   10.1900 N.am    1  UNL1       -0.2823
      4 H          10.2262   40.2854   10.4179 H       1  UNL1        0.1549
      5 C          14.9515   39.9996    9.7096 C.ar    1  UNL1        0.0463
      6 C          14.2686   40.7498    8.7411 C.ar    1  UNL1        0.0156
      7 C          12.9212   41.0758    8.9101 C.ar    1  UNL1        0.0159
      8 C          12.2305   40.6544   10.0483 C.ar    1  UNL1        0.0501
      9 C          12.9058   39.9019   11.0187 C.ar    1  UNL1        0.0116
     10 C          14.2547   39.5731   10.8547 C.ar    1  UNL1       -0.0071
     11 C          14.9297   38.7686   11.9126 C.3     1  UNL1        0.0324
     12 C          17.4494   40.5037    9.2609 C.2     1  UNL1        0.2261
     13 O          18.5863   39.9890    9.0960 O.2     1  UNL1       -0.2748
     14 N          16.3365   39.6452    9.5514 N.am    1  UNL1       -0.2842
     15 H          16.5486   38.6896    9.6560 H       1  UNL1        0.1548
     16 C          17.3123   41.9888    9.1777 C.3     1  UNL1        0.0854
     17 C          17.7387   42.4807    7.8048 C.3     1  UNL1        0.0096
     18 C          17.1605   43.9810    5.8997 C.3     1  UNL1        0.0000
     19 C          16.7011   43.4328    7.2376 C.3     1  UNL1        0.0005
     20 C           8.8052   42.4950   10.1507 C.3     1  UNL1        0.1918
     21 C           7.6693   43.8231    8.4294 C.ar    1  UNL1        0.0410
     22 C           7.7267   45.0298    9.3092 C.3     1  UNL1        0.0501
     23 C           7.0661   43.9604    7.1795 C.ar    1  UNL1        0.0548
     24 C           6.9960   42.8737    6.3152 C.ar    1  UNL1        0.1981
     25 C           7.5392   41.6437    6.7053 C.ar    1  UNL1        0.0548
     26 C           7.4900   40.5315    5.8516 C.ar    1  UNL1        0.0046
     27 C           8.0391   39.3113    6.2489 C.ar    1  UNL1        0.0002
     28 C           8.6424   39.1913    7.5012 C.ar    1  UNL1        0.0015
     29 C           8.6971   40.2908    8.3600 C.ar    1  UNL1        0.0173
     30 C           8.1475   41.5297    7.9809 C.ar    1  UNL1        0.0631
     31 O           6.4458   43.0135    5.1897 O.2     1  UNL1       -0.2865
     32 N           8.1965   42.6174    8.8211 N.ar    1  UNL1       -0.3223
@<TRIPOS>BOND
     1    18    19    1
     2    19    17    1
     3    17    16    1
     4    16    12    1
     5    12    14   am
     6     6     7   ar
     7     8     3    1
     8     8     9   ar
     9    20     1    1
    10    20    32    1
    11    22    21    1
    12    23    24   ar
    13    24    25   ar
    14    26    27   ar
    15    28    29   ar
    16    30    32   ar
    17    30    25   ar
    18    10     5   ar
    19    11    10    1
    20    14     5    1
    21     3     1   am
    22    32    21   ar
    23    12    13    2
    24     5     6   ar
    25     7     8   ar
    26     1     2    2
    27    21    23   ar
    28    24    31    2
    29    25    26   ar
    30    27    28   ar
    31    29    30   ar
    32     9    10   ar
    33    14    15    1
    34     3     4    1
@<TRIPOS>MOLECULE
MolPort-045-959-764 952873461 CSSS00159691194 MCULE-7349963438 PubChem-131952780 ZINC000952873461
 32 34 0 0 0
SMALL
GASTEIGER

@<TRIPOS>ATOM
      1 C          11.7856   41.6352    6.8961 C.2     1  UNL1        0.2492
      2 O          11.5650   40.5867    7.5582 O.2     1  UNL1       -0.2727
      3 N          13.0806   42.2492    6.8857 N.am    1  UNL1       -0.2823
      4 H          13.1850   43.0496    6.3221 H       1  UNL1        0.1549
      5 C          16.4818   40.9047    9.0552 C.ar    1  UNL1        0.0463
      6 C          15.2532   40.2334    9.1385 C.ar    1  UNL1        0.0156
      7 C          14.1431   40.6851    8.4214 C.ar    1  UNL1        0.0159
      8 C          14.2397   41.8183    7.6111 C.ar    1  UNL1        0.0501
      9 C          15.4636   42.4958    7.5255 C.ar    1  UNL1        0.0116
     10 C          16.5780   42.0477    8.2409 C.ar    1  UNL1       -0.0071
     11 C          17.8577   42.8027    8.1203 C.3     1  UNL1        0.0324
     12 C          17.7561   39.3273   10.6624 C.2     1  UNL1        0.2261
     13 O          18.8420   39.1426   11.2717 O.2     1  UNL1       -0.2748
     14 N          17.6351   40.4621    9.7920 N.am    1  UNL1       -0.2842
     15 H          18.4471   41.0086    9.6855 H       1  UNL1        0.1548
     16 C          16.6499   38.3408   10.8471 C.3     1  UNL1        0.0854
     17 C          15.8468   38.6774   12.0923 C.3     1  UNL1        0.0096
     18 C          14.2248   37.0619   11.1054 C.3     1  UNL1        0.0000
     19 C          14.3781   38.3589   11.8774 C.3     1  UNL1        0.0005
     20 C          10.6709   42.2650    6.1295 C.3     1  UNL1        0.1918
     21 C           9.4225   40.3529    5.2340 C.ar    1  UNL1        0.0410
     22 C          10.5340   40.0628    4.2781 C.3     1  UNL1        0.0501
     23 C           8.3031   39.5218    5.1981 C.ar    1  UNL1        0.0548
     24 C           7.2448   39.7379    6.0733 C.ar    1  UNL1        0.1981
     25 C           7.3126   40.7909    6.9935 C.ar    1  UNL1        0.0548
     26 C           6.2635   41.0290    7.8941 C.ar    1  UNL1        0.0046
     27 C           6.3438   42.0787    8.8106 C.ar    1  UNL1        0.0002
     28 C           7.4722   42.8989    8.8363 C.ar    1  UNL1        0.0015
     29 C           8.5226   42.6725    7.9448 C.ar    1  UNL1        0.0173
     30 C           8.4614   41.6216    7.0106 C.ar    1  UNL1        0.0631
     31 O           6.2393   38.9792    6.0268 O.2     1  UNL1       -0.2865
     32 N           9.4914   41.3922    6.1286 N.ar    1  UNL1       -0.3223
@<TRIPOS>BOND
     1    18    19    1
     2    19    17    1
     3    17    16    1
     4    16    12    1
     5    12    14   am
     6     6     7   ar
     7     8     3    1
     8     8     9   ar
     9    20     1    1
    10    20    32    1
    11    22    21    1
    12    23    24   ar
    13    24    25   ar
    14    26    27   ar
    15    28    29   ar
    16    30    32   ar
    17    30    25   ar
    18    10     5   ar
    19    11    10    1
    20    14     5    1
    21     3     1   am
    22    32    21   ar
    23    12    13    2
    24     5     6   ar
    25     7     8   ar
    26     1     2    2
    27    21    23   ar
    28    24    31    2
    29    25    26   ar
    30    27    28   ar
    31    29    30   ar
    32     9    10   ar
    33    14    15    1
    34     3     4    1
