@<TRIPOS>MOLECULE
MolPort-006-609-941 ChemDiv-V028-4791 MCULE-8657905711 PubChem-46070025 ZINC000034735430 ZINC34735430
 30 33 0 0 0
SMALL
GASTEIGER

@<TRIPOS>ATOM
      1 C           8.3260   42.1773   11.5546 C.3     1  UNL1        0.0971
      2 C           9.6535   41.4972   11.8345 C.3     1  UNL1        0.0435
      3 C          10.6130   41.7459   10.6701 C.3     1  UNL1        0.1015
      4 C           8.5799   41.2973    9.2363 C.2     1  UNL1        0.3112
      5 N           7.7365   41.5954   10.3581 N.am    1  UNL1       -0.2595
      6 N          10.0110   41.4742    9.3535 N.am    1  UNL1       -0.2430
      7 O           8.0717   40.8477    8.1725 O.2     1  UNL1       -0.2520
      8 C          10.8797   41.4682    8.1991 C.ar    1  UNL1        0.0565
      9 C          10.5195   40.7522    7.0453 C.ar    1  UNL1        0.0150
     10 C          11.3628   40.7236    5.9323 C.ar    1  UNL1        0.0026
     11 C          12.5795   41.4074    5.9615 C.ar    1  UNL1        0.0148
     12 C          12.9625   42.1222    7.1047 C.ar    1  UNL1        0.0515
     13 C          12.1114   42.1448    8.2141 C.ar    1  UNL1        0.0296
     14 C          14.5855   43.9793    6.3923 C.2     1  UNL1        0.2256
     15 N          14.2041   42.8357    7.1744 N.am    1  UNL1       -0.2839
     16 O          13.8121   44.4521    5.5181 O.2     1  UNL1       -0.2748
     17 H          14.8647   42.5078    7.8265 H       1  UNL1        0.1549
     18 C          15.9232   44.6241    6.5928 C.3     1  UNL1        0.0768
     19 C          16.9562   44.0450    5.6448 C.3     1  UNL1        0.0091
     20 C          17.6982   43.4406    6.8209 C.3     1  UNL1        0.0010
     21 C          16.6609   44.0114    7.7685 C.3     1  UNL1        0.0091
     22 C           6.3348   41.1960   10.3762 C.3     1  UNL1        0.1240
     23 F           5.8743   45.0369    7.3964 F       1  UNL1       -0.2042
     24 F           3.5079   41.3833   10.7732 F       1  UNL1       -0.2044
     25 C           5.2971   44.1392    8.2303 C.ar    1  UNL1        0.1400
     26 C           6.0800   43.1699    8.8633 C.ar    1  UNL1        0.0293
     27 C           5.4874   42.2397    9.7241 C.ar    1  UNL1        0.0274
     28 C           4.1017   42.2783    9.9447 C.ar    1  UNL1        0.1379
     29 C           3.3217   43.2504    9.3110 C.ar    1  UNL1        0.0317
     30 C           3.9184   44.1796    8.4542 C.ar    1  UNL1        0.0319
@<TRIPOS>BOND
     1    25    23    1
     2    26    27   ar
     3    22    27    1
     4    22     5    1
     5     1     5    1
     6     1     2    1
     7     2     3    1
     8     3     6    1
     9     4     5   am
    10     9    10   ar
    11    11    12   ar
    12    12    15    1
    13    18    14    1
    14    18    19    1
    15    19    20    1
    16    20    21    1
    17    21    18    1
    18    13     8   ar
    19    28    24    1
    20    28    29   ar
    21    30    25   ar
    22     6     4   am
    23     6     8    1
    24    15    14   am
    25    25    26   ar
    26    27    28   ar
    27     4     7    2
    28     8     9   ar
    29    10    11   ar
    30    12    13   ar
    31    14    16    2
    32    29    30   ar
    33    15    17    1
@<TRIPOS>MOLECULE
MolPort-006-609-941 ChemDiv-V028-4791 MCULE-8657905711 PubChem-46070025 ZINC000034735430 ZINC34735430
 30 33 0 0 0
SMALL
GASTEIGER

@<TRIPOS>ATOM
      1 C           6.8907   42.7657    9.1375 C.3     1  UNL1        0.0971
      2 C           7.9702   43.8040    8.8929 C.3     1  UNL1        0.0435
      3 C           9.1955   43.1334    8.2706 C.3     1  UNL1        0.1015
      4 C           8.7402   41.3141    9.9656 C.2     1  UNL1        0.3112
      5 N           7.3873   41.7772   10.0830 N.am    1  UNL1       -0.2595
      6 N           9.6174   41.9167    8.9855 N.am    1  UNL1       -0.2430
      7 O           9.1640   40.4145   10.7422 O.2     1  UNL1       -0.2520
      8 C          10.8815   41.3199    8.6206 C.ar    1  UNL1        0.0565
      9 C          10.9592   39.9475    8.3300 C.ar    1  UNL1        0.0150
     10 C          12.1808   39.3580    7.9968 C.ar    1  UNL1        0.0026
     11 C          13.3409   40.1333    7.9548 C.ar    1  UNL1        0.0148
     12 C          13.2879   41.5029    8.2481 C.ar    1  UNL1        0.0515
     13 C          12.0603   42.0840    8.5808 C.ar    1  UNL1        0.0296
     14 C          14.9651   43.0634    7.0893 C.2     1  UNL1        0.2256
     15 N          14.4569   42.3325    8.2174 N.am    1  UNL1       -0.2839
     16 O          14.3923   43.0045    5.9693 O.2     1  UNL1       -0.2748
     17 H          14.9648   42.4094    9.0572 H       1  UNL1        0.1549
     18 C          16.2005   43.9009    7.2216 C.3     1  UNL1        0.0768
     19 C          16.6806   44.3839    5.8661 C.3     1  UNL1        0.0091
     20 C          17.9251   43.5283    6.0008 C.3     1  UNL1        0.0010
     21 C          17.4415   43.0379    7.3519 C.3     1  UNL1        0.0091
     22 C           6.5508   41.3870   11.2111 C.3     1  UNL1        0.1240
     23 F           1.9492   42.6772   12.2131 F       1  UNL1       -0.2042
     24 F           5.5451   40.3756    8.7311 F       1  UNL1       -0.2044
     25 C           2.8359   42.1087   11.3616 C.ar    1  UNL1        0.1400
     26 C           4.1869   42.0294   11.7104 C.ar    1  UNL1        0.0293
     27 C           5.1065   41.4444   10.8330 C.ar    1  UNL1        0.0274
     28 C           4.6688   40.9435    9.5969 C.ar    1  UNL1        0.1379
     29 C           3.3161   41.0230    9.2520 C.ar    1  UNL1        0.0317
     30 C           2.4006   41.6055   10.1329 C.ar    1  UNL1        0.0319
@<TRIPOS>BOND
     1    25    23    1
     2    26    27   ar
     3    22    27    1
     4    22     5    1
     5     1     5    1
     6     1     2    1
     7     2     3    1
     8     3     6    1
     9     4     5   am
    10     9    10   ar
    11    11    12   ar
    12    12    15    1
    13    18    14    1
    14    18    19    1
    15    19    20    1
    16    20    21    1
    17    21    18    1
    18    13     8   ar
    19    28    24    1
    20    28    29   ar
    21    30    25   ar
    22     6     4   am
    23     6     8    1
    24    15    14   am
    25    25    26   ar
    26    27    28   ar
    27     4     7    2
    28     8     9   ar
    29    10    11   ar
    30    12    13   ar
    31    14    16    2
    32    29    30   ar
    33    15    17    1
@<TRIPOS>MOLECULE
MolPort-006-609-941 ChemDiv-V028-4791 MCULE-8657905711 PubChem-46070025 ZINC000034735430 ZINC34735430
 30 33 0 0 0
SMALL
GASTEIGER

@<TRIPOS>ATOM
      1 C          11.3566   37.2057   10.1850 C.3     1  UNL1        0.0971
      2 C          12.3882   36.0925   10.1949 C.3     1  UNL1        0.0435
      3 C          13.7433   36.6525   10.6285 C.3     1  UNL1        0.1015
      4 C          13.1365   38.5879    9.1197 C.2     1  UNL1        0.3112
      5 N          11.7545   38.2141    9.2141 N.am    1  UNL1       -0.2595
      6 N          14.1220   37.8799    9.9076 N.am    1  UNL1       -0.2430
      7 O          13.4850   39.5026    8.3235 O.2     1  UNL1       -0.2520
      8 C          15.4673   38.3786   10.0780 C.ar    1  UNL1        0.0565
      9 C          16.4350   37.5968   10.7309 C.ar    1  UNL1        0.0150
     10 C          17.7322   38.0792   10.9186 C.ar    1  UNL1        0.0026
     11 C          18.0762   39.3518   10.4595 C.ar    1  UNL1        0.0148
     12 C          17.1249   40.1519    9.8119 C.ar    1  UNL1        0.0515
     13 C          15.8286   39.6602    9.6287 C.ar    1  UNL1        0.0296
     14 C          16.6463   42.2656    8.4356 C.2     1  UNL1        0.2256
     15 N          17.4386   41.4643    9.3275 N.am    1  UNL1       -0.2839
     16 O          15.5595   41.8324    7.9699 O.2     1  UNL1       -0.2748
     17 H          18.2857   41.8579    9.6385 H       1  UNL1        0.1549
     18 C          17.1086   43.6318    8.0294 C.3     1  UNL1        0.0768
     19 C          16.1112   44.2905    7.0953 C.3     1  UNL1        0.0091
     20 C          17.1232   44.2268    5.9680 C.3     1  UNL1        0.0010
     21 C          18.1177   43.5599    6.8986 C.3     1  UNL1        0.0091
     22 C          10.7699   38.7163    8.2641 C.3     1  UNL1        0.1240
     23 F           8.3428   42.8419    7.2984 F       1  UNL1       -0.2042
     24 F          11.2436   39.8071   10.8660 F       1  UNL1       -0.2044
     25 C           9.0596   42.0942    8.1711 C.ar    1  UNL1        0.1400
     26 C           9.5412   40.8403    7.7854 C.ar    1  UNL1        0.0293
     27 C          10.2807   40.0640    8.6844 C.ar    1  UNL1        0.0274
     28 C          10.5315   40.5459    9.9787 C.ar    1  UNL1        0.1379
     29 C          10.0496   41.8016   10.3607 C.ar    1  UNL1        0.0317
     30 C           9.3139   42.5749    9.4584 C.ar    1  UNL1        0.0319
@<TRIPOS>BOND
     1    25    23    1
     2    26    27   ar
     3    22    27    1
     4    22     5    1
     5     1     5    1
     6     1     2    1
     7     2     3    1
     8     3     6    1
     9     4     5   am
    10     9    10   ar
    11    11    12   ar
    12    12    15    1
    13    18    14    1
    14    18    19    1
    15    19    20    1
    16    20    21    1
    17    21    18    1
    18    13     8   ar
    19    28    24    1
    20    28    29   ar
    21    30    25   ar
    22     6     4   am
    23     6     8    1
    24    15    14   am
    25    25    26   ar
    26    27    28   ar
    27     4     7    2
    28     8     9   ar
    29    10    11   ar
    30    12    13   ar
    31    14    16    2
    32    29    30   ar
    33    15    17    1
@<TRIPOS>MOLECULE
MolPort-006-609-941 ChemDiv-V028-4791 MCULE-8657905711 PubChem-46070025 ZINC000034735430 ZINC34735430
 30 33 0 0 0
SMALL
GASTEIGER

@<TRIPOS>ATOM
      1 C           7.5313   40.6248    7.5382 C.3     1  UNL1        0.0971
      2 C           8.6587   40.5738    6.5235 C.3     1  UNL1        0.0435
      3 C           9.9215   40.0228    7.1868 C.3     1  UNL1        0.1015
      4 C           9.2459   41.5100    9.1162 C.2     1  UNL1        0.3112
      5 N           7.9016   41.5307    8.6153 N.am    1  UNL1       -0.2595
      6 N          10.2345   40.6740    8.4704 N.am    1  UNL1       -0.2430
      7 O           9.5635   42.2484   10.0888 O.2     1  UNL1       -0.2520
      8 C          11.5119   40.3881    9.0819 C.ar    1  UNL1        0.0565
      9 C          11.5829   39.5820   10.2303 C.ar    1  UNL1        0.0150
     10 C          12.8112   39.3176   10.8403 C.ar    1  UNL1        0.0026
     11 C          13.9836   39.8603   10.3114 C.ar    1  UNL1        0.0148
     12 C          13.9355   40.6732    9.1707 C.ar    1  UNL1        0.0515
     13 C          12.7010   40.9323    8.5671 C.ar    1  UNL1        0.0296
     14 C          15.1744   42.2859    7.6038 C.2     1  UNL1        0.2256
     15 N          15.1167   41.2503    8.5983 N.am    1  UNL1       -0.2839
     16 O          14.1208   42.7758    7.1182 O.2     1  UNL1       -0.2748
     17 H          15.9786   40.9002    8.9205 H       1  UNL1        0.1549
     18 C          16.4959   42.7938    7.1127 C.3     1  UNL1        0.0768
     19 C          17.6128   42.4255    8.0709 C.3     1  UNL1        0.0091
     20 C          17.8092   43.8910    8.4070 C.3     1  UNL1        0.0010
     21 C          16.6866   44.2593    7.4562 C.3     1  UNL1        0.0091
     22 C           6.9445   42.5349    9.0626 C.3     1  UNL1        0.1240
     23 F           2.2936   41.0656    8.8298 F       1  UNL1       -0.2042
     24 F           6.9866   41.4141   11.6945 F       1  UNL1       -0.2044
     25 C           3.4482   41.1568    9.5321 C.ar    1  UNL1        0.1400
     26 C           4.5616   41.7849    8.9674 C.ar    1  UNL1        0.0293
     27 C           5.7566   41.8797    9.6888 C.ar    1  UNL1        0.0274
     28 C           5.8362   41.3352   10.9801 C.ar    1  UNL1        0.1379
     29 C           4.7198   40.7090   11.5427 C.ar    1  UNL1        0.0317
     30 C           3.5271   40.6192   10.8195 C.ar    1  UNL1        0.0319
@<TRIPOS>BOND
     1    25    23    1
     2    26    27   ar
     3    22    27    1
     4    22     5    1
     5     1     5    1
     6     1     2    1
     7     2     3    1
     8     3     6    1
     9     4     5   am
    10     9    10   ar
    11    11    12   ar
    12    12    15    1
    13    18    14    1
    14    18    19    1
    15    19    20    1
    16    20    21    1
    17    21    18    1
    18    13     8   ar
    19    28    24    1
    20    28    29   ar
    21    30    25   ar
    22     6     4   am
    23     6     8    1
    24    15    14   am
    25    25    26   ar
    26    27    28   ar
    27     4     7    2
    28     8     9   ar
    29    10    11   ar
    30    12    13   ar
    31    14    16    2
    32    29    30   ar
    33    15    17    1
@<TRIPOS>MOLECULE
MolPort-006-609-941 ChemDiv-V028-4791 MCULE-8657905711 PubChem-46070025 ZINC000034735430 ZINC34735430
 30 33 0 0 0
SMALL
GASTEIGER

@<TRIPOS>ATOM
      1 C           8.3133   44.7589    9.3511 C.3     1  UNL1        0.0971
      2 C           9.0605   44.2604   10.5744 C.3     1  UNL1        0.0435
      3 C          10.2507   43.4063   10.1359 C.3     1  UNL1        0.1015
      4 C           8.6176   42.4512    8.4592 C.2     1  UNL1        0.3112
      5 N           7.7955   43.6171    8.6121 N.am    1  UNL1       -0.2595
      6 N           9.8959   42.3868    9.1337 N.am    1  UNL1       -0.2430
      7 O           8.2030   41.4782    7.7711 O.2     1  UNL1       -0.2520
      8 C          10.8855   41.3872    8.8038 C.ar    1  UNL1        0.0565
      9 C          10.5223   40.0329    8.7159 C.ar    1  UNL1        0.0150
     10 C          11.4764   39.0573    8.4183 C.ar    1  UNL1        0.0026
     11 C          12.8071   39.4240    8.2093 C.ar    1  UNL1        0.0148
     12 C          13.1932   40.7684    8.2992 C.ar    1  UNL1        0.0515
     13 C          12.2307   41.7379    8.5978 C.ar    1  UNL1        0.0296
     14 C          14.9919   42.3892    7.4454 C.2     1  UNL1        0.2256
     15 N          14.5496   41.1849    8.0929 N.am    1  UNL1       -0.2839
     16 O          14.1635   43.2058    6.9631 O.2     1  UNL1       -0.2748
     17 H          15.2515   40.5827    8.4303 H       1  UNL1        0.1549
     18 C          16.4545   42.6892    7.3180 C.3     1  UNL1        0.0768
     19 C          17.1880   42.3902    8.6117 C.3     1  UNL1        0.0091
     20 C          17.4740   43.8682    8.7925 C.3     1  UNL1        0.0010
     21 C          16.7329   44.1690    7.5041 C.3     1  UNL1        0.0091
     22 C           6.4071   43.6254    8.1687 C.3     1  UNL1        0.1240
     23 F           5.8807   40.5722   11.9429 F       1  UNL1       -0.2042
     24 F           3.5760   44.0123    8.3089 F       1  UNL1       -0.2044
     25 C           5.3176   41.4157   11.0452 C.ar    1  UNL1        0.1400
     26 C           6.1152   42.0572   10.0937 C.ar    1  UNL1        0.0293
     27 C           5.5377   42.9306    9.1657 C.ar    1  UNL1        0.0274
     28 C           4.1544   43.1666    9.1979 C.ar    1  UNL1        0.1379
     29 C           3.3591   42.5219   10.1503 C.ar    1  UNL1        0.0317
     30 C           3.9399   41.6478   11.0734 C.ar    1  UNL1        0.0319
@<TRIPOS>BOND
     1    25    23    1
     2    26    27   ar
     3    22    27    1
     4    22     5    1
     5     1     5    1
     6     1     2    1
     7     2     3    1
     8     3     6    1
     9     4     5   am
    10     9    10   ar
    11    11    12   ar
    12    12    15    1
    13    18    14    1
    14    18    19    1
    15    19    20    1
    16    20    21    1
    17    21    18    1
    18    13     8   ar
    19    28    24    1
    20    28    29   ar
    21    30    25   ar
    22     6     4   am
    23     6     8    1
    24    15    14   am
    25    25    26   ar
    26    27    28   ar
    27     4     7    2
    28     8     9   ar
    29    10    11   ar
    30    12    13   ar
    31    14    16    2
    32    29    30   ar
    33    15    17    1
@<TRIPOS>MOLECULE
MolPort-006-609-941 ChemDiv-V028-4791 MCULE-8657905711 PubChem-46070025 ZINC000034735430 ZINC34735430
 30 33 0 0 0
SMALL
GASTEIGER

@<TRIPOS>ATOM
      1 C           7.3299   40.9954    7.7057 C.3     1  UNL1        0.0971
      2 C           8.1922   41.7091    6.6807 C.3     1  UNL1        0.0435
      3 C           9.6025   41.1184    6.6962 C.3     1  UNL1        0.1015
      4 C           9.3130   41.1576    9.2072 C.2     1  UNL1        0.3112
      5 N           7.8901   41.2113    9.0314 N.am    1  UNL1       -0.2595
      6 N          10.1688   41.0027    8.0510 N.am    1  UNL1       -0.2430
      7 O           9.8068   41.2845   10.3613 O.2     1  UNL1       -0.2520
      8 C          11.5669   40.6598    8.1744 C.ar    1  UNL1        0.0565
      9 C          11.9467   39.3671    8.5725 C.ar    1  UNL1        0.0150
     10 C          13.2953   39.0329    8.7147 C.ar    1  UNL1        0.0026
     11 C          14.2809   39.9894    8.4648 C.ar    1  UNL1        0.0148
     12 C          13.9247   41.2873    8.0736 C.ar    1  UNL1        0.0515
     13 C          12.5718   41.6124    7.9340 C.ar    1  UNL1        0.0296
     14 C          14.8380   43.3245    6.8061 C.2     1  UNL1        0.2256
     15 N          14.9068   42.2979    7.8093 N.am    1  UNL1       -0.2839
     16 O          13.8543   43.3991    6.0234 O.2     1  UNL1       -0.2748
     17 H          15.7129   42.2874    8.3744 H       1  UNL1        0.1549
     18 C          15.9481   44.3208    6.6622 C.3     1  UNL1        0.0768
     19 C          16.9844   43.8431    5.6628 C.3     1  UNL1        0.0091
     20 C          18.0022   43.7121    6.7791 C.3     1  UNL1        0.0010
     21 C          16.9640   44.1809    7.7803 C.3     1  UNL1        0.0091
     22 C           7.0096   41.6179   10.1194 C.3     1  UNL1        0.1240
     23 F           5.2612   45.4212    7.6050 F       1  UNL1       -0.2042
     24 F           4.2831   40.8502   10.5207 F       1  UNL1       -0.2044
     25 C           5.0250   44.2989    8.3256 C.ar    1  UNL1        0.1400
     26 C           6.0944   43.5646    8.8455 C.ar    1  UNL1        0.0293
     27 C           5.8549   42.4038    9.5890 C.ar    1  UNL1        0.0274
     28 C           4.5361   41.9745    9.8052 C.ar    1  UNL1        0.1379
     29 C           3.4685   42.7126    9.2851 C.ar    1  UNL1        0.0317
     30 C           3.7124   43.8732    8.5455 C.ar    1  UNL1        0.0319
@<TRIPOS>BOND
     1    25    23    1
     2    26    27   ar
     3    22    27    1
     4    22     5    1
     5     1     5    1
     6     1     2    1
     7     2     3    1
     8     3     6    1
     9     4     5   am
    10     9    10   ar
    11    11    12   ar
    12    12    15    1
    13    18    14    1
    14    18    19    1
    15    19    20    1
    16    20    21    1
    17    21    18    1
    18    13     8   ar
    19    28    24    1
    20    28    29   ar
    21    30    25   ar
    22     6     4   am
    23     6     8    1
    24    15    14   am
    25    25    26   ar
    26    27    28   ar
    27     4     7    2
    28     8     9   ar
    29    10    11   ar
    30    12    13   ar
    31    14    16    2
    32    29    30   ar
    33    15    17    1
@<TRIPOS>MOLECULE
MolPort-006-609-941 ChemDiv-V028-4791 MCULE-8657905711 PubChem-46070025 ZINC000034735430 ZINC34735430
 30 33 0 0 0
SMALL
GASTEIGER

@<TRIPOS>ATOM
      1 C           7.9444   42.1772   10.4417 C.3     1  UNL1        0.0971
      2 C           8.4839   41.5117   11.6945 C.3     1  UNL1        0.0435
      3 C          10.0075   41.4146   11.6083 C.3     1  UNL1        0.1015
      4 C           9.5716   40.7463    9.2096 C.2     1  UNL1        0.3112
      5 N           8.2750   41.3558    9.2868 N.am    1  UNL1       -0.2595
      6 N          10.4828   40.8650   10.3270 N.am    1  UNL1       -0.2430
      7 O           9.8909   40.0807    8.1863 O.2     1  UNL1       -0.2520
      8 C          11.8832   40.5289   10.2113 C.ar    1  UNL1        0.0565
      9 C          12.4657   39.6067   11.0968 C.ar    1  UNL1        0.0150
     10 C          13.8234   39.2916   11.0057 C.ar    1  UNL1        0.0026
     11 C          14.6163   39.8987   10.0303 C.ar    1  UNL1        0.0148
     12 C          14.0577   40.8271    9.1410 C.ar    1  UNL1        0.0515
     13 C          12.6975   41.1362    9.2402 C.ar    1  UNL1        0.0296
     14 C          14.4162   42.5420    7.2645 C.2     1  UNL1        0.2256
     15 N          14.8388   41.4730    8.1269 N.am    1  UNL1       -0.2839
     16 O          13.2455   43.0013    7.3298 O.2     1  UNL1       -0.2748
     17 H          15.7614   41.1503    8.0090 H       1  UNL1        0.1549
     18 C          15.3608   43.1223    6.2563 C.3     1  UNL1        0.0768
     19 C          16.0908   44.3260    6.8214 C.3     1  UNL1        0.0091
     20 C          15.3727   45.2261    5.8348 C.3     1  UNL1        0.0010
     21 C          14.6356   44.0246    5.2755 C.3     1  UNL1        0.0091
     22 C           7.2387   41.0529    8.3077 C.3     1  UNL1        0.1240
     23 F           2.7767   42.0740   10.0082 F       1  UNL1       -0.2042
     24 F           7.2506   43.7063    7.2384 F       1  UNL1       -0.2044
     25 C           3.8769   42.4700    9.3246 C.ar    1  UNL1        0.1400
     26 C           4.9509   41.5911    9.1601 C.ar    1  UNL1        0.0293
     27 C           6.0900   41.9968    8.4561 C.ar    1  UNL1        0.0274
     28 C           6.1538   43.2930    7.9214 C.ar    1  UNL1        0.1379
     29 C           5.0768   44.1692    8.0865 C.ar    1  UNL1        0.0317
     30 C           3.9397   43.7586    8.7878 C.ar    1  UNL1        0.0319
@<TRIPOS>BOND
     1    25    23    1
     2    26    27   ar
     3    22    27    1
     4    22     5    1
     5     1     5    1
     6     1     2    1
     7     2     3    1
     8     3     6    1
     9     4     5   am
    10     9    10   ar
    11    11    12   ar
    12    12    15    1
    13    18    14    1
    14    18    19    1
    15    19    20    1
    16    20    21    1
    17    21    18    1
    18    13     8   ar
    19    28    24    1
    20    28    29   ar
    21    30    25   ar
    22     6     4   am
    23     6     8    1
    24    15    14   am
    25    25    26   ar
    26    27    28   ar
    27     4     7    2
    28     8     9   ar
    29    10    11   ar
    30    12    13   ar
    31    14    16    2
    32    29    30   ar
    33    15    17    1
@<TRIPOS>MOLECULE
MolPort-006-609-941 ChemDiv-V028-4791 MCULE-8657905711 PubChem-46070025 ZINC000034735430 ZINC34735430
 30 33 0 0 0
SMALL
GASTEIGER

@<TRIPOS>ATOM
      1 C          16.7689   39.3175   11.2180 C.3     1  UNL1        0.0971
      2 C          17.8766   39.7409   10.2709 C.3     1  UNL1        0.0435
      3 C          17.4402   40.9834    9.4938 C.3     1  UNL1        0.1015
      4 C          15.2253   39.7781    9.3158 C.2     1  UNL1        0.3112
      5 N          15.5882   38.9675   10.4426 N.am    1  UNL1       -0.2595
      6 N          16.0966   40.8570    8.9036 N.am    1  UNL1       -0.2430
      7 O          14.1716   39.5196    8.6716 O.2     1  UNL1       -0.2520
      8 C          15.6658   41.8758    7.9742 C.ar    1  UNL1        0.0565
      9 C          16.4701   43.0027    7.7357 C.ar    1  UNL1        0.0150
     10 C          16.0521   44.0028    6.8548 C.ar    1  UNL1        0.0026
     11 C          14.8217   43.8901    6.2051 C.ar    1  UNL1        0.0148
     12 C          13.9997   42.7780    6.4336 C.ar    1  UNL1        0.0515
     13 C          14.4270   41.7820    7.3173 C.ar    1  UNL1        0.0296
     14 C          11.5958   41.8909    6.2765 C.2     1  UNL1        0.2256
     15 N          12.7291   42.6265    5.7870 N.am    1  UNL1       -0.2839
     16 O          11.6516   41.2693    7.3703 O.2     1  UNL1       -0.2748
     17 H          12.6217   43.0732    4.9163 H       1  UNL1        0.1549
     18 C          10.3256   41.8372    5.4833 C.3     1  UNL1        0.0768
     19 C           9.1362   41.5393    6.3764 C.3     1  UNL1        0.0091
     20 C           8.9587   40.1969    5.6942 C.3     1  UNL1        0.0010
     21 C          10.1533   40.4899    4.8072 C.3     1  UNL1        0.0091
     22 C          14.8847   37.7254   10.7372 C.3     1  UNL1        0.1240
     23 F          10.7734   40.3419   11.0464 F       1  UNL1       -0.2042
     24 F          13.3227   35.7522    9.3766 F       1  UNL1       -0.2044
     25 C          11.4032   39.2134   10.6410 C.ar    1  UNL1        0.1400
     26 C          12.7670   39.0446   10.8954 C.ar    1  UNL1        0.0293
     27 C          13.4217   37.8811   10.4768 C.ar    1  UNL1        0.0274
     28 C          12.7055   36.8860    9.7934 C.ar    1  UNL1        0.1379
     29 C          11.3408   37.0574    9.5420 C.ar    1  UNL1        0.0317
     30 C          10.6902   38.2200    9.9646 C.ar    1  UNL1        0.0319
@<TRIPOS>BOND
     1    25    23    1
     2    26    27   ar
     3    22    27    1
     4    22     5    1
     5     1     5    1
     6     1     2    1
     7     2     3    1
     8     3     6    1
     9     4     5   am
    10     9    10   ar
    11    11    12   ar
    12    12    15    1
    13    18    14    1
    14    18    19    1
    15    19    20    1
    16    20    21    1
    17    21    18    1
    18    13     8   ar
    19    28    24    1
    20    28    29   ar
    21    30    25   ar
    22     6     4   am
    23     6     8    1
    24    15    14   am
    25    25    26   ar
    26    27    28   ar
    27     4     7    2
    28     8     9   ar
    29    10    11   ar
    30    12    13   ar
    31    14    16    2
    32    29    30   ar
    33    15    17    1
@<TRIPOS>MOLECULE
MolPort-006-609-941 ChemDiv-V028-4791 MCULE-8657905711 PubChem-46070025 ZINC000034735430 ZINC34735430
 30 33 0 0 0
SMALL
GASTEIGER

@<TRIPOS>ATOM
      1 C          10.6161   38.1951    9.9244 C.3     1  UNL1        0.0971
      2 C          11.5398   37.1409    9.3422 C.3     1  UNL1        0.0435
      3 C          12.9372   37.2944    9.9439 C.3     1  UNL1        0.1015
      4 C          12.5259   39.7670    9.6158 C.2     1  UNL1        0.3112
      5 N          11.1144   39.5145    9.5657 N.am    1  UNL1       -0.2595
      6 N          13.4344   38.6805    9.9113 N.am    1  UNL1       -0.2430
      7 O          12.9648   40.9229    9.3641 O.2     1  UNL1       -0.2520
      8 C          14.8186   38.9125   10.2544 C.ar    1  UNL1        0.0565
      9 C          15.4335   38.1572   11.2669 C.ar    1  UNL1        0.0150
     10 C          16.7649   38.3888   11.6196 C.ar    1  UNL1        0.0026
     11 C          17.4965   39.3824   10.9667 C.ar    1  UNL1        0.0148
     12 C          16.9011   40.1529    9.9585 C.ar    1  UNL1        0.0515
     13 C          15.5675   39.9136    9.6125 C.ar    1  UNL1        0.0296
     14 C          17.0651   42.1747    8.3849 C.2     1  UNL1        0.2256
     15 N          17.6182   41.1832    9.2658 N.am    1  UNL1       -0.2839
     16 O          15.8328   42.1949    8.1265 O.2     1  UNL1       -0.2748
     17 H          18.5918   41.2147    9.4086 H       1  UNL1        0.1549
     18 C          17.9510   43.1983    7.7424 C.3     1  UNL1        0.0768
     19 C          17.1555   44.4160    7.3118 C.3     1  UNL1        0.0091
     20 C          17.4319   44.0839    5.8583 C.3     1  UNL1        0.0010
     21 C          18.2196   42.8612    6.2877 C.3     1  UNL1        0.0091
     22 C          10.1890   40.5036    9.0275 C.3     1  UNL1        0.1240
     23 F           6.4998   39.1303    6.1381 F       1  UNL1       -0.2042
     24 F          11.8663   40.2294    6.7262 F       1  UNL1       -0.2044
     25 C           7.8192   39.3978    6.2880 C.ar    1  UNL1        0.1400
     26 C           8.3157   39.7878    7.5347 C.ar    1  UNL1        0.0293
     27 C           9.6775   40.0666    7.6933 C.ar    1  UNL1        0.0274
     28 C          10.5433   39.9604    6.5936 C.ar    1  UNL1        0.1379
     29 C          10.0435   39.5682    5.3481 C.ar    1  UNL1        0.0317
     30 C           8.6828   39.2878    5.1949 C.ar    1  UNL1        0.0319
@<TRIPOS>BOND
     1    25    23    1
     2    26    27   ar
     3    22    27    1
     4    22     5    1
     5     1     5    1
     6     1     2    1
     7     2     3    1
     8     3     6    1
     9     4     5   am
    10     9    10   ar
    11    11    12   ar
    12    12    15    1
    13    18    14    1
    14    18    19    1
    15    19    20    1
    16    20    21    1
    17    21    18    1
    18    13     8   ar
    19    28    24    1
    20    28    29   ar
    21    30    25   ar
    22     6     4   am
    23     6     8    1
    24    15    14   am
    25    25    26   ar
    26    27    28   ar
    27     4     7    2
    28     8     9   ar
    29    10    11   ar
    30    12    13   ar
    31    14    16    2
    32    29    30   ar
    33    15    17    1
@<TRIPOS>MOLECULE
MolPort-006-609-941 ChemDiv-V028-4791 MCULE-8657905711 PubChem-46070025 ZINC000034735430 ZINC34735430
 30 33 0 0 0
SMALL
GASTEIGER

@<TRIPOS>ATOM
      1 C           8.9205   43.2818    9.4488 C.3     1  UNL1        0.0971
      2 C           9.0586   42.4402   10.7041 C.3     1  UNL1        0.0435
      3 C          10.4302   41.7643   10.7203 C.3     1  UNL1        0.1015
      4 C           9.9704   41.3535    8.2687 C.2     1  UNL1        0.3112
      5 N           9.0049   42.4147    8.2831 N.am    1  UNL1       -0.2595
      6 N          10.7623   41.0941    9.4514 N.am    1  UNL1       -0.2430
      7 O          10.0933   40.6323    7.2407 O.2     1  UNL1       -0.2520
      8 C          11.9313   40.2457    9.4185 C.ar    1  UNL1        0.0565
      9 C          11.7984   38.8519    9.5347 C.ar    1  UNL1        0.0150
     10 C          12.9245   38.0257    9.5250 C.ar    1  UNL1        0.0026
     11 C          14.1981   38.5841    9.4036 C.ar    1  UNL1        0.0148
     12 C          14.3547   39.9726    9.2936 C.ar    1  UNL1        0.0515
     13 C          13.2213   40.7916    9.3044 C.ar    1  UNL1        0.0296
     14 C          15.9918   41.7022    8.3350 C.2     1  UNL1        0.2256
     15 N          15.6454   40.5843    9.1688 N.am    1  UNL1       -0.2839
     16 O          15.1330   42.2443    7.5904 O.2     1  UNL1       -0.2748
     17 H          16.3704   40.1979    9.7113 H       1  UNL1        0.1549
     18 C          17.3918   42.2364    8.3246 C.3     1  UNL1        0.0768
     19 C          17.4357   43.6631    8.8382 C.3     1  UNL1        0.0091
     20 C          17.8396   44.1481    7.4595 C.3     1  UNL1        0.0010
     21 C          17.7870   42.7232    6.9431 C.3     1  UNL1        0.0091
     22 C           8.0160   42.5503    7.2210 C.3     1  UNL1        0.1240
     23 F           4.2344   45.6201    7.5670 F       1  UNL1       -0.2042
     24 F           6.5955   40.8677    9.0473 F       1  UNL1       -0.2044
     25 C           4.8201   44.4544    7.9313 C.ar    1  UNL1        0.1400
     26 C           6.0756   44.1139    7.4205 C.ar    1  UNL1        0.0293
     27 C           6.6833   42.9100    7.7929 C.ar    1  UNL1        0.0274
     28 C           6.0244   42.0409    8.6765 C.ar    1  UNL1        0.1379
     29 C           4.7692   42.3855    9.1870 C.ar    1  UNL1        0.0317
     30 C           4.1671   43.5906    8.8145 C.ar    1  UNL1        0.0319
@<TRIPOS>BOND
     1    25    23    1
     2    26    27   ar
     3    22    27    1
     4    22     5    1
     5     1     5    1
     6     1     2    1
     7     2     3    1
     8     3     6    1
     9     4     5   am
    10     9    10   ar
    11    11    12   ar
    12    12    15    1
    13    18    14    1
    14    18    19    1
    15    19    20    1
    16    20    21    1
    17    21    18    1
    18    13     8   ar
    19    28    24    1
    20    28    29   ar
    21    30    25   ar
    22     6     4   am
    23     6     8    1
    24    15    14   am
    25    25    26   ar
    26    27    28   ar
    27     4     7    2
    28     8     9   ar
    29    10    11   ar
    30    12    13   ar
    31    14    16    2
    32    29    30   ar
    33    15    17    1
