@<TRIPOS>MOLECULE
MolPort-005-052-165 12597774 CSSS00159765715 MCULE-6149057518 PubChem-25386761 ZINC000012597774
 32 36 0 0 0
SMALL
GASTEIGER

@<TRIPOS>ATOM
      1 C          14.4999   39.0454   10.4561 C.ar    1  UNL1        0.1328
      2 C          15.0612   38.7215   11.6772 C.ar    1  UNL1        0.0565
      3 C          14.4173   37.5386   12.0231 C.ar    1  UNL1        0.1230
      4 N          13.5359   37.2004   11.0584 N.ar    1  UNL1       -0.1666
      5 N          13.5972   38.1178   10.1098 N.ar    1  UNL1       -0.2394
      6 C          12.7745   38.1311    8.9029 C.3     1  UNL1        0.1093
      7 C          12.8960   39.4728    8.1670 C.3     1  UNL1        0.0418
      8 C          12.0122   40.5873    8.7581 C.3     1  UNL1        0.0741
      9 C          10.3817   38.9411    9.2742 C.3     1  UNL1        0.0741
     10 C          11.3222   37.7360    9.2141 C.3     1  UNL1        0.0418
     11 N          11.0936   40.1026    9.7925 N.3     1  UNL1       -0.2725
     12 C          10.1028   41.1436   10.0122 C.3     1  UNL1        0.0742
     13 C           9.5787   41.0827   11.4408 C.3     1  UNL1        0.0437
     14 C           8.5410   42.1684   11.7034 C.3     1  UNL1        0.1289
     15 C           6.9029   41.9701    9.8329 C.ar    1  UNL1        0.0967
     16 C           5.6206   41.4726    9.6849 C.ar    1  UNL1        0.0427
     17 C           5.2634   41.0196   10.9466 C.ar    1  UNL1        0.1217
     18 N           7.2547   41.8158   11.1200 N.ar    1  UNL1       -0.2494
     19 N           6.2822   41.2380   11.7981 N.ar    1  UNL1       -0.1677
     20 O          17.1367   39.9787    9.6541 O.2     1  UNL1       -0.2698
     21 C          16.1205   40.6241    9.2773 C.2     1  UNL1        0.2506
     22 N          14.8054   40.1927    9.6526 N.am    1  UNL1       -0.2660
     23 H          14.0466   40.7311    9.3307 H       1  UNL1        0.1566
     24 O          16.5267   45.1954    6.0488 O.3     1  UNL1       -0.4346
     25 O          14.5083   44.1455    6.1279 O.3     1  UNL1       -0.4346
     26 C          16.2851   41.8293    8.4459 C.ar    1  UNL1        0.0569
     27 C          15.1972   42.3328    7.7007 C.ar    1  UNL1        0.0447
     28 C          15.4076   43.4743    6.9318 C.ar    1  UNL1        0.1766
     29 C          16.6106   44.0998    6.8847 C.ar    1  UNL1        0.1764
     30 C          15.1877   45.2630    5.5382 C.3     1  UNL1        0.4294
     31 C          17.7113   43.6408    7.6017 C.ar    1  UNL1        0.0403
     32 C          17.5373   42.4893    8.3903 C.ar    1  UNL1        0.0078
@<TRIPOS>BOND
     1    21    22   am
     2    21    26    1
     3     2     3   ar
     4     6     5    1
     5     6     7    1
     6     7     8    1
     7     8    11    1
     8    12    11    1
     9    12    13    1
    10    13    14    1
    11    14    18    1
    12    16    17   ar
    13     9    11    1
    14     9    10    1
    15    10     6    1
    16    27    28   ar
    17    28    25    1
    18    29    24    1
    19    29    31   ar
    20    30    24    1
    21    30    25    1
    22    32    26   ar
    23    22     1    1
    24     5     4   ar
    25     5     1   ar
    26    18    15   ar
    27    18    19   ar
    28    21    20    2
    29     1     2   ar
    30     3     4   ar
    31    15    16   ar
    32    17    19   ar
    33    26    27   ar
    34    28    29   ar
    35    31    32   ar
    36    22    23    1
@<TRIPOS>MOLECULE
MolPort-005-052-165 12597774 CSSS00159765715 MCULE-6149057518 PubChem-25386761 ZINC000012597774
 32 36 0 0 0
SMALL
GASTEIGER

@<TRIPOS>ATOM
      1 C           9.7071   41.0724   10.4655 C.ar    1  UNL1        0.1328
      2 C          10.3372   41.3046   11.6738 C.ar    1  UNL1        0.0565
      3 C          11.4563   40.4813   11.6161 C.ar    1  UNL1        0.1230
      4 N          11.4706   39.8131   10.4434 N.ar    1  UNL1       -0.1666
      5 N          10.4083   40.1824    9.7503 N.ar    1  UNL1       -0.2394
      6 C          10.0439   39.6621    8.4350 C.3     1  UNL1        0.1093
      7 C          11.2577   39.0374    7.7330 C.3     1  UNL1        0.0418
      8 C          12.1771   40.0668    7.0492 C.3     1  UNL1        0.0741
      9 C          10.2533   41.3611    6.5406 C.3     1  UNL1        0.0741
     10 C           9.3346   40.7317    7.5895 C.3     1  UNL1        0.0418
     11 N          11.6187   41.4222    7.0473 N.3     1  UNL1       -0.2725
     12 C          12.3893   42.2052    6.0953 C.3     1  UNL1        0.0742
     13 C          13.8034   42.4283    6.6148 C.3     1  UNL1        0.0437
     14 C          14.2950   43.8395    6.3126 C.3     1  UNL1        0.1289
     15 C          16.4565   43.8570    7.5572 C.ar    1  UNL1        0.0967
     16 C          17.7959   43.9325    7.2195 C.ar    1  UNL1        0.0427
     17 C          17.8121   44.0359    5.8361 C.ar    1  UNL1        0.1217
     18 N          15.7444   43.9236    6.4203 N.ar    1  UNL1       -0.2494
     19 N          16.5468   44.0224    5.3783 N.ar    1  UNL1       -0.1677
     20 O           7.1466   41.1080   11.8472 O.2     1  UNL1       -0.2698
     21 C           7.2390   41.6656   10.7196 C.2     1  UNL1        0.2506
     22 N           8.4854   41.6686   10.0104 N.am    1  UNL1       -0.2660
     23 H           8.5036   42.1190    9.1351 H       1  UNL1        0.1566
     24 O           2.8858   44.2903    8.3435 O.3     1  UNL1       -0.4346
     25 O           4.9732   44.9968    7.7721 O.3     1  UNL1       -0.4346
     26 C           6.0588   42.3185   10.1265 C.ar    1  UNL1        0.0569
     27 C           6.2192   43.3779    9.2075 C.ar    1  UNL1        0.0447
     28 C           5.0705   43.9593    8.6774 C.ar    1  UNL1        0.1766
     29 C           3.8267   43.5382    9.0181 C.ar    1  UNL1        0.1764
     30 C           3.5812   45.2439    7.5279 C.3     1  UNL1        0.4294
     31 C           3.6190   42.4982    9.9191 C.ar    1  UNL1        0.0403
     32 C           4.7560   41.8858   10.4760 C.ar    1  UNL1        0.0078
@<TRIPOS>BOND
     1    21    22   am
     2    21    26    1
     3     2     3   ar
     4     6     5    1
     5     6     7    1
     6     7     8    1
     7     8    11    1
     8    12    11    1
     9    12    13    1
    10    13    14    1
    11    14    18    1
    12    16    17   ar
    13     9    11    1
    14     9    10    1
    15    10     6    1
    16    27    28   ar
    17    28    25    1
    18    29    24    1
    19    29    31   ar
    20    30    24    1
    21    30    25    1
    22    32    26   ar
    23    22     1    1
    24     5     4   ar
    25     5     1   ar
    26    18    15   ar
    27    18    19   ar
    28    21    20    2
    29     1     2   ar
    30     3     4   ar
    31    15    16   ar
    32    17    19   ar
    33    26    27   ar
    34    28    29   ar
    35    31    32   ar
    36    22    23    1
@<TRIPOS>MOLECULE
MolPort-005-052-165 12597774 CSSS00159765715 MCULE-6149057518 PubChem-25386761 ZINC000012597774
 32 36 0 0 0
SMALL
GASTEIGER

@<TRIPOS>ATOM
      1 C          10.6111   40.5515    5.2323 C.ar    1  UNL1        0.1328
      2 C          10.5311   39.3282    4.5936 C.ar    1  UNL1        0.0565
      3 C           9.1784   39.0149    4.6676 C.ar    1  UNL1        0.1230
      4 N           8.5170   39.9996    5.3118 N.ar    1  UNL1       -0.1666
      5 N           9.3939   40.9296    5.6456 N.ar    1  UNL1       -0.2394
      6 C           9.0808   42.1488    6.3867 C.3     1  UNL1        0.1093
      7 C           9.2258   41.9280    7.8989 C.3     1  UNL1        0.0418
      8 C           8.0064   41.2449    8.5462 C.3     1  UNL1        0.0741
      9 C           6.6159   42.3960    7.0048 C.3     1  UNL1        0.0741
     10 C           7.7088   42.7103    5.9815 C.3     1  UNL1        0.0418
     11 N           6.8735   41.1033    7.6269 N.3     1  UNL1       -0.2725
     12 C           5.7050   40.7785    8.4286 C.3     1  UNL1        0.0742
     13 C           5.7839   41.4691    9.7836 C.3     1  UNL1        0.0437
     14 C           4.4902   42.2054   10.1131 C.3     1  UNL1        0.1289
     15 C           5.2817   44.1715    8.7982 C.ar    1  UNL1        0.0967
     16 C           4.6965   45.1127    7.9701 C.ar    1  UNL1        0.0427
     17 C           3.3467   44.7926    7.9604 C.ar    1  UNL1        0.1217
     18 N           4.3091   43.3603    9.2456 N.ar    1  UNL1       -0.2494
     19 N           3.1431   43.7170    8.7429 N.ar    1  UNL1       -0.1677
     20 O          12.3023   40.5641    7.6002 O.2     1  UNL1       -0.2698
     21 C          12.6069   41.3093    6.6291 C.2     1  UNL1        0.2506
     22 N          11.7971   41.3282    5.4457 N.am    1  UNL1       -0.2660
     23 H          12.0801   41.9262    4.7167 H       1  UNL1        0.1566
     24 O          17.2409   44.4373    7.1055 O.3     1  UNL1       -0.4346
     25 O          17.0524   42.6296    8.4765 O.3     1  UNL1       -0.4346
     26 C          13.8025   42.1665    6.7105 C.ar    1  UNL1        0.0569
     27 C          14.8282   41.8702    7.6339 C.ar    1  UNL1        0.0447
     28 C          15.9358   42.7130    7.6691 C.ar    1  UNL1        0.1766
     29 C          16.0479   43.7902    6.8521 C.ar    1  UNL1        0.1764
     30 C          17.9213   43.7226    8.1469 C.3     1  UNL1        0.4294
     31 C          15.0633   44.1220    5.9265 C.ar    1  UNL1        0.0403
     32 C          13.9286   43.2935    5.8616 C.ar    1  UNL1        0.0078
@<TRIPOS>BOND
     1    21    22   am
     2    21    26    1
     3     2     3   ar
     4     6     5    1
     5     6     7    1
     6     7     8    1
     7     8    11    1
     8    12    11    1
     9    12    13    1
    10    13    14    1
    11    14    18    1
    12    16    17   ar
    13     9    11    1
    14     9    10    1
    15    10     6    1
    16    27    28   ar
    17    28    25    1
    18    29    24    1
    19    29    31   ar
    20    30    24    1
    21    30    25    1
    22    32    26   ar
    23    22     1    1
    24     5     4   ar
    25     5     1   ar
    26    18    15   ar
    27    18    19   ar
    28    21    20    2
    29     1     2   ar
    30     3     4   ar
    31    15    16   ar
    32    17    19   ar
    33    26    27   ar
    34    28    29   ar
    35    31    32   ar
    36    22    23    1
@<TRIPOS>MOLECULE
MolPort-005-052-165 12597774 CSSS00159765715 MCULE-6149057518 PubChem-25386761 ZINC000012597774
 32 36 0 0 0
SMALL
GASTEIGER

@<TRIPOS>ATOM
      1 C           9.1732   39.9509    6.0656 C.ar    1  UNL1        0.1328
      2 C           9.1070   39.5465    4.7454 C.ar    1  UNL1        0.0565
      3 C          10.4135   39.1653    4.4603 C.ar    1  UNL1        0.1230
      4 N          11.1879   39.3402    5.5519 N.ar    1  UNL1       -0.1666
      5 N          10.4252   39.8121    6.5219 N.ar    1  UNL1       -0.2394
      6 C          10.8939   40.1647    7.8597 C.3     1  UNL1        0.1093
      7 C          10.7626   41.6734    8.1105 C.3     1  UNL1        0.0418
      8 C          11.9119   42.5049    7.5102 C.3     1  UNL1        0.0741
      9 C          13.3857   40.7066    7.9885 C.3     1  UNL1        0.0741
     10 C          12.3105   39.6256    8.1139 C.3     1  UNL1        0.0418
     11 N          12.9979   41.6790    6.9743 N.3     1  UNL1       -0.2725
     12 C          14.1413   42.5520    6.7651 C.3     1  UNL1        0.0742
     13 C          13.8008   43.6370    5.7522 C.3     1  UNL1        0.0437
     14 C          14.7729   44.8084    5.8380 C.3     1  UNL1        0.1289
     15 C          16.4714   44.1369    7.5366 C.ar    1  UNL1        0.0967
     16 C          17.7799   43.6888    7.5087 C.ar    1  UNL1        0.0427
     17 C          18.1223   43.6639    6.1645 C.ar    1  UNL1        0.1217
     18 N          16.0909   44.3650    6.2688 N.ar    1  UNL1       -0.2494
     19 N          17.0703   44.0764    5.4340 N.ar    1  UNL1       -0.1677
     20 O           7.9068   42.5627    5.8613 O.2     1  UNL1       -0.2698
     21 C           7.4916   41.7500    6.7320 C.2     1  UNL1        0.2506
     22 N           8.0912   40.4537    6.8606 N.am    1  UNL1       -0.2660
     23 H           7.7284   39.8573    7.5549 H       1  UNL1        0.1566
     24 O           3.2499   42.9935   10.1885 O.3     1  UNL1       -0.4346
     25 O           3.8944   40.8136   10.0639 O.3     1  UNL1       -0.4346
     26 C           6.3832   42.1344    7.6234 C.ar    1  UNL1        0.0569
     27 C           5.7220   41.1569    8.3978 C.ar    1  UNL1        0.0447
     28 C           4.6814   41.5746    9.2230 C.ar    1  UNL1        0.1766
     29 C           4.2974   42.8737    9.2971 C.ar    1  UNL1        0.1764
     30 C           2.9568   41.6884   10.7072 C.3     1  UNL1        0.4294
     31 C           4.9189   43.8720    8.5532 C.ar    1  UNL1        0.0403
     32 C           5.9751   43.4883    7.7074 C.ar    1  UNL1        0.0078
@<TRIPOS>BOND
     1    21    22   am
     2    21    26    1
     3     2     3   ar
     4     6     5    1
     5     6     7    1
     6     7     8    1
     7     8    11    1
     8    12    11    1
     9    12    13    1
    10    13    14    1
    11    14    18    1
    12    16    17   ar
    13     9    11    1
    14     9    10    1
    15    10     6    1
    16    27    28   ar
    17    28    25    1
    18    29    24    1
    19    29    31   ar
    20    30    24    1
    21    30    25    1
    22    32    26   ar
    23    22     1    1
    24     5     4   ar
    25     5     1   ar
    26    18    15   ar
    27    18    19   ar
    28    21    20    2
    29     1     2   ar
    30     3     4   ar
    31    15    16   ar
    32    17    19   ar
    33    26    27   ar
    34    28    29   ar
    35    31    32   ar
    36    22    23    1
@<TRIPOS>MOLECULE
MolPort-005-052-165 12597774 CSSS00159765715 MCULE-6149057518 PubChem-25386761 ZINC000012597774
 32 36 0 0 0
SMALL
GASTEIGER

@<TRIPOS>ATOM
      1 C          10.3030   40.3444   10.2973 C.ar    1  UNL1        0.1328
      2 C          10.2997   41.1203   11.4413 C.ar    1  UNL1        0.0565
      3 C           9.3622   42.1073   11.1575 C.ar    1  UNL1        0.1230
      4 N           8.8550   41.9124    9.9219 N.ar    1  UNL1       -0.1666
      5 N           9.4281   40.8376    9.4104 N.ar    1  UNL1       -0.2394
      6 C           9.1730   40.3084    8.0730 C.3     1  UNL1        0.1093
      7 C          10.3018   39.3687    7.6268 C.3     1  UNL1        0.0418
      8 C          11.5402   40.1025    7.0788 C.3     1  UNL1        0.0741
      9 C          10.0921   41.7549    6.1804 C.3     1  UNL1        0.0741
     10 C           8.8893   41.4389    7.0712 C.3     1  UNL1        0.0418
     11 N          11.3293   41.5446    6.9217 N.3     1  UNL1       -0.2725
     12 C          12.4111   42.0513    6.0931 C.3     1  UNL1        0.0742
     13 C          13.7151   42.0723    6.8795 C.3     1  UNL1        0.0437
     14 C          14.5396   43.3153    6.5638 C.3     1  UNL1        0.1289
     15 C          16.2815   42.2831    8.0203 C.ar    1  UNL1        0.0967
     16 C          17.5346   42.6470    8.4795 C.ar    1  UNL1        0.0427
     17 C          17.7578   43.9102    7.9511 C.ar    1  UNL1        0.1217
     18 N          15.8104   43.2953    7.2737 N.ar    1  UNL1       -0.2494
     19 N          16.6911   44.2754    7.2167 N.ar    1  UNL1       -0.1677
     20 O          13.2021   40.1515   10.4552 O.2     1  UNL1       -0.2698
     21 C          12.5388   39.1258   10.1408 C.2     1  UNL1        0.2506
     22 N          11.1085   39.1836   10.0543 N.am    1  UNL1       -0.2660
     23 H          10.6391   38.3544    9.8067 H       1  UNL1        0.1566
     24 O          15.3717   34.4234    8.9801 O.3     1  UNL1       -0.4346
     25 O          16.3373   36.3995    8.3923 O.3     1  UNL1       -0.4346
     26 C          13.2374   37.8593    9.8603 C.ar    1  UNL1        0.0569
     27 C          14.5003   37.8685    9.2299 C.ar    1  UNL1        0.0447
     28 C          15.1163   36.6435    8.9883 C.ar    1  UNL1        0.1766
     29 C          14.5407   35.4660    9.3385 C.ar    1  UNL1        0.1764
     30 C          16.5428   34.9799    8.3660 C.3     1  UNL1        0.4294
     31 C          13.2979   35.4069    9.9617 C.ar    1  UNL1        0.0403
     32 C          12.6445   36.6248   10.2223 C.ar    1  UNL1        0.0078
@<TRIPOS>BOND
     1    21    22   am
     2    21    26    1
     3     2     3   ar
     4     6     5    1
     5     6     7    1
     6     7     8    1
     7     8    11    1
     8    12    11    1
     9    12    13    1
    10    13    14    1
    11    14    18    1
    12    16    17   ar
    13     9    11    1
    14     9    10    1
    15    10     6    1
    16    27    28   ar
    17    28    25    1
    18    29    24    1
    19    29    31   ar
    20    30    24    1
    21    30    25    1
    22    32    26   ar
    23    22     1    1
    24     5     4   ar
    25     5     1   ar
    26    18    15   ar
    27    18    19   ar
    28    21    20    2
    29     1     2   ar
    30     3     4   ar
    31    15    16   ar
    32    17    19   ar
    33    26    27   ar
    34    28    29   ar
    35    31    32   ar
    36    22    23    1
@<TRIPOS>MOLECULE
MolPort-005-052-165 12597774 CSSS00159765715 MCULE-6149057518 PubChem-25386761 ZINC000012597774
 32 36 0 0 0
SMALL
GASTEIGER

@<TRIPOS>ATOM
      1 C           9.8323   41.5061    6.6906 C.ar    1  UNL1        0.1328
      2 C           9.3507   40.5800    5.7843 C.ar    1  UNL1        0.0565
      3 C           8.1312   40.1981    6.3324 C.ar    1  UNL1        0.1230
      4 N           7.9220   40.8645    7.4875 N.ar    1  UNL1       -0.1666
      5 N           8.9569   41.6593    7.6933 N.ar    1  UNL1       -0.2394
      6 C           9.1283   42.5275    8.8554 C.3     1  UNL1        0.1093
      7 C          10.5973   42.9398    9.0244 C.3     1  UNL1        0.0418
      8 C          11.4655   41.8732    9.7180 C.3     1  UNL1        0.0741
      9 C           9.5829   41.2814   11.0371 C.3     1  UNL1        0.0741
     10 C           8.5240   41.8938   10.1184 C.3     1  UNL1        0.0418
     11 N          10.6835   40.7500   10.2430 N.3     1  UNL1       -0.2725
     12 C          11.5447   40.0121   11.1525 C.3     1  UNL1        0.0742
     13 C          12.9916   40.0772   10.6818 C.3     1  UNL1        0.0437
     14 C          13.8480   39.0101   11.3543 C.3     1  UNL1        0.1289
     15 C          16.2881   38.5855   11.6488 C.ar    1  UNL1        0.0967
     16 C          17.4504   39.0004   11.0239 C.ar    1  UNL1        0.0427
     17 C          17.0313   39.8668   10.0247 C.ar    1  UNL1        0.1217
     18 N          15.2573   39.1943   11.0397 N.ar    1  UNL1       -0.2494
     19 N          15.6893   39.9600   10.0566 N.ar    1  UNL1       -0.1677
     20 O          12.5101   40.3740    6.8115 O.2     1  UNL1       -0.2698
     21 C          12.3808   41.6212    6.6743 C.2     1  UNL1        0.2506
     22 N          11.0765   42.2138    6.6098 N.am    1  UNL1       -0.2660
     23 H          11.0316   43.1912    6.5005 H       1  UNL1        0.1566
     24 O          17.0406   44.7403    6.4689 O.3     1  UNL1       -0.4346
     25 O          17.0420   42.9471    7.8716 O.3     1  UNL1       -0.4346
     26 C          13.5774   42.4757    6.5796 C.ar    1  UNL1        0.0569
     27 C          14.7211   42.1857    7.3545 C.ar    1  UNL1        0.0447
     28 C          15.8241   43.0256    7.2266 C.ar    1  UNL1        0.1766
     29 C          15.8231   44.0942    6.3907 C.ar    1  UNL1        0.1764
     30 C          17.8582   44.0342    7.4129 C.3     1  UNL1        0.4294
     31 C          14.7198   44.4194    5.6075 C.ar    1  UNL1        0.0403
     32 C          13.5859   43.5936    5.7097 C.ar    1  UNL1        0.0078
@<TRIPOS>BOND
     1    21    22   am
     2    21    26    1
     3     2     3   ar
     4     6     5    1
     5     6     7    1
     6     7     8    1
     7     8    11    1
     8    12    11    1
     9    12    13    1
    10    13    14    1
    11    14    18    1
    12    16    17   ar
    13     9    11    1
    14     9    10    1
    15    10     6    1
    16    27    28   ar
    17    28    25    1
    18    29    24    1
    19    29    31   ar
    20    30    24    1
    21    30    25    1
    22    32    26   ar
    23    22     1    1
    24     5     4   ar
    25     5     1   ar
    26    18    15   ar
    27    18    19   ar
    28    21    20    2
    29     1     2   ar
    30     3     4   ar
    31    15    16   ar
    32    17    19   ar
    33    26    27   ar
    34    28    29   ar
    35    31    32   ar
    36    22    23    1
@<TRIPOS>MOLECULE
MolPort-005-052-165 12597774 CSSS00159765715 MCULE-6149057518 PubChem-25386761 ZINC000012597774
 32 36 0 0 0
SMALL
GASTEIGER

@<TRIPOS>ATOM
      1 C           9.4212   41.6908    7.2789 C.ar    1  UNL1        0.1328
      2 C           8.5131   42.6194    7.7520 C.ar    1  UNL1        0.0565
      3 C           7.3002   41.9418    7.6927 C.ar    1  UNL1        0.1230
      4 N           7.4974   40.6955    7.2131 N.ar    1  UNL1       -0.1666
      5 N           8.7878   40.5512    6.9700 N.ar    1  UNL1       -0.2394
      6 C           9.4059   39.3515    6.4112 C.3     1  UNL1        0.1093
      7 C           9.1365   38.1278    7.2981 C.3     1  UNL1        0.0418
      8 C          10.0773   38.0226    8.5132 C.3     1  UNL1        0.0741
      9 C          11.8076   38.9537    7.1813 C.3     1  UNL1        0.0741
     10 C          10.8982   39.5771    6.1208 C.3     1  UNL1        0.0418
     11 N          11.1609   39.0094    8.4865 N.3     1  UNL1       -0.2725
     12 C          12.1494   38.5918    9.4673 C.3     1  UNL1        0.0742
     13 C          12.1511   37.0751    9.6046 C.3     1  UNL1        0.0437
     14 C          12.8549   36.6291   10.8814 C.3     1  UNL1        0.1289
     15 C          14.4095   38.3234   11.8476 C.ar    1  UNL1        0.0967
     16 C          15.7536   38.6247   11.7193 C.ar    1  UNL1        0.0427
     17 C          16.2400   37.7103   10.7962 C.ar    1  UNL1        0.1217
     18 N          14.1422   37.2925   11.0292 N.ar    1  UNL1       -0.2494
     19 N          15.2351   36.9088   10.3983 N.ar    1  UNL1       -0.1677
     20 O          11.3434   42.3828    9.3509 O.2     1  UNL1       -0.2698
     21 C          11.7524   42.2225    8.1685 C.2     1  UNL1        0.2506
     22 N          10.8337   41.8800    7.1220 N.am    1  UNL1       -0.2660
     23 H          11.2050   41.7648    6.2176 H       1  UNL1        0.1566
     24 O          17.1476   43.0293    6.8550 O.3     1  UNL1       -0.4346
     25 O          15.6187   44.4213    5.9025 O.3     1  UNL1       -0.4346
     26 C          13.1835   42.3881    7.8597 C.ar    1  UNL1        0.0569
     27 C          13.6072   43.4050    6.9772 C.ar    1  UNL1        0.0447
     28 C          14.9709   43.5172    6.7201 C.ar    1  UNL1        0.1766
     29 C          15.8819   42.6875    7.2877 C.ar    1  UNL1        0.1764
     30 C          17.0250   44.1432    5.9593 C.3     1  UNL1        0.4294
     31 C          15.5120   41.6712    8.1634 C.ar    1  UNL1        0.0403
     32 C          14.1421   41.5267    8.4475 C.ar    1  UNL1        0.0078
@<TRIPOS>BOND
     1    21    22   am
     2    21    26    1
     3     2     3   ar
     4     6     5    1
     5     6     7    1
     6     7     8    1
     7     8    11    1
     8    12    11    1
     9    12    13    1
    10    13    14    1
    11    14    18    1
    12    16    17   ar
    13     9    11    1
    14     9    10    1
    15    10     6    1
    16    27    28   ar
    17    28    25    1
    18    29    24    1
    19    29    31   ar
    20    30    24    1
    21    30    25    1
    22    32    26   ar
    23    22     1    1
    24     5     4   ar
    25     5     1   ar
    26    18    15   ar
    27    18    19   ar
    28    21    20    2
    29     1     2   ar
    30     3     4   ar
    31    15    16   ar
    32    17    19   ar
    33    26    27   ar
    34    28    29   ar
    35    31    32   ar
    36    22    23    1
@<TRIPOS>MOLECULE
MolPort-005-052-165 12597774 CSSS00159765715 MCULE-6149057518 PubChem-25386761 ZINC000012597774
 32 36 0 0 0
SMALL
GASTEIGER

@<TRIPOS>ATOM
      1 C           9.3665   41.3628    7.1290 C.ar    1  UNL1        0.1328
      2 C           8.3343   42.2744    7.2492 C.ar    1  UNL1        0.0565
      3 C           7.2014   41.5144    6.9799 C.ar    1  UNL1        0.1230
      4 N           7.5593   40.2393    6.7190 N.ar    1  UNL1       -0.1666
      5 N           8.8741   40.1563    6.8171 N.ar    1  UNL1       -0.2394
      6 C           9.6573   38.9469    6.5770 C.3     1  UNL1        0.1093
      7 C           9.3359   37.8656    7.6181 C.3     1  UNL1        0.0418
      8 C          10.0739   38.0540    8.9569 C.3     1  UNL1        0.0741
      9 C          11.9257   38.9172    7.7485 C.3     1  UNL1        0.0741
     10 C          11.1571   39.2659    6.4726 C.3     1  UNL1        0.0418
     11 N          11.0752   39.1237    8.9141 N.3     1  UNL1       -0.2725
     12 C          11.9200   38.9715   10.0874 C.3     1  UNL1        0.0742
     13 C          11.9547   40.2674   10.8866 C.3     1  UNL1        0.0437
     14 C          10.5598   40.6833   11.3401 C.3     1  UNL1        0.1289
     15 C           9.0763   42.6713   11.0786 C.ar    1  UNL1        0.0967
     16 C           9.1749   43.9107   10.4721 C.ar    1  UNL1        0.0427
     17 C          10.4353   43.9275    9.8926 C.ar    1  UNL1        0.1217
     18 N          10.2227   42.0109   10.8470 N.ar    1  UNL1       -0.2494
     19 N          11.0512   42.7576   10.1430 N.ar    1  UNL1       -0.1677
     20 O          11.2023   42.4525    5.1517 O.2     1  UNL1       -0.2698
     21 C          11.6413   42.1659    6.2990 C.2     1  UNL1        0.2506
     22 N          10.7651   41.6281    7.2988 N.am    1  UNL1       -0.2660
     23 H          11.1581   41.4234    8.1780 H       1  UNL1        0.1566
     24 O          17.0662   43.1576    7.3343 O.3     1  UNL1       -0.4346
     25 O          16.0842   44.3508    5.6626 O.3     1  UNL1       -0.4346
     26 C          13.0636   42.3850    6.6148 C.ar    1  UNL1        0.0569
     27 C          13.8164   43.3302    5.8852 C.ar    1  UNL1        0.0447
     28 C          15.1562   43.4974    6.2248 C.ar    1  UNL1        0.1766
     29 C          15.7413   42.7862    7.2210 C.ar    1  UNL1        0.1764
     30 C          17.3308   44.1650    6.3478 C.3     1  UNL1        0.4294
     31 C          15.0400   41.8440    7.9673 C.ar    1  UNL1        0.0403
     32 C          13.6833   41.6472    7.6532 C.ar    1  UNL1        0.0078
@<TRIPOS>BOND
     1    21    22   am
     2    21    26    1
     3     2     3   ar
     4     6     5    1
     5     6     7    1
     6     7     8    1
     7     8    11    1
     8    12    11    1
     9    12    13    1
    10    13    14    1
    11    14    18    1
    12    16    17   ar
    13     9    11    1
    14     9    10    1
    15    10     6    1
    16    27    28   ar
    17    28    25    1
    18    29    24    1
    19    29    31   ar
    20    30    24    1
    21    30    25    1
    22    32    26   ar
    23    22     1    1
    24     5     4   ar
    25     5     1   ar
    26    18    15   ar
    27    18    19   ar
    28    21    20    2
    29     1     2   ar
    30     3     4   ar
    31    15    16   ar
    32    17    19   ar
    33    26    27   ar
    34    28    29   ar
    35    31    32   ar
    36    22    23    1
@<TRIPOS>MOLECULE
MolPort-005-052-165 12597774 CSSS00159765715 MCULE-6149057518 PubChem-25386761 ZINC000012597774
 32 36 0 0 0
SMALL
GASTEIGER

@<TRIPOS>ATOM
      1 C          10.3972   40.7185    5.1342 C.ar    1  UNL1        0.1328
      2 C          10.3130   39.4564    4.5767 C.ar    1  UNL1        0.0565
      3 C           8.9637   39.1420    4.6956 C.ar    1  UNL1        0.1230
      4 N           8.3083   40.1629    5.2876 N.ar    1  UNL1       -0.1666
      5 N           9.1856   41.1164    5.5450 N.ar    1  UNL1       -0.2394
      6 C           8.8787   42.3791    6.2122 C.3     1  UNL1        0.1093
      7 C           9.0603   42.2587    7.7317 C.3     1  UNL1        0.0418
      8 C           7.8622   41.6104    8.4506 C.3     1  UNL1        0.0741
      9 C           6.4265   42.6481    6.8705 C.3     1  UNL1        0.0741
     10 C           7.4928   42.9029    5.8036 C.3     1  UNL1        0.0418
     11 N           6.7097   41.4007    7.5693 N.3     1  UNL1       -0.2725
     12 C           5.5629   41.1203    8.4176 C.3     1  UNL1        0.0742
     13 C           5.9983   40.9917    9.8712 C.3     1  UNL1        0.0437
     14 C           6.8680   42.1676   10.3016 C.3     1  UNL1        0.1289
     15 C           9.1269   42.1046   11.3573 C.ar    1  UNL1        0.0967
     16 C           9.6718   41.5550   12.5040 C.ar    1  UNL1        0.0427
     17 C           8.6193   40.8941   13.1205 C.ar    1  UNL1        0.1217
     18 N           7.8281   41.7645   11.3189 N.ar    1  UNL1       -0.2494
     19 N           7.5081   41.0447   12.3768 N.ar    1  UNL1       -0.1677
     20 O          12.3463   40.6007    7.2916 O.2     1  UNL1       -0.2698
     21 C          12.5218   41.4279    6.3556 C.2     1  UNL1        0.2506
     22 N          11.5823   41.5129    5.2754 N.am    1  UNL1       -0.2660
     23 H          11.7671   42.1741    4.5698 H       1  UNL1        0.1566
     24 O          17.0854   44.6834    6.5988 O.3     1  UNL1       -0.4346
     25 O          16.8906   43.0356    8.1575 O.3     1  UNL1       -0.4346
     26 C          13.6995   42.3130    6.3715 C.ar    1  UNL1        0.0569
     27 C          14.7042   42.1421    7.3482 C.ar    1  UNL1        0.0447
     28 C          15.7955   43.0060    7.3176 C.ar    1  UNL1        0.1766
     29 C          15.9114   43.9880    6.3886 C.ar    1  UNL1        0.1764
     30 C          17.7491   44.1027    7.7304 C.3     1  UNL1        0.4294
     31 C          14.9472   44.1947    5.4068 C.ar    1  UNL1        0.0403
     32 C          13.8294   43.3411    5.4057 C.ar    1  UNL1        0.0078
@<TRIPOS>BOND
     1    21    22   am
     2    21    26    1
     3     2     3   ar
     4     6     5    1
     5     6     7    1
     6     7     8    1
     7     8    11    1
     8    12    11    1
     9    12    13    1
    10    13    14    1
    11    14    18    1
    12    16    17   ar
    13     9    11    1
    14     9    10    1
    15    10     6    1
    16    27    28   ar
    17    28    25    1
    18    29    24    1
    19    29    31   ar
    20    30    24    1
    21    30    25    1
    22    32    26   ar
    23    22     1    1
    24     5     4   ar
    25     5     1   ar
    26    18    15   ar
    27    18    19   ar
    28    21    20    2
    29     1     2   ar
    30     3     4   ar
    31    15    16   ar
    32    17    19   ar
    33    26    27   ar
    34    28    29   ar
    35    31    32   ar
    36    22    23    1
@<TRIPOS>MOLECULE
MolPort-005-052-165 12597774 CSSS00159765715 MCULE-6149057518 PubChem-25386761 ZINC000012597774
 32 36 0 0 0
SMALL
GASTEIGER

@<TRIPOS>ATOM
      1 C           9.4961   41.1449    9.4348 C.ar    1  UNL1        0.1328
      2 C           8.8942   42.0671   10.2704 C.ar    1  UNL1        0.0565
      3 C           7.5864   42.1206    9.8010 C.ar    1  UNL1        0.1230
      4 N           7.4426   41.2790    8.7555 N.ar    1  UNL1       -0.1666
      5 N           8.6051   40.6879    8.5445 N.ar    1  UNL1       -0.2394
      6 C           8.8745   39.7258    7.4790 C.3     1  UNL1        0.1093
      7 C          10.2797   39.1243    7.6209 C.3     1  UNL1        0.0418
      8 C          11.3992   40.0242    7.0645 C.3     1  UNL1        0.0741
      9 C           9.8974   40.7501    5.3757 C.3     1  UNL1        0.0741
     10 C           8.6111   40.3392    6.0947 C.3     1  UNL1        0.0418
     11 N          10.8894   41.1958    6.3462 N.3     1  UNL1       -0.2725
     12 C          11.9985   41.7560    5.5916 C.3     1  UNL1        0.0742
     13 C          12.9594   42.4827    6.5232 C.3     1  UNL1        0.0437
     14 C          13.7037   43.5995    5.8000 C.3     1  UNL1        0.1289
     15 C          15.6523   42.9311    7.2062 C.ar    1  UNL1        0.0967
     16 C          16.9824   43.2997    7.2990 C.ar    1  UNL1        0.0427
     17 C          17.1468   44.2940    6.3457 C.ar    1  UNL1        0.1217
     18 N          15.0849   43.6868    6.2517 N.ar    1  UNL1       -0.2494
     19 N          15.9738   44.5036    5.7206 N.ar    1  UNL1       -0.1677
     20 O          11.1065   40.6365   11.8044 O.2     1  UNL1       -0.2698
     21 C          11.6281   40.4781   10.6669 C.2     1  UNL1        0.2506
     22 N          10.8641   40.7183    9.4774 N.am    1  UNL1       -0.2660
     23 H          11.3184   40.5782    8.6153 H       1  UNL1        0.1566
     24 O          16.9426   38.6917   10.4421 O.3     1  UNL1       -0.4346
     25 O          15.6381   37.8877   12.1258 O.3     1  UNL1       -0.4346
     26 C          13.0317   40.0433   10.5589 C.ar    1  UNL1        0.0569
     27 C          13.5677   39.1322   11.4943 C.ar    1  UNL1        0.0447
     28 C          14.8997   38.7548   11.3458 C.ar    1  UNL1        0.1766
     29 C          15.6769   39.2341   10.3425 C.ar    1  UNL1        0.1764
     30 C          16.9626   37.8169   11.5790 C.3     1  UNL1        0.4294
     31 C          15.1929   40.1335    9.3973 C.ar    1  UNL1        0.0403
     32 C          13.8511   40.5383    9.5147 C.ar    1  UNL1        0.0078
@<TRIPOS>BOND
     1    21    22   am
     2    21    26    1
     3     2     3   ar
     4     6     5    1
     5     6     7    1
     6     7     8    1
     7     8    11    1
     8    12    11    1
     9    12    13    1
    10    13    14    1
    11    14    18    1
    12    16    17   ar
    13     9    11    1
    14     9    10    1
    15    10     6    1
    16    27    28   ar
    17    28    25    1
    18    29    24    1
    19    29    31   ar
    20    30    24    1
    21    30    25    1
    22    32    26   ar
    23    22     1    1
    24     5     4   ar
    25     5     1   ar
    26    18    15   ar
    27    18    19   ar
    28    21    20    2
    29     1     2   ar
    30     3     4   ar
    31    15    16   ar
    32    17    19   ar
    33    26    27   ar
    34    28    29   ar
    35    31    32   ar
    36    22    23    1
