@<TRIPOS>MOLECULE
Molport-053-317-044 PubChem-110111891
 27 30 0 0 0
SMALL
GASTEIGER

@<TRIPOS>ATOM
      1 C          11.3386   41.3089    9.9027 C.ar    1  UNL1       -0.0168
      2 C          11.6838   41.8514    8.6628 C.ar    1  UNL1        0.0302
      3 C          12.8970   41.4986    8.0669 C.ar    1  UNL1        0.1329
      4 C          13.4159   40.0819    9.9061 C.ar    1  UNL1        0.1000
      5 C          12.2136   40.4140   10.5313 C.ar    1  UNL1        0.0165
      6 N          13.7296   40.6251    8.6992 N.ar    1  UNL1       -0.2291
      7 C           7.5991   42.0071   11.6789 C.3     1  UNL1        0.0724
      8 C           8.5567   41.1963   12.5472 C.3     1  UNL1        0.0177
      9 C           9.9862   41.2669   12.0029 C.3     1  UNL1        0.0072
     10 C          10.0367   41.6906   10.5306 C.3     1  UNL1        0.0385
     11 C           8.8506   41.1143    9.7458 C.3     1  UNL1        0.0767
     12 N           7.5346   41.4648   10.3146 N.3     1  UNL1       -0.2682
     13 C           6.9681   42.5049    9.4712 C.3     1  UNL1        0.1069
     14 C           4.9986   44.5489    8.2016 C.3     1  UNL1        0.0524
     15 C           4.5839   43.3093    8.9156 C.ar    1  UNL1        0.0633
     16 C           5.4789   42.4236    9.5004 C.ar    1  UNL1        0.0384
     17 C           3.0990   41.7968    9.7063 C.ar    1  UNL1        0.1338
     18 S           4.5925   41.1643   10.1631 S.2     1  UNL1       -0.0678
     19 N           3.2751   42.9606    9.0373 N.ar    1  UNL1       -0.2409
     20 N          13.2383   42.0641    6.7954 N.pl3   1  UNL1       -0.2821
     21 H          12.7062   41.7711    6.0207 H       1  UNL1        0.1551
     22 C          14.2795   43.0150    6.5437 C.ar    1  UNL1        0.1526
     23 C          16.4428   43.8822    6.9864 C.ar    1  UNL1        0.1210
     24 C          16.2343   44.8865    6.0400 C.ar    1  UNL1        0.1196
     25 C          14.0745   44.0213    5.5969 C.ar    1  UNL1        0.1332
     26 N          15.4624   42.9690    7.2164 N.ar    1  UNL1       -0.2258
     27 N          15.0551   44.9340    5.3656 N.ar    1  UNL1       -0.2378
@<TRIPOS>BOND
     1    14    15    1
     2    15    19   ar
     3    16    18   ar
     4    17    18   ar
     5    13    16    1
     6    13    12    1
     7     7    12    1
     8     7     8    1
     9     8     9    1
    10     9    10    1
    11    10    11    1
    12    10     1    1
    13    11    12    1
    14     2     3   ar
    15     3    20    1
    16     4     6   ar
    17     5     1   ar
    18    23    26   ar
    19    24    27   ar
    20    25    22   ar
    21    20    22    1
    22    15    16   ar
    23    17    19   ar
    24     1     2   ar
    25     3     6   ar
    26     4     5   ar
    27    22    26   ar
    28    23    24   ar
    29    25    27   ar
    30    20    21    1
@<TRIPOS>MOLECULE
Molport-053-317-044 PubChem-110111891
 27 30 0 0 0
SMALL
GASTEIGER

@<TRIPOS>ATOM
      1 C          11.6159   39.5275    8.2149 C.ar    1  UNL1       -0.0168
      2 C          12.3203   40.2888    7.2796 C.ar    1  UNL1        0.0302
      3 C          11.7751   41.4866    6.8110 C.ar    1  UNL1        0.1329
      4 C           9.8584   41.1800    8.1863 C.ar    1  UNL1        0.1000
      5 C          10.3716   39.9777    8.6739 C.ar    1  UNL1        0.0165
      6 N          10.5634   41.9024    7.2746 N.ar    1  UNL1       -0.2291
      7 C          13.2803   36.0917    9.9619 C.3     1  UNL1        0.0724
      8 C          11.8825   36.4314   10.4708 C.3     1  UNL1        0.0177
      9 C          11.2065   37.4689    9.5700 C.3     1  UNL1        0.0072
     10 C          12.2094   38.2486    8.7123 C.3     1  UNL1        0.0385
     11 C          13.5153   38.5021    9.4773 C.3     1  UNL1        0.0767
     12 N          14.1538   37.2732    9.9874 N.3     1  UNL1       -0.2682
     13 C          15.2821   36.9852    9.1168 C.3     1  UNL1        0.1069
     14 C          18.0093   35.4935    9.0377 C.3     1  UNL1        0.0524
     15 C          17.7812   36.7991    9.7171 C.ar    1  UNL1        0.0633
     16 C          16.5481   37.4352    9.7650 C.ar    1  UNL1        0.0384
     17 C          18.3906   38.6360   10.8885 C.ar    1  UNL1        0.1338
     18 S          16.7488   38.8774   10.5959 S.2     1  UNL1       -0.0678
     19 N          18.7898   37.4634   10.3422 N.ar    1  UNL1       -0.2409
     20 N          12.5085   42.2564    5.8506 N.pl3   1  UNL1       -0.2821
     21 H          12.1780   42.2428    4.9233 H       1  UNL1        0.1551
     22 C          13.6765   43.0438    6.1105 C.ar    1  UNL1        0.1526
     23 C          14.9464   45.0251    5.8112 C.ar    1  UNL1        0.1210
     24 C          15.9558   44.5008    6.6198 C.ar    1  UNL1        0.1196
     25 C          14.6886   42.5224    6.9196 C.ar    1  UNL1        0.1332
     26 N          13.8298   44.2864    5.5754 N.ar    1  UNL1       -0.2258
     27 N          15.8048   43.2612    7.1568 N.ar    1  UNL1       -0.2378
@<TRIPOS>BOND
     1    14    15    1
     2    15    19   ar
     3    16    18   ar
     4    17    18   ar
     5    13    16    1
     6    13    12    1
     7     7    12    1
     8     7     8    1
     9     8     9    1
    10     9    10    1
    11    10    11    1
    12    10     1    1
    13    11    12    1
    14     2     3   ar
    15     3    20    1
    16     4     6   ar
    17     5     1   ar
    18    23    26   ar
    19    24    27   ar
    20    25    22   ar
    21    20    22    1
    22    15    16   ar
    23    17    19   ar
    24     1     2   ar
    25     3     6   ar
    26     4     5   ar
    27    22    26   ar
    28    23    24   ar
    29    25    27   ar
    30    20    21    1
@<TRIPOS>MOLECULE
Molport-053-317-044 PubChem-110111891
 27 30 0 0 0
SMALL
GASTEIGER

@<TRIPOS>ATOM
      1 C          14.6352   39.9039    9.5057 C.ar    1  UNL1       -0.0168
      2 C          15.1332   40.9923    8.7860 C.ar    1  UNL1        0.0302
      3 C          16.4918   41.3082    8.8612 C.ar    1  UNL1        0.1329
      4 C          16.8587   39.4828   10.3419 C.ar    1  UNL1        0.1000
      5 C          15.5071   39.1402   10.2920 C.ar    1  UNL1        0.0165
      6 N          17.3186   40.5484    9.6327 N.ar    1  UNL1       -0.2291
      7 C          10.6464   38.6887    9.0160 C.3     1  UNL1        0.0724
      8 C          11.5420   37.6335    9.6583 C.3     1  UNL1        0.0177
      9 C          12.8705   38.2434   10.1144 C.3     1  UNL1        0.0072
     10 C          13.1801   39.5724    9.4160 C.3     1  UNL1        0.0385
     11 C          12.7018   39.5582    7.9580 C.3     1  UNL1        0.0767
     12 N          11.2679   39.2438    7.8056 N.3     1  UNL1       -0.2682
     13 C          10.5853   40.4940    7.5137 C.3     1  UNL1        0.1069
     14 C          10.0918   39.1158    4.7704 C.3     1  UNL1        0.0524
     15 C           9.0139   39.5726    5.6911 C.ar    1  UNL1        0.0633
     16 C           9.2555   40.2120    6.8995 C.ar    1  UNL1        0.0384
     17 C           6.8717   39.8544    6.3616 C.ar    1  UNL1        0.1338
     18 S           7.7732   40.5213    7.6193 S.2     1  UNL1       -0.0678
     19 N           7.6992   39.3838    5.3990 N.ar    1  UNL1       -0.2409
     20 N          16.9881   42.4284    8.1184 N.pl3   1  UNL1       -0.2821
     21 H          17.9460   42.6353    8.2119 H       1  UNL1        0.1551
     22 C          16.2239   43.2760    7.2529 C.ar    1  UNL1        0.1526
     23 C          14.2241   43.7702    6.0762 C.ar    1  UNL1        0.1210
     24 C          14.8122   44.9265    5.5616 C.ar    1  UNL1        0.1196
     25 C          16.8091   44.4343    6.7362 C.ar    1  UNL1        0.1332
     26 N          14.9417   42.9718    6.9103 N.ar    1  UNL1       -0.2258
     27 N          16.0915   45.2337    5.9031 N.ar    1  UNL1       -0.2378
@<TRIPOS>BOND
     1    14    15    1
     2    15    19   ar
     3    16    18   ar
     4    17    18   ar
     5    13    16    1
     6    13    12    1
     7     7    12    1
     8     7     8    1
     9     8     9    1
    10     9    10    1
    11    10    11    1
    12    10     1    1
    13    11    12    1
    14     2     3   ar
    15     3    20    1
    16     4     6   ar
    17     5     1   ar
    18    23    26   ar
    19    24    27   ar
    20    25    22   ar
    21    20    22    1
    22    15    16   ar
    23    17    19   ar
    24     1     2   ar
    25     3     6   ar
    26     4     5   ar
    27    22    26   ar
    28    23    24   ar
    29    25    27   ar
    30    20    21    1
@<TRIPOS>MOLECULE
Molport-053-317-044 PubChem-110111891
 27 30 0 0 0
SMALL
GASTEIGER

@<TRIPOS>ATOM
      1 C          14.9004   40.0295    9.8915 C.ar    1  UNL1       -0.0168
      2 C          15.3378   41.0717    9.0710 C.ar    1  UNL1        0.0302
      3 C          16.7068   41.2756    8.8820 C.ar    1  UNL1        0.1329
      4 C          17.2014   39.4301   10.2993 C.ar    1  UNL1        0.1000
      5 C          15.8420   39.1991   10.5122 C.ar    1  UNL1        0.0165
      6 N          17.6018   40.4526    9.4967 N.ar    1  UNL1       -0.2291
      7 C          10.7431   39.4665   10.0541 C.3     1  UNL1        0.0724
      8 C          11.4859   38.3834    9.2774 C.3     1  UNL1        0.0177
      9 C          12.9930   38.4550    9.5387 C.3     1  UNL1        0.0072
     10 C          13.4331   39.8180   10.0847 C.3     1  UNL1        0.0385
     11 C          12.6195   40.9571    9.4561 C.3     1  UNL1        0.0767
     12 N          11.1605   40.8076    9.6218 N.3     1  UNL1       -0.2682
     13 C          10.7518   41.7354   10.6640 C.3     1  UNL1        0.1069
     14 C           8.7908   42.4563    8.3610 C.3     1  UNL1        0.0524
     15 C           8.3706   42.0583    9.7333 C.ar    1  UNL1        0.0633
     16 C           9.2632   41.7676   10.7562 C.ar    1  UNL1        0.0384
     17 C           6.8769   41.5649   11.3591 C.ar    1  UNL1        0.1338
     18 S           8.3692   41.3429   12.1094 S.2     1  UNL1       -0.0678
     19 N           7.0585   41.9497   10.0739 N.ar    1  UNL1       -0.2409
     20 N          17.1407   42.3494    8.0386 N.pl3   1  UNL1       -0.2821
     21 H          18.1061   42.5416    8.0239 H       1  UNL1        0.1551
     22 C          16.3043   43.1701    7.2149 C.ar    1  UNL1        0.1526
     23 C          14.2749   43.5392    6.0430 C.ar    1  UNL1        0.1210
     24 C          14.7517   44.7759    5.6061 C.ar    1  UNL1        0.1196
     25 C          16.7780   44.4087    6.7761 C.ar    1  UNL1        0.1332
     26 N          15.0604   42.7648    6.8376 N.ar    1  UNL1       -0.2258
     27 N          15.9924   45.1840    5.9824 N.ar    1  UNL1       -0.2378
@<TRIPOS>BOND
     1    14    15    1
     2    15    19   ar
     3    16    18   ar
     4    17    18   ar
     5    13    16    1
     6    13    12    1
     7     7    12    1
     8     7     8    1
     9     8     9    1
    10     9    10    1
    11    10    11    1
    12    10     1    1
    13    11    12    1
    14     2     3   ar
    15     3    20    1
    16     4     6   ar
    17     5     1   ar
    18    23    26   ar
    19    24    27   ar
    20    25    22   ar
    21    20    22    1
    22    15    16   ar
    23    17    19   ar
    24     1     2   ar
    25     3     6   ar
    26     4     5   ar
    27    22    26   ar
    28    23    24   ar
    29    25    27   ar
    30    20    21    1
@<TRIPOS>MOLECULE
Molport-053-317-044 PubChem-110111891
 27 30 0 0 0
SMALL
GASTEIGER

@<TRIPOS>ATOM
      1 C          10.4376   40.7116    7.7473 C.ar    1  UNL1       -0.0168
      2 C          11.0717   41.6145    6.8909 C.ar    1  UNL1        0.0302
      3 C          12.4632   41.5917    6.7690 C.ar    1  UNL1        0.1329
      4 C          12.5939   39.7954    8.3232 C.ar    1  UNL1        0.1000
      5 C          11.2065   39.7916    8.4712 C.ar    1  UNL1        0.0165
      6 N          13.1875   40.6859    7.4837 N.ar    1  UNL1       -0.2291
      7 C           6.2473   40.9725    7.7465 C.3     1  UNL1        0.0724
      8 C           6.8164   40.1251    6.6123 C.3     1  UNL1        0.0177
      9 C           8.2903   39.7926    6.8605 C.3     1  UNL1        0.0072
     10 C           8.9478   40.7421    7.8684 C.3     1  UNL1        0.0385
     11 C           8.4069   42.1705    7.7201 C.3     1  UNL1        0.0767
     12 N           6.9389   42.2658    7.8384 N.3     1  UNL1       -0.2682
     13 C           6.6510   42.8078    9.1566 C.3     1  UNL1        0.1069
     14 C           4.2984   44.5013    8.0313 C.3     1  UNL1        0.0524
     15 C           4.1391   43.3483    8.9606 C.ar    1  UNL1        0.0633
     16 C           5.2054   42.6225    9.4742 C.ar    1  UNL1        0.0384
     17 C           2.9717   41.8583   10.1994 C.ar    1  UNL1        0.1338
     18 S           4.5768   41.4081   10.4443 S.2     1  UNL1       -0.0678
     19 N           2.9126   42.9253    9.3682 N.ar    1  UNL1       -0.2409
     20 N          13.0999   42.5247    5.8877 N.pl3   1  UNL1       -0.2821
     21 H          12.6558   42.6975    5.0262 H       1  UNL1        0.1551
     22 C          14.3208   43.2301    6.1399 C.ar    1  UNL1        0.1526
     23 C          16.4302   43.4000    7.2119 C.ar    1  UNL1        0.1210
     24 C          16.6354   44.6433    6.6120 C.ar    1  UNL1        0.1196
     25 C          14.5297   44.4745    5.5409 C.ar    1  UNL1        0.1332
     26 N          15.2792   42.7211    6.9622 N.ar    1  UNL1       -0.2258
     27 N          15.6811   45.1533    5.7892 N.ar    1  UNL1       -0.2378
@<TRIPOS>BOND
     1    14    15    1
     2    15    19   ar
     3    16    18   ar
     4    17    18   ar
     5    13    16    1
     6    13    12    1
     7     7    12    1
     8     7     8    1
     9     8     9    1
    10     9    10    1
    11    10    11    1
    12    10     1    1
    13    11    12    1
    14     2     3   ar
    15     3    20    1
    16     4     6   ar
    17     5     1   ar
    18    23    26   ar
    19    24    27   ar
    20    25    22   ar
    21    20    22    1
    22    15    16   ar
    23    17    19   ar
    24     1     2   ar
    25     3     6   ar
    26     4     5   ar
    27    22    26   ar
    28    23    24   ar
    29    25    27   ar
    30    20    21    1
@<TRIPOS>MOLECULE
Molport-053-317-044 PubChem-110111891
 27 30 0 0 0
SMALL
GASTEIGER

@<TRIPOS>ATOM
      1 C          15.0191   41.7521    8.0133 C.ar    1  UNL1       -0.0168
      2 C          13.8110   41.3702    7.4256 C.ar    1  UNL1        0.0302
      3 C          13.3133   42.0900    6.3367 C.ar    1  UNL1        0.1329
      4 C          15.1930   43.5463    6.4098 C.ar    1  UNL1        0.1000
      5 C          15.7183   42.8517    7.4999 C.ar    1  UNL1        0.0165
      6 N          14.0138   43.1551    5.8561 N.ar    1  UNL1       -0.2291
      7 C          16.6020   39.2960   11.0280 C.3     1  UNL1        0.0724
      8 C          17.6362   39.7815   10.0166 C.3     1  UNL1        0.0177
      9 C          17.0765   40.9226    9.1626 C.3     1  UNL1        0.0072
     10 C          15.5445   40.9732    9.1762 C.3     1  UNL1        0.0385
     11 C          14.9426   39.5623    9.2181 C.3     1  UNL1        0.0767
     12 N          15.4189   38.7461   10.3518 N.3     1  UNL1       -0.2682
     13 C          14.3470   38.7120   11.3336 C.3     1  UNL1        0.1069
     14 C          11.9201   40.5844   10.8108 C.3     1  UNL1        0.0524
     15 C          11.9850   39.1535   10.4028 C.ar    1  UNL1        0.0633
     16 C          13.0673   38.3264   10.6710 C.ar    1  UNL1        0.0384
     17 C          11.2160   37.2604    9.4318 C.ar    1  UNL1        0.1338
     18 S          12.7343   36.8200   10.0148 S.2     1  UNL1       -0.0678
     19 N          10.9672   38.5585    9.7249 N.ar    1  UNL1       -0.2409
     20 N          12.0722   41.6874    5.7449 N.pl3   1  UNL1       -0.2821
     21 H          12.1129   41.3183    4.8331 H       1  UNL1        0.1551
     22 C          10.7779   41.7704    6.3528 C.ar    1  UNL1        0.1526
     23 C           9.4030   42.0631    8.2638 C.ar    1  UNL1        0.1210
     24 C           8.2662   41.8906    7.4728 C.ar    1  UNL1        0.1196
     25 C           9.6379   41.5987    5.5642 C.ar    1  UNL1        0.1332
     26 N          10.6323   42.0003    7.6870 N.ar    1  UNL1       -0.2258
     27 N           8.4083   41.6627    6.1403 N.ar    1  UNL1       -0.2378
@<TRIPOS>BOND
     1    14    15    1
     2    15    19   ar
     3    16    18   ar
     4    17    18   ar
     5    13    16    1
     6    13    12    1
     7     7    12    1
     8     7     8    1
     9     8     9    1
    10     9    10    1
    11    10    11    1
    12    10     1    1
    13    11    12    1
    14     2     3   ar
    15     3    20    1
    16     4     6   ar
    17     5     1   ar
    18    23    26   ar
    19    24    27   ar
    20    25    22   ar
    21    20    22    1
    22    15    16   ar
    23    17    19   ar
    24     1     2   ar
    25     3     6   ar
    26     4     5   ar
    27    22    26   ar
    28    23    24   ar
    29    25    27   ar
    30    20    21    1
@<TRIPOS>MOLECULE
Molport-053-317-044 PubChem-110111891
 27 30 0 0 0
SMALL
GASTEIGER

@<TRIPOS>ATOM
      1 C          10.8317   40.0847    6.3263 C.ar    1  UNL1       -0.0168
      2 C           9.5243   40.3625    6.7316 C.ar    1  UNL1        0.0302
      3 C           8.4760   40.2423    5.8161 C.ar    1  UNL1        0.1329
      4 C          10.0029   39.5733    4.1190 C.ar    1  UNL1        0.1000
      5 C          11.0742   39.6853    5.0060 C.ar    1  UNL1        0.0165
      6 N           8.7390   39.8509    4.5380 N.ar    1  UNL1       -0.2291
      7 C          13.7741   40.7472    9.2470 C.3     1  UNL1        0.0724
      8 C          12.4025   40.3967    9.8164 C.3     1  UNL1        0.0177
      9 C          11.4800   39.8428    8.7270 C.3     1  UNL1        0.0072
     10 C          11.9462   40.2135    7.3145 C.3     1  UNL1        0.0385
     11 C          12.5577   41.6205    7.2828 C.3     1  UNL1        0.0767
     12 N          13.6709   41.8066    8.2339 N.3     1  UNL1       -0.2682
     13 C          14.9023   41.7760    7.4613 C.3     1  UNL1        0.1069
     14 C          17.4603   43.4803    7.9314 C.3     1  UNL1        0.0524
     15 C          16.3205   43.8905    7.0648 C.ar    1  UNL1        0.0633
     16 C          15.1742   43.1271    6.8905 C.ar    1  UNL1        0.0384
     17 C          15.2185   45.2525    5.6335 C.ar    1  UNL1        0.1338
     18 S          14.1735   43.9441    5.8219 S.2     1  UNL1       -0.0678
     19 N          16.3358   45.0618    6.3739 N.ar    1  UNL1       -0.2409
     20 N           7.1402   40.5318    6.2458 N.pl3   1  UNL1       -0.2821
     21 H           6.4555   39.8489    6.0613 H       1  UNL1        0.1551
     22 C           6.7057   41.7196    6.9180 C.ar    1  UNL1        0.1526
     23 C           5.7221   42.7981    8.7882 C.ar    1  UNL1        0.1210
     24 C           5.8612   44.0317    8.1505 C.ar    1  UNL1        0.1196
     25 C           6.8437   42.9561    6.2830 C.ar    1  UNL1        0.1332
     26 N           6.1478   41.6707    8.1591 N.ar    1  UNL1       -0.2258
     27 N           6.4193   44.0840    6.9122 N.ar    1  UNL1       -0.2378
@<TRIPOS>BOND
     1    14    15    1
     2    15    19   ar
     3    16    18   ar
     4    17    18   ar
     5    13    16    1
     6    13    12    1
     7     7    12    1
     8     7     8    1
     9     8     9    1
    10     9    10    1
    11    10    11    1
    12    10     1    1
    13    11    12    1
    14     2     3   ar
    15     3    20    1
    16     4     6   ar
    17     5     1   ar
    18    23    26   ar
    19    24    27   ar
    20    25    22   ar
    21    20    22    1
    22    15    16   ar
    23    17    19   ar
    24     1     2   ar
    25     3     6   ar
    26     4     5   ar
    27    22    26   ar
    28    23    24   ar
    29    25    27   ar
    30    20    21    1
@<TRIPOS>MOLECULE
Molport-053-317-044 PubChem-110111891
 27 30 0 0 0
SMALL
GASTEIGER

@<TRIPOS>ATOM
      1 C          13.2267   39.7879   10.2728 C.ar    1  UNL1       -0.0168
      2 C          14.2559   40.3897    9.5454 C.ar    1  UNL1        0.0302
      3 C          15.5859   40.1364    9.8894 C.ar    1  UNL1        0.1329
      4 C          14.8820   38.7019   11.6517 C.ar    1  UNL1        0.1000
      5 C          13.5426   38.9343   11.3373 C.ar    1  UNL1        0.0165
      6 N          15.8659   39.3012   10.9286 N.ar    1  UNL1       -0.2291
      7 C           9.3664   40.6386    8.8582 C.3     1  UNL1        0.0724
      8 C          10.0307   39.4491    8.1712 C.3     1  UNL1        0.0177
      9 C          11.2666   38.9857    8.9475 C.3     1  UNL1        0.0072
     10 C          11.8067   40.0631    9.8947 C.3     1  UNL1        0.0385
     11 C          11.6545   41.4639    9.2870 C.3     1  UNL1        0.0767
     12 N          10.2697   41.7970    8.9001 N.3     1  UNL1       -0.2682
     13 C           9.7501   42.7035    9.9112 C.3     1  UNL1        0.1069
     14 C           9.2969   41.2119   12.6017 C.3     1  UNL1        0.0524
     15 C           8.2176   41.5524   11.6335 C.ar    1  UNL1        0.0633
     16 C           8.4451   42.1941   10.4236 C.ar    1  UNL1        0.0384
     17 C           6.0821   41.6511   10.8934 C.ar    1  UNL1        0.1338
     18 S           6.9624   42.4035    9.6695 S.2     1  UNL1       -0.0678
     19 N           6.9150   41.2518   11.8832 N.ar    1  UNL1       -0.2409
     20 N          16.6311   40.7618    9.1349 N.pl3   1  UNL1       -0.2821
     21 H          17.5041   40.3070    9.1220 H       1  UNL1        0.1551
     22 C          16.5275   41.9855    8.3976 C.ar    1  UNL1        0.1526
     23 C          15.3979   43.3768    6.8431 C.ar    1  UNL1        0.1210
     24 C          16.3948   44.3434    6.9833 C.ar    1  UNL1        0.1196
     25 C          17.5231   42.9554    8.5357 C.ar    1  UNL1        0.1332
     26 N          15.4855   42.2209    7.5533 N.ar    1  UNL1       -0.2258
     27 N          17.4354   44.1120    7.8267 N.ar    1  UNL1       -0.2378
@<TRIPOS>BOND
     1    14    15    1
     2    15    19   ar
     3    16    18   ar
     4    17    18   ar
     5    13    16    1
     6    13    12    1
     7     7    12    1
     8     7     8    1
     9     8     9    1
    10     9    10    1
    11    10    11    1
    12    10     1    1
    13    11    12    1
    14     2     3   ar
    15     3    20    1
    16     4     6   ar
    17     5     1   ar
    18    23    26   ar
    19    24    27   ar
    20    25    22   ar
    21    20    22    1
    22    15    16   ar
    23    17    19   ar
    24     1     2   ar
    25     3     6   ar
    26     4     5   ar
    27    22    26   ar
    28    23    24   ar
    29    25    27   ar
    30    20    21    1
@<TRIPOS>MOLECULE
Molport-053-317-044 PubChem-110111891
 27 30 0 0 0
SMALL
GASTEIGER

@<TRIPOS>ATOM
      1 C          14.5167   39.4623   10.4466 C.ar    1  UNL1       -0.0168
      2 C          15.3482   40.2597    9.6570 C.ar    1  UNL1        0.0302
      3 C          16.7276   40.2514    9.8775 C.ar    1  UNL1        0.1329
      4 C          16.4605   38.6755   11.6394 C.ar    1  UNL1        0.1000
      5 C          15.0785   38.6609   11.4485 C.ar    1  UNL1        0.0165
      6 N          17.2486   39.4619   10.8580 N.ar    1  UNL1       -0.2291
      7 C          10.4502   39.3594    9.4075 C.3     1  UNL1        0.0724
      8 C          11.1183   37.9879    9.4351 C.3     1  UNL1        0.0177
      9 C          12.4774   38.0524   10.1376 C.3     1  UNL1        0.0072
     10 C          13.0421   39.4761   10.2005 C.3     1  UNL1        0.0385
     11 C          12.6974   40.2668    8.9314 C.3     1  UNL1        0.0767
     12 N          11.2517   40.3225    8.6397 N.3     1  UNL1       -0.2682
     13 C          10.7916   41.6503    9.0133 C.3     1  UNL1        0.1069
     14 C           8.5695   43.6603    9.8445 C.3     1  UNL1        0.0524
     15 C           8.6036   42.9293    8.5473 C.ar    1  UNL1        0.0633
     16 C           9.5904   42.0140    8.2069 C.ar    1  UNL1        0.0384
     17 C           7.8599   42.3784    6.4830 C.ar    1  UNL1        0.1338
     18 S           9.2592   41.4567    6.6608 S.2     1  UNL1       -0.0678
     19 N           7.6513   43.1210    7.5956 N.ar    1  UNL1       -0.2409
     20 N          17.5679   41.0755    9.0606 N.pl3   1  UNL1       -0.2821
     21 H          18.5254   40.8479    9.0352 H       1  UNL1        0.1551
     22 C          17.1484   42.1989    8.2772 C.ar    1  UNL1        0.1526
     23 C          15.5082   43.3255    6.9856 C.ar    1  UNL1        0.1210
     24 C          16.4059   44.3689    6.7549 C.ar    1  UNL1        0.1196
     25 C          18.0441   43.2452    8.0446 C.ar    1  UNL1        0.1332
     26 N          15.8983   42.2652    7.7416 N.ar    1  UNL1       -0.2258
     27 N          17.6540   44.3064    7.2897 N.ar    1  UNL1       -0.2378
@<TRIPOS>BOND
     1    14    15    1
     2    15    19   ar
     3    16    18   ar
     4    17    18   ar
     5    13    16    1
     6    13    12    1
     7     7    12    1
     8     7     8    1
     9     8     9    1
    10     9    10    1
    11    10    11    1
    12    10     1    1
    13    11    12    1
    14     2     3   ar
    15     3    20    1
    16     4     6   ar
    17     5     1   ar
    18    23    26   ar
    19    24    27   ar
    20    25    22   ar
    21    20    22    1
    22    15    16   ar
    23    17    19   ar
    24     1     2   ar
    25     3     6   ar
    26     4     5   ar
    27    22    26   ar
    28    23    24   ar
    29    25    27   ar
    30    20    21    1
@<TRIPOS>MOLECULE
Molport-053-317-044 PubChem-110111891
 27 30 0 0 0
SMALL
GASTEIGER

@<TRIPOS>ATOM
      1 C          11.8140   40.4869    9.4638 C.ar    1  UNL1       -0.0168
      2 C          12.7731   40.9602    8.5656 C.ar    1  UNL1        0.0302
      3 C          14.1299   40.8393    8.8750 C.ar    1  UNL1        0.1329
      4 C          13.5901   39.7866   10.9388 C.ar    1  UNL1        0.1000
      5 C          12.2265   39.8931   10.6634 C.ar    1  UNL1        0.0165
      6 N          14.5043   40.2567   10.0482 N.ar    1  UNL1       -0.2291
      7 C           7.8535   40.9418    8.1469 C.3     1  UNL1        0.0724
      8 C           8.6124   39.8145    7.4530 C.3     1  UNL1        0.0177
      9 C           9.9074   39.4825    8.1996 C.3     1  UNL1        0.0072
     10 C          10.3645   40.6183    9.1219 C.3     1  UNL1        0.0385
     11 C          10.0607   41.9905    8.5058 C.3     1  UNL1        0.0767
     12 N           8.6404   42.1829    8.1537 N.3     1  UNL1       -0.2682
     13 C           8.0616   43.0464    9.1702 C.3     1  UNL1        0.1069
     14 C           8.4899   41.6429   11.9117 C.3     1  UNL1        0.0524
     15 C           7.1933   41.6877   11.1802 C.ar    1  UNL1        0.0633
     16 C           7.0298   42.2957    9.9429 C.ar    1  UNL1        0.0384
     17 C           4.9870   41.2809   10.8896 C.ar    1  UNL1        0.1338
     18 S           5.4193   42.1374    9.5044 S.2     1  UNL1       -0.0678
     19 N           6.0657   41.1265   11.6930 N.ar    1  UNL1       -0.2409
     20 N          15.1024   41.3306    7.9445 N.pl3   1  UNL1       -0.2821
     21 H          15.8939   40.7664    7.7884 H       1  UNL1        0.1551
     22 C          15.0332   42.5641    7.2196 C.ar    1  UNL1        0.1526
     23 C          16.0039   44.6137    6.5234 C.ar    1  UNL1        0.1210
     24 C          14.8337   44.9341    5.8338 C.ar    1  UNL1        0.1196
     25 C          13.8637   42.8879    6.5279 C.ar    1  UNL1        0.1332
     26 N          16.0782   43.4367    7.1995 N.ar    1  UNL1       -0.2258
     27 N          13.7893   44.0643    5.8505 N.ar    1  UNL1       -0.2378
@<TRIPOS>BOND
     1    14    15    1
     2    15    19   ar
     3    16    18   ar
     4    17    18   ar
     5    13    16    1
     6    13    12    1
     7     7    12    1
     8     7     8    1
     9     8     9    1
    10     9    10    1
    11    10    11    1
    12    10     1    1
    13    11    12    1
    14     2     3   ar
    15     3    20    1
    16     4     6   ar
    17     5     1   ar
    18    23    26   ar
    19    24    27   ar
    20    25    22   ar
    21    20    22    1
    22    15    16   ar
    23    17    19   ar
    24     1     2   ar
    25     3     6   ar
    26     4     5   ar
    27    22    26   ar
    28    23    24   ar
    29    25    27   ar
    30    20    21    1
