@<TRIPOS>MOLECULE
MolPort-006-609-926 ChemDiv-V020-0066 MCULE-2014378284 PubChem-46070010 ZINC000034735415 ZINC34735415
 35 38 0 0 0
SMALL
GASTEIGER

@<TRIPOS>ATOM
      1 C           7.9255   41.7729   11.3160 C.ar    1  UNL1        0.0516
      2 C           8.9231   41.3818   10.4177 C.ar    1  UNL1        0.0296
      3 C          10.1911   40.9784   10.8691 C.ar    1  UNL1        0.0565
      4 C          10.4370   40.9602   12.2522 C.ar    1  UNL1        0.0150
      5 C           9.4471   41.3482   13.1577 C.ar    1  UNL1        0.0026
      6 C           8.1957   41.7541   12.6911 C.ar    1  UNL1        0.0148
      7 C          11.7420   39.1934   10.0338 C.3     1  UNL1        0.1015
      8 C          11.9408   38.6231    8.6399 C.3     1  UNL1        0.0435
      9 C          12.9717   39.4527    7.8795 C.3     1  UNL1        0.0971
     10 C          11.8053   41.4300    8.9579 C.2     1  UNL1        0.3112
     11 O          11.5336   42.6618    8.9495 O.2     1  UNL1       -0.2520
     12 N          11.2147   40.5538    9.9411 N.am    1  UNL1       -0.2430
     13 N          12.7224   40.8923    7.9849 N.am    1  UNL1       -0.2596
     14 C          13.4303   41.7666    7.0556 C.3     1  UNL1        0.1223
     15 C          14.8242   42.0419    7.5358 C.ar    1  UNL1        0.0074
     16 C          15.6295   43.0413    6.9502 C.ar    1  UNL1        0.0661
     17 C          16.9290   43.2509    7.4241 C.ar    1  UNL1        0.0100
     18 C          17.4318   42.4766    8.4727 C.ar    1  UNL1        0.0007
     19 C          16.6355   41.4884    9.0548 C.ar    1  UNL1       -0.0002
     20 C          15.3368   41.2730    8.5875 C.ar    1  UNL1       -0.0019
     21 C          15.1456   43.8709    5.8767 C.1     1  UNL1        0.1001
     22 N          14.7568   44.5366    5.0137 N.1     1  UNL1       -0.1908
     23 C           5.3897   41.5390   11.0222 C.2     1  UNL1        0.2305
     24 O           5.2991   40.5029   11.7326 O.2     1  UNL1       -0.2744
     25 N           6.6523   42.1796   10.7974 N.am    1  UNL1       -0.2836
     26 H           6.6442   42.9824   10.2276 H       1  UNL1        0.1549
     27 C           4.1658   42.0905   10.3748 C.3     1  UNL1        0.1117
     28 C           6.0497   43.5811    7.4353 C.ar    1  UNL1        0.1384
     29 C           5.7076   42.7533    8.5172 C.ar    1  UNL1        0.0331
     30 C           4.5345   42.9877    9.2426 C.ar    1  UNL1       -0.0101
     31 C           3.6928   44.0456    8.8832 C.ar    1  UNL1       -0.0036
     32 C           4.0290   44.8724    7.8077 C.ar    1  UNL1        0.0028
     33 C           5.2046   44.6405    7.0873 C.ar    1  UNL1        0.0369
     34 C           7.6939   42.0766    6.3627 C.3     1  UNL1        0.2525
     35 O           7.2158   43.3734    6.6935 O.3     1  UNL1       -0.4714
@<TRIPOS>BOND
     1    34    35    1
     2    28    35    1
     3    29    30   ar
     4    27    30    1
     5    27    23    1
     6    23    25   am
     7     2     3   ar
     8     3    12    1
     9     4     5   ar
    10     6     1   ar
    11     7    12    1
    12     7     8    1
    13     8     9    1
    14     9    13    1
    15    14    13    1
    16    14    15    1
    17    16    17   ar
    18    16    21    1
    19    18    19   ar
    20    20    15   ar
    21    10    12   am
    22    31    32   ar
    23    33    28   ar
    24    25     1    1
    25    13    10   am
    26    28    29   ar
    27    30    31   ar
    28    23    24    2
    29     1     2   ar
    30     3     4   ar
    31     5     6   ar
    32    15    16   ar
    33    17    18   ar
    34    19    20   ar
    35    10    11    2
    36    32    33   ar
    37    21    22    3
    38    25    26    1
@<TRIPOS>MOLECULE
MolPort-006-609-926 ChemDiv-V020-0066 MCULE-2014378284 PubChem-46070010 ZINC000034735415 ZINC34735415
 35 38 0 0 0
SMALL
GASTEIGER

@<TRIPOS>ATOM
      1 C          12.0763   41.5709    6.3412 C.ar    1  UNL1        0.0516
      2 C          11.0849   41.5999    7.3267 C.ar    1  UNL1        0.0296
      3 C           9.7731   41.1784    7.0517 C.ar    1  UNL1        0.0565
      4 C           9.4755   40.7085    5.7615 C.ar    1  UNL1        0.0150
      5 C          10.4587   40.6746    4.7704 C.ar    1  UNL1        0.0026
      6 C          11.7547   41.1052    5.0590 C.ar    1  UNL1        0.0148
      7 C           9.1557   41.2450    9.4814 C.3     1  UNL1        0.1015
      8 C           8.2263   42.1729   10.2449 C.3     1  UNL1        0.0435
      9 C           6.8007   41.6291   10.2074 C.3     1  UNL1        0.0971
     10 C           7.3436   41.0745    7.7927 C.2     1  UNL1        0.3112
     11 O           6.9417   40.8328    6.6218 O.2     1  UNL1       -0.2520
     12 N           8.7541   41.1886    8.0768 N.am    1  UNL1       -0.2430
     13 N           6.3881   41.2274    8.8606 N.am    1  UNL1       -0.2596
     14 C           4.9648   40.9985    8.6342 C.3     1  UNL1        0.1223
     15 C           4.1777   41.2401    9.8878 C.ar    1  UNL1        0.0074
     16 C           3.5575   42.4798   10.1500 C.ar    1  UNL1        0.0661
     17 C           2.8458   42.6613   11.3406 C.ar    1  UNL1        0.0100
     18 C           2.7464   41.6223   12.2694 C.ar    1  UNL1        0.0007
     19 C           3.3579   40.3940   12.0107 C.ar    1  UNL1       -0.0002
     20 C           4.0704   40.2047   10.8240 C.ar    1  UNL1       -0.0019
     21 C           3.6235   43.5724    9.2136 C.1     1  UNL1        0.1001
     22 N           3.6768   44.4508    8.4621 N.1     1  UNL1       -0.1908
     23 C          14.0250   43.2341    6.2524 C.2     1  UNL1        0.2305
     24 O          13.4300   44.0494    5.4991 O.2     1  UNL1       -0.2744
     25 N          13.3962   42.0182    6.6782 N.am    1  UNL1       -0.2836
     26 H          13.9257   41.4291    7.2628 H       1  UNL1        0.1549
     27 C          15.4227   43.5223    6.6823 C.3     1  UNL1        0.1117
     28 C          15.4103   40.6020    9.1078 C.ar    1  UNL1        0.1384
     29 C          14.9782   41.5759    8.1927 C.ar    1  UNL1        0.0331
     30 C          15.8837   42.5065    7.6713 C.ar    1  UNL1       -0.0101
     31 C          17.2278   42.4613    8.0557 C.ar    1  UNL1       -0.0036
     32 C          17.6627   41.4944    8.9665 C.ar    1  UNL1        0.0028
     33 C          16.7556   40.5687    9.4909 C.ar    1  UNL1        0.0369
     34 C          14.3718   39.4711   11.0470 C.3     1  UNL1        0.2525
     35 O          14.5291   39.6609    9.6473 O.3     1  UNL1       -0.4714
@<TRIPOS>BOND
     1    34    35    1
     2    28    35    1
     3    29    30   ar
     4    27    30    1
     5    27    23    1
     6    23    25   am
     7     2     3   ar
     8     3    12    1
     9     4     5   ar
    10     6     1   ar
    11     7    12    1
    12     7     8    1
    13     8     9    1
    14     9    13    1
    15    14    13    1
    16    14    15    1
    17    16    17   ar
    18    16    21    1
    19    18    19   ar
    20    20    15   ar
    21    10    12   am
    22    31    32   ar
    23    33    28   ar
    24    25     1    1
    25    13    10   am
    26    28    29   ar
    27    30    31   ar
    28    23    24    2
    29     1     2   ar
    30     3     4   ar
    31     5     6   ar
    32    15    16   ar
    33    17    18   ar
    34    19    20   ar
    35    10    11    2
    36    32    33   ar
    37    21    22    3
    38    25    26    1
@<TRIPOS>MOLECULE
MolPort-006-609-926 ChemDiv-V020-0066 MCULE-2014378284 PubChem-46070010 ZINC000034735415 ZINC34735415
 35 38 0 0 0
SMALL
GASTEIGER

@<TRIPOS>ATOM
      1 C          11.6808   41.1115    5.9868 C.ar    1  UNL1        0.0516
      2 C          11.0084   41.3698    7.1852 C.ar    1  UNL1        0.0296
      3 C           9.8997   40.6011    7.5777 C.ar    1  UNL1        0.0565
      4 C           9.4835   39.5490    6.7450 C.ar    1  UNL1        0.0150
      5 C          10.1487   39.2822    5.5463 C.ar    1  UNL1        0.0026
      6 C          11.2433   40.0615    5.1681 C.ar    1  UNL1        0.0148
      7 C           9.9502   40.6997   10.0831 C.3     1  UNL1        0.1015
      8 C           9.5699   41.8158   11.0410 C.3     1  UNL1        0.0435
      9 C           8.0830   41.7320   11.3748 C.3     1  UNL1        0.0971
     10 C           7.8173   41.1908    8.9111 C.2     1  UNL1        0.3112
     11 O           7.0856   41.1555    7.8843 O.2     1  UNL1       -0.2520
     12 N           9.2185   40.8551    8.8270 N.am    1  UNL1       -0.2430
     13 N           7.2488   41.5586   10.1833 N.am    1  UNL1       -0.2596
     14 C           5.8147   41.7854   10.3284 C.3     1  UNL1        0.1223
     15 C           5.3624   42.9235    9.4627 C.ar    1  UNL1        0.0074
     16 C           4.0045   43.1113    9.1295 C.ar    1  UNL1        0.0661
     17 C           3.6336   44.1802    8.3066 C.ar    1  UNL1        0.0100
     18 C           4.6001   45.0609    7.8143 C.ar    1  UNL1        0.0007
     19 C           5.9443   44.8777    8.1447 C.ar    1  UNL1       -0.0002
     20 C           6.3228   43.8129    8.9659 C.ar    1  UNL1       -0.0019
     21 C           2.9748   42.2352    9.6265 C.1     1  UNL1        0.1001
     22 N           2.1472   41.5321   10.0262 N.1     1  UNL1       -0.1908
     23 C          13.3004   43.0626    6.3629 C.2     1  UNL1        0.2305
     24 O          12.7521   43.4471    7.4297 O.2     1  UNL1       -0.2744
     25 N          12.8027   41.9321    5.6354 N.am    1  UNL1       -0.2836
     26 H          13.2811   41.6945    4.8083 H       1  UNL1        0.1549
     27 C          14.4686   43.8181    5.8282 C.3     1  UNL1        0.1117
     28 C          16.8614   42.1740    8.2743 C.ar    1  UNL1        0.1384
     29 C          15.7113   42.4499    7.5167 C.ar    1  UNL1        0.0331
     30 C          15.6844   43.5454    6.6468 C.ar    1  UNL1       -0.0101
     31 C          16.8114   44.3647    6.5235 C.ar    1  UNL1       -0.0036
     32 C          17.9580   44.0948    7.2755 C.ar    1  UNL1        0.0028
     33 C          17.9815   43.0030    8.1486 C.ar    1  UNL1        0.0369
     34 C          15.7839   40.2862    9.4544 C.3     1  UNL1        0.2525
     35 O          16.9174   41.0887    9.1530 O.3     1  UNL1       -0.4714
@<TRIPOS>BOND
     1    34    35    1
     2    28    35    1
     3    29    30   ar
     4    27    30    1
     5    27    23    1
     6    23    25   am
     7     2     3   ar
     8     3    12    1
     9     4     5   ar
    10     6     1   ar
    11     7    12    1
    12     7     8    1
    13     8     9    1
    14     9    13    1
    15    14    13    1
    16    14    15    1
    17    16    17   ar
    18    16    21    1
    19    18    19   ar
    20    20    15   ar
    21    10    12   am
    22    31    32   ar
    23    33    28   ar
    24    25     1    1
    25    13    10   am
    26    28    29   ar
    27    30    31   ar
    28    23    24    2
    29     1     2   ar
    30     3     4   ar
    31     5     6   ar
    32    15    16   ar
    33    17    18   ar
    34    19    20   ar
    35    10    11    2
    36    32    33   ar
    37    21    22    3
    38    25    26    1
@<TRIPOS>MOLECULE
MolPort-006-609-926 ChemDiv-V020-0066 MCULE-2014378284 PubChem-46070010 ZINC000034735415 ZINC34735415
 35 38 0 0 0
SMALL
GASTEIGER

@<TRIPOS>ATOM
      1 C          12.3828   41.2533    6.9688 C.ar    1  UNL1        0.0516
      2 C          11.2750   41.5987    7.7488 C.ar    1  UNL1        0.0296
      3 C           9.9737   41.5641    7.2201 C.ar    1  UNL1        0.0565
      4 C           9.8015   41.1580    5.8862 C.ar    1  UNL1        0.0150
      5 C          10.9013   40.8103    5.0990 C.ar    1  UNL1        0.0026
      6 C          12.1879   40.8586    5.6382 C.ar    1  UNL1        0.0148
      7 C           9.0083   42.7629    9.2000 C.3     1  UNL1        0.1015
      8 C           7.8502   43.7408    9.3013 C.3     1  UNL1        0.0435
      9 C           6.5424   42.9808    9.5041 C.3     1  UNL1        0.0971
     10 C           7.5056   41.3706    7.7974 C.2     1  UNL1        0.3112
     11 O           7.3179   40.4768    6.9273 O.2     1  UNL1       -0.2520
     12 N           8.8271   41.9006    8.0334 N.am    1  UNL1       -0.2430
     13 N           6.3936   41.8604    8.5722 N.am    1  UNL1       -0.2596
     14 C           5.0683   41.2628    8.4462 C.3     1  UNL1        0.1223
     15 C           4.3098   41.3660    9.7359 C.ar    1  UNL1        0.0074
     16 C           3.5379   42.5024   10.0566 C.ar    1  UNL1        0.0661
     17 C           2.8594   42.5577   11.2788 C.ar    1  UNL1        0.0100
     18 C           2.9425   41.4945   12.1814 C.ar    1  UNL1        0.0007
     19 C           3.7044   40.3680   11.8648 C.ar    1  UNL1       -0.0002
     20 C           4.3848   40.3050   10.6464 C.ar    1  UNL1       -0.0019
     21 C           3.4141   43.6142    9.1492 C.1     1  UNL1        0.1001
     22 N           3.3138   44.5077    8.4207 N.1     1  UNL1       -0.1908
     23 C          14.1836   40.4941    8.6278 C.2     1  UNL1        0.2305
     24 O          13.4639   39.6099    9.1631 O.2     1  UNL1       -0.2744
     25 N          13.6875   41.3124    7.5604 N.am    1  UNL1       -0.2836
     26 H          14.3071   41.9849    7.1956 H       1  UNL1        0.1549
     27 C          15.5665   40.7175    9.1366 C.3     1  UNL1        0.1117
     28 C          16.1209   43.6084    6.7393 C.ar    1  UNL1        0.1384
     29 C          15.5565   42.4828    7.3615 C.ar    1  UNL1        0.0331
     30 C          16.1839   41.8977    8.4667 C.ar    1  UNL1       -0.0101
     31 C          17.3741   42.4416    8.9608 C.ar    1  UNL1       -0.0036
     32 C          17.9401   43.5613    8.3449 C.ar    1  UNL1        0.0028
     33 C          17.3149   44.1415    7.2370 C.ar    1  UNL1        0.0369
     34 C          14.1087   44.2996    5.4780 C.3     1  UNL1        0.2525
     35 O          15.5188   44.2132    5.6325 O.3     1  UNL1       -0.4714
@<TRIPOS>BOND
     1    34    35    1
     2    28    35    1
     3    29    30   ar
     4    27    30    1
     5    27    23    1
     6    23    25   am
     7     2     3   ar
     8     3    12    1
     9     4     5   ar
    10     6     1   ar
    11     7    12    1
    12     7     8    1
    13     8     9    1
    14     9    13    1
    15    14    13    1
    16    14    15    1
    17    16    17   ar
    18    16    21    1
    19    18    19   ar
    20    20    15   ar
    21    10    12   am
    22    31    32   ar
    23    33    28   ar
    24    25     1    1
    25    13    10   am
    26    28    29   ar
    27    30    31   ar
    28    23    24    2
    29     1     2   ar
    30     3     4   ar
    31     5     6   ar
    32    15    16   ar
    33    17    18   ar
    34    19    20   ar
    35    10    11    2
    36    32    33   ar
    37    21    22    3
    38    25    26    1
@<TRIPOS>MOLECULE
MolPort-006-609-926 ChemDiv-V020-0066 MCULE-2014378284 PubChem-46070010 ZINC000034735415 ZINC34735415
 35 38 0 0 0
SMALL
GASTEIGER

@<TRIPOS>ATOM
      1 C           7.7244   41.8866   11.0458 C.ar    1  UNL1        0.0516
      2 C           8.6543   41.6615   10.0262 C.ar    1  UNL1        0.0296
      3 C           9.9473   41.1913   10.3114 C.ar    1  UNL1        0.0565
      4 C          10.2881   40.9343   11.6499 C.ar    1  UNL1        0.0150
      5 C           9.3664   41.1551   12.6756 C.ar    1  UNL1        0.0026
      6 C           8.0890   41.6305   12.3746 C.ar    1  UNL1        0.0148
      7 C          10.4284   40.8458    7.8746 C.3     1  UNL1        0.1015
      8 C          11.4099   41.5422    6.9475 C.3     1  UNL1        0.0435
      9 C          12.7661   40.8446    7.0052 C.3     1  UNL1        0.0971
     10 C          12.3038   40.6994    9.4949 C.2     1  UNL1        0.3112
     11 O          12.7427   40.5773   10.6712 O.2     1  UNL1       -0.2520
     12 N          10.9008   40.9385    9.2550 N.am    1  UNL1       -0.2430
     13 N          13.2079   40.5884    8.3781 N.am    1  UNL1       -0.2596
     14 C          14.6076   40.2269    8.5771 C.3     1  UNL1        0.1223
     15 C          15.5060   41.3976    8.3096 C.ar    1  UNL1        0.0074
     16 C          16.7751   41.5155    8.9143 C.ar    1  UNL1        0.0661
     17 C          17.5710   42.6338    8.6442 C.ar    1  UNL1        0.0100
     18 C          17.1157   43.6326    7.7798 C.ar    1  UNL1        0.0007
     19 C          15.8607   43.5167    7.1789 C.ar    1  UNL1       -0.0002
     20 C          15.0599   42.4030    7.4433 C.ar    1  UNL1       -0.0019
     21 C          17.2884   40.5026    9.8005 C.1     1  UNL1        0.1001
     22 N          17.6999   39.6885   10.5126 N.1     1  UNL1       -0.1908
     23 C           5.1739   41.6904   10.8796 C.2     1  UNL1        0.2305
     24 O           5.1257   40.5402   11.3905 O.2     1  UNL1       -0.2744
     25 N           6.4216   42.3718   10.6954 N.am    1  UNL1       -0.2836
     26 H           6.3795   43.2660   10.2857 H       1  UNL1        0.1549
     27 C           3.9124   42.3421   10.4264 C.3     1  UNL1        0.1117
     28 C           5.6685   44.0777    7.5427 C.ar    1  UNL1        0.1384
     29 C           5.4143   43.2220    8.6271 C.ar    1  UNL1        0.0331
     30 C           4.1839   43.2699    9.2914 C.ar    1  UNL1       -0.0101
     31 C           3.1981   44.1675    8.8680 C.ar    1  UNL1       -0.0036
     32 C           3.4463   45.0214    7.7898 C.ar    1  UNL1        0.0028
     33 C           4.6784   44.9764    7.1305 C.ar    1  UNL1        0.0369
     34 C           7.3171   42.9384    6.0931 C.3     1  UNL1        0.2525
     35 O           6.8883   44.0547    6.8611 O.3     1  UNL1       -0.4714
@<TRIPOS>BOND
     1    34    35    1
     2    28    35    1
     3    29    30   ar
     4    27    30    1
     5    27    23    1
     6    23    25   am
     7     2     3   ar
     8     3    12    1
     9     4     5   ar
    10     6     1   ar
    11     7    12    1
    12     7     8    1
    13     8     9    1
    14     9    13    1
    15    14    13    1
    16    14    15    1
    17    16    17   ar
    18    16    21    1
    19    18    19   ar
    20    20    15   ar
    21    10    12   am
    22    31    32   ar
    23    33    28   ar
    24    25     1    1
    25    13    10   am
    26    28    29   ar
    27    30    31   ar
    28    23    24    2
    29     1     2   ar
    30     3     4   ar
    31     5     6   ar
    32    15    16   ar
    33    17    18   ar
    34    19    20   ar
    35    10    11    2
    36    32    33   ar
    37    21    22    3
    38    25    26    1
@<TRIPOS>MOLECULE
MolPort-006-609-926 ChemDiv-V020-0066 MCULE-2014378284 PubChem-46070010 ZINC000034735415 ZINC34735415
 35 38 0 0 0
SMALL
GASTEIGER

@<TRIPOS>ATOM
      1 C          13.9171   40.1927    9.3388 C.ar    1  UNL1        0.0516
      2 C          12.6520   40.7747    9.4651 C.ar    1  UNL1        0.0296
      3 C          11.5472   40.0260    9.9043 C.ar    1  UNL1        0.0565
      4 C          11.7402   38.6735   10.2318 C.ar    1  UNL1        0.0150
      5 C          12.9998   38.0828   10.1099 C.ar    1  UNL1        0.0026
      6 C          14.0845   38.8398    9.6640 C.ar    1  UNL1        0.0148
      7 C           9.9211   41.3285   11.3000 C.3     1  UNL1        0.1015
      8 C           9.1421   42.5962   10.9939 C.3     1  UNL1        0.0435
      9 C           7.8188   42.2448   10.3196 C.3     1  UNL1        0.0971
     10 C           9.2037   40.5335    9.0601 C.2     1  UNL1        0.3112
     11 O           9.3498   39.7919    8.0502 O.2     1  UNL1       -0.2520
     12 N          10.2445   40.6338   10.0550 N.am    1  UNL1       -0.2430
     13 N           7.9826   41.2797    9.2300 N.am    1  UNL1       -0.2596
     14 C           6.8632   41.1091    8.3095 C.3     1  UNL1        0.1223
     15 C           5.9890   42.3277    8.2982 C.ar    1  UNL1        0.0074
     16 C           4.7659   42.3730    8.9998 C.ar    1  UNL1        0.0661
     17 C           3.9784   43.5280    8.9471 C.ar    1  UNL1        0.0100
     18 C           4.3969   44.6349    8.2043 C.ar    1  UNL1        0.0007
     19 C           5.6081   44.5926    7.5109 C.ar    1  UNL1       -0.0002
     20 C           6.4004   43.4431    7.5586 C.ar    1  UNL1       -0.0019
     21 C           4.3039   41.2597    9.7884 C.1     1  UNL1        0.1001
     22 N           3.9318   40.3658   10.4222 N.1     1  UNL1       -0.1908
     23 C          16.3709   40.9341    9.3152 C.2     1  UNL1        0.2305
     24 O          16.7371   40.1053   10.1901 O.2     1  UNL1       -0.2744
     25 N          15.0065   41.0045    8.8809 N.am    1  UNL1       -0.2836
     26 H          14.7957   41.6807    8.1972 H       1  UNL1        0.1549
     27 C          17.3684   41.8833    8.7449 C.3     1  UNL1        0.1117
     28 C          14.7730   43.3956    6.4235 C.ar    1  UNL1        0.1384
     29 C          15.3806   42.5790    7.3912 C.ar    1  UNL1        0.0331
     30 C          16.7361   42.7378    7.6995 C.ar    1  UNL1       -0.0101
     31 C          17.4880   43.7209    7.0479 C.ar    1  UNL1       -0.0036
     32 C          16.8882   44.5358    6.0837 C.ar    1  UNL1        0.0028
     33 C          15.5350   44.3721    5.7727 C.ar    1  UNL1        0.0369
     34 C          12.7279   42.0233    6.1961 C.3     1  UNL1        0.2525
     35 O          13.4220   43.2590    6.0926 O.3     1  UNL1       -0.4714
@<TRIPOS>BOND
     1    34    35    1
     2    28    35    1
     3    29    30   ar
     4    27    30    1
     5    27    23    1
     6    23    25   am
     7     2     3   ar
     8     3    12    1
     9     4     5   ar
    10     6     1   ar
    11     7    12    1
    12     7     8    1
    13     8     9    1
    14     9    13    1
    15    14    13    1
    16    14    15    1
    17    16    17   ar
    18    16    21    1
    19    18    19   ar
    20    20    15   ar
    21    10    12   am
    22    31    32   ar
    23    33    28   ar
    24    25     1    1
    25    13    10   am
    26    28    29   ar
    27    30    31   ar
    28    23    24    2
    29     1     2   ar
    30     3     4   ar
    31     5     6   ar
    32    15    16   ar
    33    17    18   ar
    34    19    20   ar
    35    10    11    2
    36    32    33   ar
    37    21    22    3
    38    25    26    1
@<TRIPOS>MOLECULE
MolPort-006-609-926 ChemDiv-V020-0066 MCULE-2014378284 PubChem-46070010 ZINC000034735415 ZINC34735415
 35 38 0 0 0
SMALL
GASTEIGER

@<TRIPOS>ATOM
      1 C          13.0869   39.6977    9.3888 C.ar    1  UNL1        0.0516
      2 C          11.9373   40.3253    8.8994 C.ar    1  UNL1        0.0296
      3 C          10.7339   39.6178    8.7404 C.ar    1  UNL1        0.0565
      4 C          10.7010   38.2598    9.0991 C.ar    1  UNL1        0.0150
      5 C          11.8435   37.6238    9.5896 C.ar    1  UNL1        0.0026
      6 C          13.0328   38.3402    9.7331 C.ar    1  UNL1        0.0148
      7 C           9.0921   40.0160    6.8870 C.3     1  UNL1        0.1015
      8 C           7.5784   39.8908    6.8570 C.3     1  UNL1        0.0435
      9 C           6.9380   41.2033    7.3001 C.3     1  UNL1        0.0971
     10 C           8.7926   41.2332    9.0301 C.2     1  UNL1        0.3112
     11 O           9.2289   41.6411   10.1411 O.2     1  UNL1       -0.2520
     12 N           9.5403   40.2725    8.2547 N.am    1  UNL1       -0.2430
     13 N           7.5418   41.7382    8.5228 N.am    1  UNL1       -0.2596
     14 C           6.8208   42.7981    9.2201 C.3     1  UNL1        0.1223
     15 C           5.5665   42.2684    9.8487 C.ar    1  UNL1        0.0074
     16 C           4.3034   42.8387    9.5849 C.ar    1  UNL1        0.0661
     17 C           3.1636   42.3180   10.2068 C.ar    1  UNL1        0.0100
     18 C           3.2702   41.2376   11.0862 C.ar    1  UNL1        0.0007
     19 C           4.5192   40.6705   11.3469 C.ar    1  UNL1       -0.0002
     20 C           5.6622   41.1846   10.7298 C.ar    1  UNL1       -0.0019
     21 C           4.1471   43.9442    8.6747 C.1     1  UNL1        0.1001
     22 N           4.0225   44.8323    7.9434 N.1     1  UNL1       -0.1908
     23 C          15.6328   39.9976    9.3681 C.2     1  UNL1        0.2305
     24 O          15.8757   38.7944    9.0860 O.2     1  UNL1       -0.2744
     25 N          14.2880   40.4688    9.5250 N.am    1  UNL1       -0.2836
     26 H          14.1777   41.4209    9.7497 H       1  UNL1        0.1549
     27 C          16.7663   40.9426    9.5764 C.3     1  UNL1        0.1117
     28 C          15.5307   43.2595    6.8347 C.ar    1  UNL1        0.1384
     29 C          15.5846   42.2173    7.7745 C.ar    1  UNL1        0.0331
     30 C          16.7254   42.0365    8.5642 C.ar    1  UNL1       -0.0101
     31 C          17.8141   42.9035    8.4241 C.ar    1  UNL1       -0.0036
     32 C          17.7655   43.9419    7.4899 C.ar    1  UNL1        0.0028
     33 C          16.6271   44.1179    6.6976 C.ar    1  UNL1        0.0369
     34 C          13.2359   42.6635    6.1302 C.3     1  UNL1        0.2525
     35 O          14.4061   43.4637    6.0303 O.3     1  UNL1       -0.4714
@<TRIPOS>BOND
     1    34    35    1
     2    28    35    1
     3    29    30   ar
     4    27    30    1
     5    27    23    1
     6    23    25   am
     7     2     3   ar
     8     3    12    1
     9     4     5   ar
    10     6     1   ar
    11     7    12    1
    12     7     8    1
    13     8     9    1
    14     9    13    1
    15    14    13    1
    16    14    15    1
    17    16    17   ar
    18    16    21    1
    19    18    19   ar
    20    20    15   ar
    21    10    12   am
    22    31    32   ar
    23    33    28   ar
    24    25     1    1
    25    13    10   am
    26    28    29   ar
    27    30    31   ar
    28    23    24    2
    29     1     2   ar
    30     3     4   ar
    31     5     6   ar
    32    15    16   ar
    33    17    18   ar
    34    19    20   ar
    35    10    11    2
    36    32    33   ar
    37    21    22    3
    38    25    26    1
@<TRIPOS>MOLECULE
MolPort-006-609-926 ChemDiv-V020-0066 MCULE-2014378284 PubChem-46070010 ZINC000034735415 ZINC34735415
 35 38 0 0 0
SMALL
GASTEIGER

@<TRIPOS>ATOM
      1 C          14.5663   40.4028    9.7435 C.ar    1  UNL1        0.0516
      2 C          13.2328   40.8067    9.6263 C.ar    1  UNL1        0.0296
      3 C          12.2361   40.2777   10.4634 C.ar    1  UNL1        0.0565
      4 C          12.6081   39.3382   11.4395 C.ar    1  UNL1        0.0150
      5 C          13.9374   38.9288   11.5653 C.ar    1  UNL1        0.0026
      6 C          14.9131   39.4588   10.7195 C.ar    1  UNL1        0.0148
      7 C          10.3273   41.6422   11.3487 C.3     1  UNL1        0.1015
      8 C           9.4394   42.6686   10.6659 C.3     1  UNL1        0.0435
      9 C           8.2466   41.9745   10.0143 C.3     1  UNL1        0.0971
     10 C           9.9516   40.2182    9.3499 C.2     1  UNL1        0.3112
     11 O          10.2914   39.2762    8.5829 O.2     1  UNL1       -0.2520
     12 N          10.8615   40.7116   10.3558 N.am    1  UNL1       -0.2430
     13 N           8.6390   40.8010    9.2303 N.am    1  UNL1       -0.2596
     14 C           7.6519   40.2477    8.3090 C.3     1  UNL1        0.1223
     15 C           8.2656   39.9738    6.9682 C.ar    1  UNL1        0.0074
     16 C           8.4139   40.9859    5.9967 C.ar    1  UNL1        0.0661
     17 C           8.9796   40.6778    4.7548 C.ar    1  UNL1        0.0100
     18 C           9.3977   39.3749    4.4730 C.ar    1  UNL1        0.0007
     19 C           9.2536   38.3723    5.4341 C.ar    1  UNL1       -0.0002
     20 C           8.6898   38.6718    6.6766 C.ar    1  UNL1       -0.0019
     21 C           8.0089   42.3447    6.2510 C.1     1  UNL1        0.1001
     22 N           7.6831   43.4363    6.4544 N.1     1  UNL1       -0.1908
     23 C          16.9417   41.1300    9.1110 C.2     1  UNL1        0.2305
     24 O          17.4557   40.7600   10.1997 O.2     1  UNL1       -0.2744
     25 N          15.5393   40.9732    8.8583 N.am    1  UNL1       -0.2836
     26 H          15.2102   41.2900    7.9863 H       1  UNL1        0.1549
     27 C          17.8018   41.7745    8.0785 C.3     1  UNL1        0.1117
     28 C          14.8960   43.7229    6.6049 C.ar    1  UNL1        0.1384
     29 C          15.6313   42.7453    7.2949 C.ar    1  UNL1        0.0331
     30 C          17.0290   42.8024    7.3242 C.ar    1  UNL1       -0.0101
     31 C          17.6974   43.8433    6.6713 C.ar    1  UNL1       -0.0036
     32 C          16.9703   44.8183    5.9829 C.ar    1  UNL1        0.0028
     33 C          15.5739   44.7568    5.9497 C.ar    1  UNL1        0.0369
     34 C          12.7631   42.4808    6.4449 C.3     1  UNL1        0.2525
     35 O          13.4996   43.6912    6.5559 O.3     1  UNL1       -0.4714
@<TRIPOS>BOND
     1    34    35    1
     2    28    35    1
     3    29    30   ar
     4    27    30    1
     5    27    23    1
     6    23    25   am
     7     2     3   ar
     8     3    12    1
     9     4     5   ar
    10     6     1   ar
    11     7    12    1
    12     7     8    1
    13     8     9    1
    14     9    13    1
    15    14    13    1
    16    14    15    1
    17    16    17   ar
    18    16    21    1
    19    18    19   ar
    20    20    15   ar
    21    10    12   am
    22    31    32   ar
    23    33    28   ar
    24    25     1    1
    25    13    10   am
    26    28    29   ar
    27    30    31   ar
    28    23    24    2
    29     1     2   ar
    30     3     4   ar
    31     5     6   ar
    32    15    16   ar
    33    17    18   ar
    34    19    20   ar
    35    10    11    2
    36    32    33   ar
    37    21    22    3
    38    25    26    1
@<TRIPOS>MOLECULE
MolPort-006-609-926 ChemDiv-V020-0066 MCULE-2014378284 PubChem-46070010 ZINC000034735415 ZINC34735415
 35 38 0 0 0
SMALL
GASTEIGER

@<TRIPOS>ATOM
      1 C          12.5618   39.8490    8.3962 C.ar    1  UNL1        0.0516
      2 C          11.7638   40.8985    8.8619 C.ar    1  UNL1        0.0296
      3 C          10.3646   40.7816    8.9121 C.ar    1  UNL1        0.0565
      4 C           9.7763   39.5753    8.4968 C.ar    1  UNL1        0.0150
      5 C          10.5644   38.5207    8.0308 C.ar    1  UNL1        0.0026
      6 C          11.9526   38.6575    7.9799 C.ar    1  UNL1        0.0148
      7 C          10.0863   42.7595   10.4286 C.3     1  UNL1        0.1015
      8 C           9.6604   44.1870   10.1311 C.3     1  UNL1        0.0435
      9 C           8.1401   44.3021   10.1986 C.3     1  UNL1        0.0971
     10 C           8.1690   42.0586    9.0156 C.2     1  UNL1        0.3112
     11 O           7.5805   41.2103    8.2910 O.2     1  UNL1       -0.2520
     12 N           9.5419   41.8590    9.4137 N.am    1  UNL1       -0.2430
     13 N           7.4626   43.2333    9.4607 N.am    1  UNL1       -0.2596
     14 C           6.0413   43.4074    9.1796 C.3     1  UNL1        0.1223
     15 C           5.2433   42.2611    9.7258 C.ar    1  UNL1        0.0074
     16 C           5.5808   41.6320   10.9426 C.ar    1  UNL1        0.0661
     17 C           4.8137   40.5569   11.4038 C.ar    1  UNL1        0.0100
     18 C           3.7168   40.1042   10.6662 C.ar    1  UNL1        0.0007
     19 C           3.3801   40.7269    9.4627 C.ar    1  UNL1       -0.0002
     20 C           4.1409   41.8012    8.9954 C.ar    1  UNL1       -0.0019
     21 C           6.6949   42.0757   11.7407 C.1     1  UNL1        0.1001
     22 N           7.5892   42.4322   12.3826 N.1     1  UNL1       -0.1908
     23 C          14.8636   40.1236    9.4907 C.2     1  UNL1        0.2305
     24 O          14.4251   40.0601   10.6697 O.2     1  UNL1       -0.2744
     25 N          13.9840   40.0272    8.3628 N.am    1  UNL1       -0.2836
     26 H          14.3999   40.0899    7.4726 H       1  UNL1        0.1549
     27 C          16.3210   40.3373    9.2636 C.3     1  UNL1        0.1117
     28 C          15.7448   43.4632    7.1879 C.ar    1  UNL1        0.1384
     29 C          15.5378   42.2249    7.8176 C.ar    1  UNL1        0.0331
     30 C          16.5561   41.6404    8.5785 C.ar    1  UNL1       -0.0101
     31 C          17.7833   42.2965    8.7211 C.ar    1  UNL1       -0.0036
     32 C          17.9944   43.5286    8.0961 C.ar    1  UNL1        0.0028
     33 C          16.9778   44.1088    7.3313 C.ar    1  UNL1        0.0369
     34 C          14.7837   44.0984    4.9992 C.3     1  UNL1        0.2525
     35 O          14.7478   44.0706    6.4197 O.3     1  UNL1       -0.4714
@<TRIPOS>BOND
     1    34    35    1
     2    28    35    1
     3    29    30   ar
     4    27    30    1
     5    27    23    1
     6    23    25   am
     7     2     3   ar
     8     3    12    1
     9     4     5   ar
    10     6     1   ar
    11     7    12    1
    12     7     8    1
    13     8     9    1
    14     9    13    1
    15    14    13    1
    16    14    15    1
    17    16    17   ar
    18    16    21    1
    19    18    19   ar
    20    20    15   ar
    21    10    12   am
    22    31    32   ar
    23    33    28   ar
    24    25     1    1
    25    13    10   am
    26    28    29   ar
    27    30    31   ar
    28    23    24    2
    29     1     2   ar
    30     3     4   ar
    31     5     6   ar
    32    15    16   ar
    33    17    18   ar
    34    19    20   ar
    35    10    11    2
    36    32    33   ar
    37    21    22    3
    38    25    26    1
@<TRIPOS>MOLECULE
MolPort-006-609-926 ChemDiv-V020-0066 MCULE-2014378284 PubChem-46070010 ZINC000034735415 ZINC34735415
 35 38 0 0 0
SMALL
GASTEIGER

@<TRIPOS>ATOM
      1 C          13.5935   39.1392    9.9286 C.ar    1  UNL1        0.0516
      2 C          12.4424   39.9329    9.9293 C.ar    1  UNL1        0.0296
      3 C          11.1611   39.3563    9.9339 C.ar    1  UNL1        0.0565
      4 C          11.0553   37.9555    9.9532 C.ar    1  UNL1        0.0150
      5 C          12.1988   37.1538    9.9534 C.ar    1  UNL1        0.0026
      6 C          13.4638   37.7438    9.9403 C.ar    1  UNL1        0.0148
      7 C           9.7110   41.0240   11.1194 C.3     1  UNL1        0.1015
      8 C           9.1684   42.3683   10.6656 C.3     1  UNL1        0.0435
      9 C           7.8377   42.1763    9.9433 C.3     1  UNL1        0.0971
     10 C           8.9760   40.1580    8.9117 C.2     1  UNL1        0.3112
     11 O           9.0434   39.3152    7.9757 O.2     1  UNL1       -0.2520
     12 N           9.9718   40.1775    9.9563 N.am    1  UNL1       -0.2430
     13 N           7.8892   41.1037    8.9469 N.am    1  UNL1       -0.2596
     14 C           6.8008   41.0345    7.9774 C.3     1  UNL1        0.1223
     15 C           5.8145   42.1422    8.1999 C.ar    1  UNL1        0.0074
     16 C           5.8646   43.3430    7.4611 C.ar    1  UNL1        0.0661
     17 C           4.9307   44.3532    7.7151 C.ar    1  UNL1        0.0100
     18 C           3.9504   44.1785    8.6951 C.ar    1  UNL1        0.0007
     19 C           3.8980   42.9899    9.4258 C.ar    1  UNL1       -0.0002
     20 C           4.8268   41.9763    9.1782 C.ar    1  UNL1       -0.0019
     21 C           6.8499   43.5586    6.4327 C.1     1  UNL1        0.1001
     22 N           7.6408   43.7322    5.6060 N.1     1  UNL1       -0.1908
     23 C          15.3352   40.7627    8.9788 C.2     1  UNL1        0.2305
     24 O          14.6056   41.1520    8.0289 O.2     1  UNL1       -0.2744
     25 N          14.8745   39.7831    9.9186 N.am    1  UNL1       -0.2836
     26 H          15.5030   39.5257   10.6313 H       1  UNL1        0.1549
     27 C          16.7171   41.3057    9.1089 C.3     1  UNL1        0.1117
     28 C          16.0310   44.0082    6.5326 C.ar    1  UNL1        0.1384
     29 C          15.8487   42.9273    7.4107 C.ar    1  UNL1        0.0331
     30 C          16.9234   42.4379    8.1612 C.ar    1  UNL1       -0.0101
     31 C          18.1835   43.0337    8.0438 C.ar    1  UNL1       -0.0036
     32 C          18.3701   44.1091    7.1710 C.ar    1  UNL1        0.0028
     33 C          17.2966   44.5935    6.4175 C.ar    1  UNL1        0.0369
     34 C          13.7508   43.8215    5.5926 C.3     1  UNL1        0.2525
     35 O          14.9774   44.5174    5.7684 O.3     1  UNL1       -0.4714
@<TRIPOS>BOND
     1    34    35    1
     2    28    35    1
     3    29    30   ar
     4    27    30    1
     5    27    23    1
     6    23    25   am
     7     2     3   ar
     8     3    12    1
     9     4     5   ar
    10     6     1   ar
    11     7    12    1
    12     7     8    1
    13     8     9    1
    14     9    13    1
    15    14    13    1
    16    14    15    1
    17    16    17   ar
    18    16    21    1
    19    18    19   ar
    20    20    15   ar
    21    10    12   am
    22    31    32   ar
    23    33    28   ar
    24    25     1    1
    25    13    10   am
    26    28    29   ar
    27    30    31   ar
    28    23    24    2
    29     1     2   ar
    30     3     4   ar
    31     5     6   ar
    32    15    16   ar
    33    17    18   ar
    34    19    20   ar
    35    10    11    2
    36    32    33   ar
    37    21    22    3
    38    25    26    1
