@<TRIPOS>MOLECULE
MolPort-006-579-806 ChemDiv-V016-7939 MCULE-7327860342 PubChem-46040770 ZINC37544436
 34 37 0 0 0
SMALL
GASTEIGER

@<TRIPOS>ATOM
      1 C          10.3048   41.2546   10.7711 C.ar    1  UNL1        0.0565
      2 C          10.0412   41.2012   12.1497 C.ar    1  UNL1        0.0150
      3 C           8.7511   41.4202   12.6374 C.ar    1  UNL1        0.0026
      4 C           7.7072   41.6909   11.7510 C.ar    1  UNL1        0.0148
      5 C           7.9461   41.7428   10.3708 C.ar    1  UNL1        0.0516
      6 C           9.2415   41.5234    9.8927 C.ar    1  UNL1        0.0296
      7 C          14.0170   39.9881    8.9728 C.3     1  UNL1        0.0971
      8 C          13.0976   39.0957    9.7970 C.3     1  UNL1        0.0435
      9 C          12.4447   39.9452   10.8795 C.3     1  UNL1        0.1015
     10 C          12.1915   41.7063    9.1391 C.2     1  UNL1        0.3112
     11 N          13.2717   41.1090    8.4036 N.am    1  UNL1       -0.2595
     12 N          11.6386   41.0080   10.2742 N.am    1  UNL1       -0.2430
     13 O          11.7281   42.8241    8.7822 O.2     1  UNL1       -0.2520
     14 C          13.5774   41.5419    7.0458 C.3     1  UNL1        0.1240
     15 F          18.0214   42.9592    8.4905 F       1  UNL1       -0.2042
     16 F          13.4447   44.0200    5.6124 F       1  UNL1       -0.2044
     17 C          16.8939   43.2161    7.7852 C.ar    1  UNL1        0.1400
     18 C          15.8442   42.2934    7.7853 C.ar    1  UNL1        0.0293
     19 C          14.6759   42.5555    7.0600 C.ar    1  UNL1        0.0274
     20 C          14.5661   43.7460    6.3241 C.ar    1  UNL1        0.1379
     21 C          15.6187   44.6668    6.3260 C.ar    1  UNL1        0.0317
     22 C          16.7813   44.4028    7.0557 C.ar    1  UNL1        0.0319
     23 C           6.5994   43.2860    8.8299 C.2     1  UNL1        0.2707
     24 N           6.9010   42.0194    9.4285 N.am    1  UNL1       -0.2808
     25 O           7.2426   44.3246    9.1363 O.2     1  UNL1       -0.2707
     26 H           6.3318   41.2604    9.1656 H       1  UNL1        0.1550
     27 C           5.4815   43.3819    7.8552 C.3     1  UNL1        0.2897
     28 O           4.2411   43.3726    8.5498 O.3     1  UNL1       -0.4656
     29 C           3.9434   42.4412    9.5480 C.ar    1  UNL1        0.1393
     30 C           3.9647   41.0591    9.2962 C.ar    1  UNL1        0.0369
     31 C           3.6641   40.1526   10.3170 C.ar    1  UNL1        0.0031
     32 C           3.3402   40.6202   11.5937 C.ar    1  UNL1        0.0002
     33 C           3.3162   41.9939   11.8490 C.ar    1  UNL1        0.0031
     34 C           3.6179   42.9010   10.8288 C.ar    1  UNL1        0.0369
@<TRIPOS>BOND
     1    17    15    1
     2    18    19   ar
     3    14    19    1
     4    14    11    1
     5     7    11    1
     6     7     8    1
     7     8     9    1
     8     9    12    1
     9    10    11   am
    10     2     3   ar
    11     4     5   ar
    12     5    24    1
    13    27    23    1
    14    27    28    1
    15    29    28    1
    16    30    31   ar
    17    32    33   ar
    18    34    29   ar
    19     6     1   ar
    20    20    16    1
    21    20    21   ar
    22    22    17   ar
    23    12    10   am
    24    12     1    1
    25    24    23   am
    26    17    18   ar
    27    19    20   ar
    28    10    13    2
    29     1     2   ar
    30     3     4   ar
    31     5     6   ar
    32    23    25    2
    33    29    30   ar
    34    31    32   ar
    35    33    34   ar
    36    21    22   ar
    37    24    26    1
@<TRIPOS>MOLECULE
MolPort-006-579-806 ChemDiv-V016-7939 MCULE-7327860342 PubChem-46040770 ZINC37544436
 34 37 0 0 0
SMALL
GASTEIGER

@<TRIPOS>ATOM
      1 C           8.6347   40.5155    7.4550 C.ar    1  UNL1        0.0565
      2 C           8.0375   39.6056    6.5670 C.ar    1  UNL1        0.0150
      3 C           8.5769   39.3912    5.2969 C.ar    1  UNL1        0.0026
      4 C           9.7239   40.0814    4.9009 C.ar    1  UNL1        0.0148
      5 C          10.3400   40.9894    5.7730 C.ar    1  UNL1        0.0516
      6 C           9.7914   41.1979    7.0419 C.ar    1  UNL1        0.0296
      7 C           7.2303   41.7400   11.3468 C.3     1  UNL1        0.0971
      8 C           8.6668   41.8706   10.8568 C.3     1  UNL1        0.0435
      9 C           8.9711   40.6955    9.9369 C.3     1  UNL1        0.1015
     10 C           6.6901   41.0288    8.9984 C.2     1  UNL1        0.3112
     11 N           6.3041   41.6840   10.2176 N.am    1  UNL1       -0.2595
     12 N           8.0808   40.7167    8.7738 N.am    1  UNL1       -0.2430
     13 O           5.8181   40.7441    8.1324 O.2     1  UNL1       -0.2520
     14 C           5.0302   42.3852   10.3152 C.3     1  UNL1        0.1240
     15 F           2.3267   45.1267    7.3117 F       1  UNL1       -0.2042
     16 F           7.3066   43.7318    9.2116 F       1  UNL1       -0.2044
     17 C           3.5490   44.7798    7.7811 C.ar    1  UNL1        0.1400
     18 C           3.6662   43.7884    8.7593 C.ar    1  UNL1        0.0293
     19 C           4.9274   43.4245    9.2458 C.ar    1  UNL1        0.0274
     20 C           6.0748   44.0664    8.7536 C.ar    1  UNL1        0.1379
     21 C           5.9536   45.0583    7.7751 C.ar    1  UNL1        0.0317
     22 C           4.6925   45.4147    7.2890 C.ar    1  UNL1        0.0319
     23 C          12.5116   42.2496    6.2887 C.2     1  UNL1        0.2707
     24 N          11.5180   41.7187    5.4028 N.am    1  UNL1       -0.2808
     25 O          12.3969   42.1455    7.5386 O.2     1  UNL1       -0.2707
     26 H          11.6589   41.8703    4.4403 H       1  UNL1        0.1550
     27 C          13.6819   42.9689    5.7214 C.3     1  UNL1        0.2897
     28 O          14.3055   43.7419    6.7386 O.3     1  UNL1       -0.4656
     29 C          15.5656   43.4304    7.2559 C.ar    1  UNL1        0.1393
     30 C          15.7909   42.2531    7.9889 C.ar    1  UNL1        0.0369
     31 C          17.0640   41.9691    8.4913 C.ar    1  UNL1        0.0031
     32 C          18.1185   42.8583    8.2657 C.ar    1  UNL1        0.0002
     33 C          17.8995   44.0314    7.5386 C.ar    1  UNL1        0.0031
     34 C          16.6266   44.3153    7.0348 C.ar    1  UNL1        0.0369
@<TRIPOS>BOND
     1    17    15    1
     2    18    19   ar
     3    14    19    1
     4    14    11    1
     5     7    11    1
     6     7     8    1
     7     8     9    1
     8     9    12    1
     9    10    11   am
    10     2     3   ar
    11     4     5   ar
    12     5    24    1
    13    27    23    1
    14    27    28    1
    15    29    28    1
    16    30    31   ar
    17    32    33   ar
    18    34    29   ar
    19     6     1   ar
    20    20    16    1
    21    20    21   ar
    22    22    17   ar
    23    12    10   am
    24    12     1    1
    25    24    23   am
    26    17    18   ar
    27    19    20   ar
    28    10    13    2
    29     1     2   ar
    30     3     4   ar
    31     5     6   ar
    32    23    25    2
    33    29    30   ar
    34    31    32   ar
    35    33    34   ar
    36    21    22   ar
    37    24    26    1
@<TRIPOS>MOLECULE
MolPort-006-579-806 ChemDiv-V016-7939 MCULE-7327860342 PubChem-46040770 ZINC37544436
 34 37 0 0 0
SMALL
GASTEIGER

@<TRIPOS>ATOM
      1 C           9.0046   40.5462    7.8892 C.ar    1  UNL1        0.0565
      2 C           8.8718   39.5361    6.9223 C.ar    1  UNL1        0.0150
      3 C           7.6840   39.3905    6.2025 C.ar    1  UNL1        0.0026
      4 C           6.6154   40.2574    6.4379 C.ar    1  UNL1        0.0148
      5 C           6.7280   41.2766    7.3936 C.ar    1  UNL1        0.0516
      6 C           7.9210   41.4130    8.1099 C.ar    1  UNL1        0.0296
      7 C          12.5025   40.4751   10.4147 C.3     1  UNL1        0.0971
      8 C          11.0642   40.4876   10.9165 C.3     1  UNL1        0.0435
      9 C          10.2229   41.3088    9.9483 C.3     1  UNL1        0.1015
     10 C          11.5051   40.2017    8.1249 C.2     1  UNL1        0.3112
     11 N          12.5689   39.9422    9.0554 N.am    1  UNL1       -0.2595
     12 N          10.2436   40.7013    8.6155 N.am    1  UNL1       -0.2430
     13 O          11.6758   39.9803    6.8947 O.2     1  UNL1       -0.2520
     14 C          13.6773   39.0673    8.6945 C.3     1  UNL1        0.1240
     15 F          10.8251   35.8370   10.9913 F       1  UNL1       -0.2042
     16 F          15.5227   36.9070    8.3190 F       1  UNL1       -0.2044
     17 C          11.9790   36.1050   10.3347 C.ar    1  UNL1        0.1400
     18 C          12.2392   37.4006    9.8793 C.ar    1  UNL1        0.0293
     19 C          13.4315   37.6831    9.2025 C.ar    1  UNL1        0.0274
     20 C          14.3621   36.6570    8.9742 C.ar    1  UNL1        0.1379
     21 C          14.0981   35.3618    9.4309 C.ar    1  UNL1        0.0317
     22 C          12.9083   35.0857   10.1106 C.ar    1  UNL1        0.0319
     23 C           5.7662   43.5818    7.9684 C.2     1  UNL1        0.2707
     24 N           5.6528   42.1857    7.6654 N.am    1  UNL1       -0.2808
     25 O           6.8904   44.1413    8.0658 O.2     1  UNL1       -0.2707
     26 H           4.7423   41.8121    7.6413 H       1  UNL1        0.1550
     27 C           4.5333   44.3765    8.2081 C.3     1  UNL1        0.2897
     28 O           3.4942   43.5191    8.6622 O.3     1  UNL1       -0.4656
     29 C           3.7149   42.4877    9.5788 C.ar    1  UNL1        0.1393
     30 C           4.6244   42.6275   10.6405 C.ar    1  UNL1        0.0369
     31 C           4.8211   41.5776   11.5422 C.ar    1  UNL1        0.0031
     32 C           4.1121   40.3829   11.3888 C.ar    1  UNL1        0.0002
     33 C           3.2074   40.2381   10.3337 C.ar    1  UNL1        0.0031
     34 C           3.0093   41.2884    9.4323 C.ar    1  UNL1        0.0369
@<TRIPOS>BOND
     1    17    15    1
     2    18    19   ar
     3    14    19    1
     4    14    11    1
     5     7    11    1
     6     7     8    1
     7     8     9    1
     8     9    12    1
     9    10    11   am
    10     2     3   ar
    11     4     5   ar
    12     5    24    1
    13    27    23    1
    14    27    28    1
    15    29    28    1
    16    30    31   ar
    17    32    33   ar
    18    34    29   ar
    19     6     1   ar
    20    20    16    1
    21    20    21   ar
    22    22    17   ar
    23    12    10   am
    24    12     1    1
    25    24    23   am
    26    17    18   ar
    27    19    20   ar
    28    10    13    2
    29     1     2   ar
    30     3     4   ar
    31     5     6   ar
    32    23    25    2
    33    29    30   ar
    34    31    32   ar
    35    33    34   ar
    36    21    22   ar
    37    24    26    1
@<TRIPOS>MOLECULE
MolPort-006-579-806 ChemDiv-V016-7939 MCULE-7327860342 PubChem-46040770 ZINC37544436
 34 37 0 0 0
SMALL
GASTEIGER

@<TRIPOS>ATOM
      1 C          10.1020   41.1032   10.4560 C.ar    1  UNL1        0.0565
      2 C          10.5804   40.9627   11.7692 C.ar    1  UNL1        0.0150
      3 C           9.7606   41.2548   12.8613 C.ar    1  UNL1        0.0026
      4 C           8.4496   41.6869   12.6531 C.ar    1  UNL1        0.0148
      5 C           7.9492   41.8283   11.3514 C.ar    1  UNL1        0.0516
      6 C           8.7785   41.5345   10.2648 C.ar    1  UNL1        0.0296
      7 C          12.6616   40.8039    6.9952 C.3     1  UNL1        0.0971
      8 C          11.3374   41.5559    7.0386 C.3     1  UNL1        0.0435
      9 C          10.3939   40.8169    7.9785 C.3     1  UNL1        0.1015
     10 C          12.3606   40.5060    9.4718 C.2     1  UNL1        0.3112
     11 N          13.2259   40.6772    8.3374 N.am    1  UNL1       -0.2595
     12 N          10.9510   40.7806    9.3328 N.am    1  UNL1       -0.2430
     13 O          12.8380   40.1318   10.5779 O.2     1  UNL1       -0.2520
     14 C          14.6650   40.8256    8.5140 C.3     1  UNL1        0.1240
     15 F          13.8842   44.5900    5.5033 F       1  UNL1       -0.2042
     16 F          17.2577   41.9572    8.9735 F       1  UNL1       -0.2044
     17 C          14.7105   43.9388    6.3564 C.ar    1  UNL1        0.1400
     18 C          14.2917   42.7529    6.9661 C.ar    1  UNL1        0.0293
     19 C          15.1429   42.0748    7.8465 C.ar    1  UNL1        0.0274
     20 C          16.4170   42.5958    8.1224 C.ar    1  UNL1        0.1379
     21 C          16.8325   43.7829    7.5107 C.ar    1  UNL1        0.0317
     22 C          15.9808   44.4538    6.6286 C.ar    1  UNL1        0.0319
     23 C           5.4010   41.5534   11.3779 C.2     1  UNL1        0.2707
     24 N           6.6092   42.2709   11.0963 N.am    1  UNL1       -0.2808
     25 O           5.4276   40.3912   11.8623 O.2     1  UNL1       -0.2707
     26 H           6.5089   43.1597   10.6851 H       1  UNL1        0.1550
     27 C           4.0918   42.1799   11.0577 C.3     1  UNL1        0.2897
     28 O           3.8728   42.1359    9.6537 O.3     1  UNL1       -0.4656
     29 C           4.7248   42.7594    8.7383 C.ar    1  UNL1        0.1393
     30 C           4.6083   44.1265    8.4362 C.ar    1  UNL1        0.0369
     31 C           5.4777   44.7213    7.5172 C.ar    1  UNL1        0.0031
     32 C           6.4670   43.9551    6.8946 C.ar    1  UNL1        0.0002
     33 C           6.5862   42.5945    7.1904 C.ar    1  UNL1        0.0031
     34 C           5.7177   41.9994    8.1103 C.ar    1  UNL1        0.0369
@<TRIPOS>BOND
     1    17    15    1
     2    18    19   ar
     3    14    19    1
     4    14    11    1
     5     7    11    1
     6     7     8    1
     7     8     9    1
     8     9    12    1
     9    10    11   am
    10     2     3   ar
    11     4     5   ar
    12     5    24    1
    13    27    23    1
    14    27    28    1
    15    29    28    1
    16    30    31   ar
    17    32    33   ar
    18    34    29   ar
    19     6     1   ar
    20    20    16    1
    21    20    21   ar
    22    22    17   ar
    23    12    10   am
    24    12     1    1
    25    24    23   am
    26    17    18   ar
    27    19    20   ar
    28    10    13    2
    29     1     2   ar
    30     3     4   ar
    31     5     6   ar
    32    23    25    2
    33    29    30   ar
    34    31    32   ar
    35    33    34   ar
    36    21    22   ar
    37    24    26    1
@<TRIPOS>MOLECULE
MolPort-006-579-806 ChemDiv-V016-7939 MCULE-7327860342 PubChem-46040770 ZINC37544436
 34 37 0 0 0
SMALL
GASTEIGER

@<TRIPOS>ATOM
      1 C          12.2293   37.9862    9.3211 C.ar    1  UNL1        0.0565
      2 C          11.5147   37.1020   10.1461 C.ar    1  UNL1        0.0150
      3 C          12.0103   35.8256   10.4205 C.ar    1  UNL1        0.0026
      4 C          13.2301   35.4194    9.8765 C.ar    1  UNL1        0.0148
      5 C          13.9632   36.2876    9.0557 C.ar    1  UNL1        0.0516
      6 C          13.4576   37.5629    8.7860 C.ar    1  UNL1        0.0296
      7 C          11.2576   42.1634    8.8472 C.3     1  UNL1        0.0971
      8 C          11.6145   41.4951   10.1689 C.3     1  UNL1        0.0435
      9 C          11.0882   40.0661   10.1441 C.3     1  UNL1        0.1015
     10 C          11.8771   39.9722    7.7854 C.2     1  UNL1        0.3112
     11 N          11.8042   41.4059    7.7232 N.am    1  UNL1       -0.2595
     12 N          11.7181   39.3114    9.0581 N.am    1  UNL1       -0.2430
     13 O          12.0910   39.3058    6.7358 O.2     1  UNL1       -0.2520
     14 C          12.3608   42.1314    6.5882 C.3     1  UNL1        0.1240
     15 F          16.6379   41.3663    8.8167 F       1  UNL1       -0.2042
     16 F          13.5713   44.4657    5.4485 F       1  UNL1       -0.2044
     17 C          15.8798   42.1258    7.9900 C.ar    1  UNL1        0.1400
     18 C          14.5543   41.7666    7.7307 C.ar    1  UNL1        0.0293
     19 C          13.7660   42.5496    6.8791 C.ar    1  UNL1        0.0274
     20 C          14.3155   43.6934    6.2784 C.ar    1  UNL1        0.1379
     21 C          15.6424   44.0495    6.5399 C.ar    1  UNL1        0.0317
     22 C          16.4240   43.2671    7.3948 C.ar    1  UNL1        0.0319
     23 C          16.5200   36.1085    9.0428 C.2     1  UNL1        0.2707
     24 N          15.2188   35.9071    8.4769 N.am    1  UNL1       -0.2808
     25 O          16.6710   36.7089   10.1396 O.2     1  UNL1       -0.2707
     26 H          15.1834   35.4612    7.5998 H       1  UNL1        0.1550
     27 C          17.7169   35.6309    8.3024 C.3     1  UNL1        0.2897
     28 O          17.6819   36.1251    6.9699 O.3     1  UNL1       -0.4656
     29 C          17.3712   35.3158    5.8740 C.ar    1  UNL1        0.1393
     30 C          17.2025   33.9273    6.0076 C.ar    1  UNL1        0.0369
     31 C          16.8897   33.1453    4.8919 C.ar    1  UNL1        0.0031
     32 C          16.7444   33.7443    3.6375 C.ar    1  UNL1        0.0002
     33 C          16.9126   35.1246    3.4988 C.ar    1  UNL1        0.0031
     34 C          17.2243   35.9074    4.6146 C.ar    1  UNL1        0.0369
@<TRIPOS>BOND
     1    17    15    1
     2    18    19   ar
     3    14    19    1
     4    14    11    1
     5     7    11    1
     6     7     8    1
     7     8     9    1
     8     9    12    1
     9    10    11   am
    10     2     3   ar
    11     4     5   ar
    12     5    24    1
    13    27    23    1
    14    27    28    1
    15    29    28    1
    16    30    31   ar
    17    32    33   ar
    18    34    29   ar
    19     6     1   ar
    20    20    16    1
    21    20    21   ar
    22    22    17   ar
    23    12    10   am
    24    12     1    1
    25    24    23   am
    26    17    18   ar
    27    19    20   ar
    28    10    13    2
    29     1     2   ar
    30     3     4   ar
    31     5     6   ar
    32    23    25    2
    33    29    30   ar
    34    31    32   ar
    35    33    34   ar
    36    21    22   ar
    37    24    26    1
@<TRIPOS>MOLECULE
MolPort-006-579-806 ChemDiv-V016-7939 MCULE-7327860342 PubChem-46040770 ZINC37544436
 34 37 0 0 0
SMALL
GASTEIGER

@<TRIPOS>ATOM
      1 C           8.6581   40.5732    7.6537 C.ar    1  UNL1        0.0565
      2 C           8.7253   39.7887    6.4906 C.ar    1  UNL1        0.0150
      3 C           7.5597   39.3498    5.8589 C.ar    1  UNL1        0.0026
      4 C           6.3117   39.6947    6.3807 C.ar    1  UNL1        0.0148
      5 C           6.2209   40.4819    7.5369 C.ar    1  UNL1        0.0516
      6 C           7.3938   40.9151    8.1625 C.ar    1  UNL1        0.0296
      7 C          12.2920   41.3564    9.8446 C.3     1  UNL1        0.0971
      8 C          10.9939   40.8499   10.4604 C.3     1  UNL1        0.0435
      9 C           9.8270   41.4572    9.6928 C.3     1  UNL1        0.1015
     10 C          11.1518   41.0289    7.6297 C.2     1  UNL1        0.3112
     11 N          12.3505   41.0256    8.4222 N.am    1  UNL1       -0.2595
     12 N           9.8688   41.0385    8.2896 N.am    1  UNL1       -0.2430
     13 O          11.2285   41.0104    6.3707 O.2     1  UNL1       -0.2520
     14 C          13.6210   40.5994    7.8491 C.3     1  UNL1        0.1240
     15 F          14.2825   44.9163    5.6646 F       1  UNL1       -0.2042
     16 F          16.2551   40.9382    8.9262 F       1  UNL1       -0.2044
     17 C          14.7636   43.9353    6.4651 C.ar    1  UNL1        0.1400
     18 C          13.9862   42.8041    6.7283 C.ar    1  UNL1        0.0293
     19 C          14.4800   41.7863    7.5529 C.ar    1  UNL1        0.0274
     20 C          15.7571   41.9105    8.1227 C.ar    1  UNL1        0.1379
     21 C          16.5320   43.0441    7.8574 C.ar    1  UNL1        0.0317
     22 C          16.0364   44.0554    7.0294 C.ar    1  UNL1        0.0319
     23 C           4.6404   40.9557    9.4983 C.2     1  UNL1        0.2707
     24 N           4.9581   40.8558    8.1045 N.am    1  UNL1       -0.2808
     25 O           5.4862   40.6645   10.3850 O.2     1  UNL1       -0.2707
     26 H           4.2344   41.0657    7.4709 H       1  UNL1        0.1550
     27 C           3.2740   41.3763    9.9044 C.3     1  UNL1        0.2897
     28 O           3.2111   42.7951    9.9681 O.3     1  UNL1       -0.4656
     29 C           3.9681   43.6212    9.1332 C.ar    1  UNL1        0.1393
     30 C           3.3674   44.4203    8.1459 C.ar    1  UNL1        0.0369
     31 C           4.1525   45.2379    7.3278 C.ar    1  UNL1        0.0031
     32 C           5.5405   45.2619    7.4900 C.ar    1  UNL1        0.0002
     33 C           6.1431   44.4679    8.4694 C.ar    1  UNL1        0.0031
     34 C           5.3583   43.6509    9.2888 C.ar    1  UNL1        0.0369
@<TRIPOS>BOND
     1    17    15    1
     2    18    19   ar
     3    14    19    1
     4    14    11    1
     5     7    11    1
     6     7     8    1
     7     8     9    1
     8     9    12    1
     9    10    11   am
    10     2     3   ar
    11     4     5   ar
    12     5    24    1
    13    27    23    1
    14    27    28    1
    15    29    28    1
    16    30    31   ar
    17    32    33   ar
    18    34    29   ar
    19     6     1   ar
    20    20    16    1
    21    20    21   ar
    22    22    17   ar
    23    12    10   am
    24    12     1    1
    25    24    23   am
    26    17    18   ar
    27    19    20   ar
    28    10    13    2
    29     1     2   ar
    30     3     4   ar
    31     5     6   ar
    32    23    25    2
    33    29    30   ar
    34    31    32   ar
    35    33    34   ar
    36    21    22   ar
    37    24    26    1
@<TRIPOS>MOLECULE
MolPort-006-579-806 ChemDiv-V016-7939 MCULE-7327860342 PubChem-46040770 ZINC37544436
 34 37 0 0 0
SMALL
GASTEIGER

@<TRIPOS>ATOM
      1 C          10.4202   41.1907   10.9957 C.ar    1  UNL1        0.0565
      2 C          10.1262   41.0549   12.3625 C.ar    1  UNL1        0.0150
      3 C           8.8405   41.3114   12.8437 C.ar    1  UNL1        0.0026
      4 C           7.8313   41.7026   11.9621 C.ar    1  UNL1        0.0148
      5 C           8.1006   41.8384   10.5932 C.ar    1  UNL1        0.0516
      6 C           9.3913   41.5805   10.1218 C.ar    1  UNL1        0.0296
      7 C          14.1054   39.8002    9.2340 C.3     1  UNL1        0.0971
      8 C          13.1751   38.9534   10.0932 C.3     1  UNL1        0.0435
      9 C          12.5395   39.8523   11.1457 C.3     1  UNL1        0.1015
     10 C          12.3077   41.5522    9.3425 C.2     1  UNL1        0.3112
     11 N          13.3758   40.9112    8.6262 N.am    1  UNL1       -0.2595
     12 N          11.7481   40.9049   10.5042 N.am    1  UNL1       -0.2430
     13 O          11.8607   42.6632    8.9461 O.2     1  UNL1       -0.2520
     14 C          13.6832   41.2890    7.2525 C.3     1  UNL1        0.1240
     15 F          18.0901   42.9167    8.5848 F       1  UNL1       -0.2042
     16 F          13.4144   43.7383    5.7889 F       1  UNL1       -0.2044
     17 C          16.9385   43.1147    7.8998 C.ar    1  UNL1        0.1400
     18 C          15.9300   42.1478    7.9342 C.ar    1  UNL1        0.0293
     19 C          14.7370   42.3490    7.2300 C.ar    1  UNL1        0.0274
     20 C          14.5608   43.5230    6.4806 C.ar    1  UNL1        0.1379
     21 C          15.5724   44.4881    6.4481 C.ar    1  UNL1        0.0317
     22 C          16.7599   44.2848    7.1568 C.ar    1  UNL1        0.0319
     23 C           7.0480   43.4657    8.9158 C.2     1  UNL1        0.2707
     24 N           7.0917   42.2395    9.6564 N.am    1  UNL1       -0.2808
     25 O           7.9245   44.3564    9.0723 O.2     1  UNL1       -0.2707
     26 H           6.3523   41.6070    9.5064 H       1  UNL1        0.1550
     27 C           5.9258   43.7052    7.9713 C.3     1  UNL1        0.2897
     28 O           5.7497   42.5648    7.1410 O.3     1  UNL1       -0.4656
     29 C           6.8189   41.7784    6.7041 C.ar    1  UNL1        0.1393
     30 C           6.7262   40.3778    6.6414 C.ar    1  UNL1        0.0369
     31 C           7.8133   39.6193    6.1977 C.ar    1  UNL1        0.0031
     32 C           8.9983   40.2539    5.8151 C.ar    1  UNL1        0.0002
     33 C           9.0963   41.6465    5.8769 C.ar    1  UNL1        0.0031
     34 C           8.0089   42.4058    6.3195 C.ar    1  UNL1        0.0369
@<TRIPOS>BOND
     1    17    15    1
     2    18    19   ar
     3    14    19    1
     4    14    11    1
     5     7    11    1
     6     7     8    1
     7     8     9    1
     8     9    12    1
     9    10    11   am
    10     2     3   ar
    11     4     5   ar
    12     5    24    1
    13    27    23    1
    14    27    28    1
    15    29    28    1
    16    30    31   ar
    17    32    33   ar
    18    34    29   ar
    19     6     1   ar
    20    20    16    1
    21    20    21   ar
    22    22    17   ar
    23    12    10   am
    24    12     1    1
    25    24    23   am
    26    17    18   ar
    27    19    20   ar
    28    10    13    2
    29     1     2   ar
    30     3     4   ar
    31     5     6   ar
    32    23    25    2
    33    29    30   ar
    34    31    32   ar
    35    33    34   ar
    36    21    22   ar
    37    24    26    1
@<TRIPOS>MOLECULE
MolPort-006-579-806 ChemDiv-V016-7939 MCULE-7327860342 PubChem-46040770 ZINC37544436
 34 37 0 0 0
SMALL
GASTEIGER

@<TRIPOS>ATOM
      1 C           9.9886   41.0460   10.7204 C.ar    1  UNL1        0.0565
      2 C          10.3448   40.9623   12.0765 C.ar    1  UNL1        0.0150
      3 C           9.4409   41.3320   13.0747 C.ar    1  UNL1        0.0026
      4 C           8.1669   41.7857   12.7285 C.ar    1  UNL1        0.0148
      5 C           7.7878   41.8714   11.3817 C.ar    1  UNL1        0.0516
      6 C           8.7006   41.5001   10.3899 C.ar    1  UNL1        0.0296
      7 C          12.2386   39.7718    7.2660 C.3     1  UNL1        0.0971
      8 C          11.0526   39.0223    7.8599 C.3     1  UNL1        0.0435
      9 C          11.0631   39.2221    9.3697 C.3     1  UNL1        0.1015
     10 C          11.6722   41.5901    8.9049 C.2     1  UNL1        0.3112
     11 N          12.1843   41.1878    7.6240 N.am    1  UNL1       -0.2595
     12 N          10.9234   40.6434    9.6953 N.am    1  UNL1       -0.2430
     13 O          11.8685   42.7646    9.3215 O.2     1  UNL1       -0.2520
     14 C          12.5635   42.1819    6.6278 C.3     1  UNL1        0.1240
     15 F          16.9394   41.5703    8.7068 F       1  UNL1       -0.2042
     16 F          13.6541   44.5505    5.4388 F       1  UNL1       -0.2044
     17 C          16.1278   42.3003    7.9049 C.ar    1  UNL1        0.1400
     18 C          14.8067   41.8958    7.6935 C.ar    1  UNL1        0.0293
     19 C          13.9632   42.6482    6.8678 C.ar    1  UNL1        0.0274
     20 C          14.4524   43.8071    6.2445 C.ar    1  UNL1        0.1379
     21 C          15.7749   44.2086    6.4580 C.ar    1  UNL1        0.0317
     22 C          16.6119   43.4566    7.2873 C.ar    1  UNL1        0.0319
     23 C           5.2478   41.6339   11.1343 C.2     1  UNL1        0.2707
     24 N           6.4895   42.3338   10.9857 N.am    1  UNL1       -0.2808
     25 O           5.2055   40.4709   11.6158 O.2     1  UNL1       -0.2707
     26 H           6.4467   43.2245   10.5684 H       1  UNL1        0.1550
     27 C           3.9897   42.2799   10.6774 C.3     1  UNL1        0.2897
     28 O           4.2233   42.9675    9.4552 O.3     1  UNL1       -0.4656
     29 C           5.1684   42.5402    8.5189 C.ar    1  UNL1        0.1393
     30 C           5.3643   41.1774    8.2389 C.ar    1  UNL1        0.0369
     31 C           6.3164   40.7821    7.2949 C.ar    1  UNL1        0.0031
     32 C           7.0784   41.7442    6.6261 C.ar    1  UNL1        0.0002
     33 C           6.8886   43.1009    6.9019 C.ar    1  UNL1        0.0031
     34 C           5.9355   43.4969    7.8451 C.ar    1  UNL1        0.0369
@<TRIPOS>BOND
     1    17    15    1
     2    18    19   ar
     3    14    19    1
     4    14    11    1
     5     7    11    1
     6     7     8    1
     7     8     9    1
     8     9    12    1
     9    10    11   am
    10     2     3   ar
    11     4     5   ar
    12     5    24    1
    13    27    23    1
    14    27    28    1
    15    29    28    1
    16    30    31   ar
    17    32    33   ar
    18    34    29   ar
    19     6     1   ar
    20    20    16    1
    21    20    21   ar
    22    22    17   ar
    23    12    10   am
    24    12     1    1
    25    24    23   am
    26    17    18   ar
    27    19    20   ar
    28    10    13    2
    29     1     2   ar
    30     3     4   ar
    31     5     6   ar
    32    23    25    2
    33    29    30   ar
    34    31    32   ar
    35    33    34   ar
    36    21    22   ar
    37    24    26    1
@<TRIPOS>MOLECULE
MolPort-006-579-806 ChemDiv-V016-7939 MCULE-7327860342 PubChem-46040770 ZINC37544436
 34 37 0 0 0
SMALL
GASTEIGER

@<TRIPOS>ATOM
      1 C           9.3111   40.6536    8.0117 C.ar    1  UNL1        0.0565
      2 C           9.1646   39.5898    7.1062 C.ar    1  UNL1        0.0150
      3 C           7.9501   39.3734    6.4517 C.ar    1  UNL1        0.0026
      4 C           6.8680   40.2221    6.6915 C.ar    1  UNL1        0.0148
      5 C           6.9935   41.2937    7.5863 C.ar    1  UNL1        0.0516
      6 C           8.2133   41.5009    8.2375 C.ar    1  UNL1        0.0296
      7 C          13.0973   40.6682   10.0812 C.3     1  UNL1        0.0971
      8 C          11.8144   40.0426   10.6136 C.3     1  UNL1        0.0435
      9 C          10.6351   40.8783   10.1335 C.3     1  UNL1        0.1015
     10 C          11.8179   41.0260    7.9486 C.2     1  UNL1        0.3112
     11 N          13.0586   40.7603    8.6231 N.am    1  UNL1       -0.2595
     12 N          10.5767   40.8812    8.6698 N.am    1  UNL1       -0.2430
     13 O          11.8214   41.3693    6.7347 O.2     1  UNL1       -0.2520
     14 C          14.2729   40.4817    7.8666 C.3     1  UNL1        0.1240
     15 F          15.3639   44.9711    6.2853 F       1  UNL1       -0.2042
     16 F          16.6212   40.6754    9.4979 F       1  UNL1       -0.2044
     17 C          15.6696   43.9122    7.0727 C.ar    1  UNL1        0.1400
     18 C          14.8579   42.7745    7.0598 C.ar    1  UNL1        0.0293
     19 C          15.1710   41.6766    7.8698 C.ar    1  UNL1        0.0274
     20 C          16.2997   41.7261    8.7032 C.ar    1  UNL1        0.1379
     21 C          17.1093   42.8664    8.7139 C.ar    1  UNL1        0.0317
     22 C          16.7952   43.9583    7.8996 C.ar    1  UNL1        0.0319
     23 C           5.7990   43.5579    7.4590 C.2     1  UNL1        0.2707
     24 N           5.9051   42.1863    7.8605 N.am    1  UNL1       -0.2808
     25 O           6.7294   44.1302    6.8320 O.2     1  UNL1       -0.2707
     26 H           5.1527   41.8187    8.3782 H       1  UNL1        0.1550
     27 C           4.5819   44.3297    7.8218 C.3     1  UNL1        0.2897
     28 O           4.2877   44.1367    9.1992 O.3     1  UNL1       -0.4656
     29 C           4.1001   42.8703    9.7593 C.ar    1  UNL1        0.1393
     30 C           3.0716   42.0174    9.3249 C.ar    1  UNL1        0.0369
     31 C           2.9115   40.7553    9.9041 C.ar    1  UNL1        0.0031
     32 C           3.7761   40.3381   10.9200 C.ar    1  UNL1        0.0002
     33 C           4.7998   41.1831   11.3568 C.ar    1  UNL1        0.0031
     34 C           4.9611   42.4451   10.7770 C.ar    1  UNL1        0.0369
@<TRIPOS>BOND
     1    17    15    1
     2    18    19   ar
     3    14    19    1
     4    14    11    1
     5     7    11    1
     6     7     8    1
     7     8     9    1
     8     9    12    1
     9    10    11   am
    10     2     3   ar
    11     4     5   ar
    12     5    24    1
    13    27    23    1
    14    27    28    1
    15    29    28    1
    16    30    31   ar
    17    32    33   ar
    18    34    29   ar
    19     6     1   ar
    20    20    16    1
    21    20    21   ar
    22    22    17   ar
    23    12    10   am
    24    12     1    1
    25    24    23   am
    26    17    18   ar
    27    19    20   ar
    28    10    13    2
    29     1     2   ar
    30     3     4   ar
    31     5     6   ar
    32    23    25    2
    33    29    30   ar
    34    31    32   ar
    35    33    34   ar
    36    21    22   ar
    37    24    26    1
@<TRIPOS>MOLECULE
MolPort-006-579-806 ChemDiv-V016-7939 MCULE-7327860342 PubChem-46040770 ZINC37544436
 34 37 0 0 0
SMALL
GASTEIGER

@<TRIPOS>ATOM
      1 C          10.2242   41.5623    9.0338 C.ar    1  UNL1        0.0565
      2 C           9.7977   41.0595   10.2741 C.ar    1  UNL1        0.0150
      3 C          10.7053   40.4609   11.1505 C.ar    1  UNL1        0.0026
      4 C          12.0526   40.3621   10.7987 C.ar    1  UNL1        0.0148
      5 C          12.5016   40.8626    9.5687 C.ar    1  UNL1        0.0516
      6 C          11.5846   41.4589    8.6979 C.ar    1  UNL1        0.0296
      7 C           7.0242   42.9156    6.4752 C.3     1  UNL1        0.0971
      8 C           7.7058   41.5568    6.3754 C.3     1  UNL1        0.0435
      9 C           9.1700   41.7225    6.7604 C.3     1  UNL1        0.1015
     10 C           8.3710   43.2296    8.5729 C.2     1  UNL1        0.3112
     11 N           7.1699   43.4671    7.8208 N.am    1  UNL1       -0.2595
     12 N           9.2817   42.1969    8.1418 N.am    1  UNL1       -0.2430
     13 O           8.6134   43.9124    9.6056 O.2     1  UNL1       -0.2520
     14 C           6.0438   44.1729    8.4191 C.3     1  UNL1        0.1240
     15 F           5.5830   40.5224   11.6295 F       1  UNL1       -0.2042
     16 F           3.1822   44.1620    8.2615 F       1  UNL1       -0.2044
     17 C           4.9973   41.4183   10.7995 C.ar    1  UNL1        0.1400
     18 C           5.7858   42.2954   10.0495 C.ar    1  UNL1        0.0293
     19 C           5.1852   43.2213    9.1883 C.ar    1  UNL1        0.0274
     20 C           3.7859   43.2720    9.0875 C.ar    1  UNL1        0.1379
     21 C           3.0001   42.3931    9.8398 C.ar    1  UNL1        0.0317
     22 C           3.6046   41.4670   10.6947 C.ar    1  UNL1        0.0319
     23 C          14.9338   40.1137    9.8732 C.2     1  UNL1        0.2707
     24 N          13.8766   40.7787    9.1704 N.am    1  UNL1       -0.2808
     25 O          14.7312   39.5536   10.9829 O.2     1  UNL1       -0.2707
     26 H          14.1195   41.2241    8.3267 H       1  UNL1        0.1550
     27 C          16.3041   40.1170    9.2977 C.3     1  UNL1        0.2897
     28 O          16.8741   41.4126    9.4304 O.3     1  UNL1       -0.4656
     29 C          16.8495   42.3558    8.3998 C.ar    1  UNL1        0.1393
     30 C          15.7431   42.4826    7.5431 C.ar    1  UNL1        0.0369
     31 C          15.7483   43.4378    6.5226 C.ar    1  UNL1        0.0031
     32 C          16.8575   44.2708    6.3510 C.ar    1  UNL1        0.0002
     33 C          17.9612   44.1478    7.1993 C.ar    1  UNL1        0.0031
     34 C          17.9559   43.1934    8.2210 C.ar    1  UNL1        0.0369
@<TRIPOS>BOND
     1    17    15    1
     2    18    19   ar
     3    14    19    1
     4    14    11    1
     5     7    11    1
     6     7     8    1
     7     8     9    1
     8     9    12    1
     9    10    11   am
    10     2     3   ar
    11     4     5   ar
    12     5    24    1
    13    27    23    1
    14    27    28    1
    15    29    28    1
    16    30    31   ar
    17    32    33   ar
    18    34    29   ar
    19     6     1   ar
    20    20    16    1
    21    20    21   ar
    22    22    17   ar
    23    12    10   am
    24    12     1    1
    25    24    23   am
    26    17    18   ar
    27    19    20   ar
    28    10    13    2
    29     1     2   ar
    30     3     4   ar
    31     5     6   ar
    32    23    25    2
    33    29    30   ar
    34    31    32   ar
    35    33    34   ar
    36    21    22   ar
    37    24    26    1
