@<TRIPOS>MOLECULE
MolPort-002-840-837 4666441 LN01230451 MCULE-8278033649 PubChem-7314039 ZINC000004666441 ZINC04666441
 28 30 0 0 0
SMALL
GASTEIGER

@<TRIPOS>ATOM
      1 C          10.9067   42.0580   10.2819 C.3     1  UNL1        0.0324
      2 C          10.8630   41.7933    8.8157 C.ar    1  UNL1       -0.0053
      3 C           9.6917   41.3400    8.1687 C.ar    1  UNL1        0.0467
      4 C           9.6831   41.2187    6.7757 C.ar    1  UNL1        0.0175
      5 C          10.8295   41.5034    6.0317 C.ar    1  UNL1        0.0389
      6 C          12.0003   41.9354    6.6720 C.ar    1  UNL1        0.1485
      7 C          12.0062   42.0774    8.0619 C.ar    1  UNL1        0.0346
      8 C           7.4793   42.0138    9.2272 C.2     1  UNL1        0.2517
      9 N           8.4823   41.0501    8.8813 N.am    1  UNL1       -0.2806
     10 O           7.7367   43.2454    9.1313 O.2     1  UNL1       -0.2697
     11 H           8.3287   40.1168    9.1543 H       1  UNL1        0.1552
     12 C           6.1590   41.5804    9.7396 C.ar    1  UNL1        0.0811
     13 C           5.9567   41.2094   11.0872 C.ar    1  UNL1        0.1445
     14 C           4.6896   40.8057   11.5208 C.ar    1  UNL1        0.0298
     15 C           3.6173   40.7653   10.6280 C.ar    1  UNL1        0.0023
     16 C           3.8072   41.1287    9.2943 C.ar    1  UNL1        0.0003
     17 C           5.0697   41.5328    8.8544 C.ar    1  UNL1        0.0068
     18 F           6.9696   41.2301   11.9886 F       1  UNL1       -0.2040
     19 O          13.1768   42.2052    5.9601 O.3     1  UNL1       -0.4210
     20 C          14.0024   43.3196    6.1660 C.2     1  UNL1        0.3479
     21 O          13.6954   44.4038    5.6031 O.2     1  UNL1       -0.2444
     22 C          15.2573   43.2315    6.9491 C.ar    1  UNL1        0.1034
     23 C          16.2394   44.2406    6.8817 C.ar    1  UNL1        0.1463
     24 C          17.4228   44.1177    7.6169 C.ar    1  UNL1        0.0299
     25 C          17.6430   42.9928    8.4146 C.ar    1  UNL1        0.0023
     26 C          16.6793   41.9848    8.4797 C.ar    1  UNL1        0.0004
     27 C          15.4951   42.1031    7.7485 C.ar    1  UNL1        0.0087
     28 F          16.0514   45.3516    6.1264 F       1  UNL1       -0.2040
@<TRIPOS>BOND
     1     1     2    1
     2     3     9    1
     3     3     4   ar
     4     8    12    1
     5    13    18    1
     6    13    14   ar
     7    15    16   ar
     8    17    12   ar
     9     5     6   ar
    10     6    19    1
    11    20    19    1
    12    20    22    1
    13    23    28    1
    14    23    24   ar
    15    25    26   ar
    16    27    22   ar
    17     7     2   ar
    18     9     8   am
    19     2     3   ar
    20     8    10    2
    21    12    13   ar
    22    14    15   ar
    23    16    17   ar
    24     4     5   ar
    25     6     7   ar
    26    20    21    2
    27    22    23   ar
    28    24    25   ar
    29    26    27   ar
    30     9    11    1
@<TRIPOS>MOLECULE
MolPort-002-840-837 4666441 LN01230451 MCULE-8278033649 PubChem-7314039 ZINC000004666441 ZINC04666441
 28 30 0 0 0
SMALL
GASTEIGER

@<TRIPOS>ATOM
      1 C          10.6861   42.3987   10.3465 C.3     1  UNL1        0.0324
      2 C          10.6616   42.0935    8.8877 C.ar    1  UNL1       -0.0053
      3 C           9.4706   41.7431    8.2134 C.ar    1  UNL1        0.0467
      4 C           9.4936   41.5792    6.8250 C.ar    1  UNL1        0.0175
      5 C          10.6863   41.7204    6.1135 C.ar    1  UNL1        0.0389
      6 C          11.8748   42.0496    6.7817 C.ar    1  UNL1        0.1485
      7 C          11.8514   42.2343    8.1665 C.ar    1  UNL1        0.0346
      8 C           7.2680   42.6575    9.0974 C.2     1  UNL1        0.2517
      9 N           8.2156   41.6021    8.8914 N.am    1  UNL1       -0.2806
     10 O           7.6134   43.8549    8.8992 O.2     1  UNL1       -0.2697
     11 H           7.9868   40.7114    9.2428 H       1  UNL1        0.1552
     12 C           5.9008   42.3619    9.5844 C.ar    1  UNL1        0.0811
     13 C           4.7518   42.9525    9.0138 C.ar    1  UNL1        0.1445
     14 C           3.4824   42.6411    9.5119 C.ar    1  UNL1        0.0298
     15 C           3.3404   41.7470   10.5744 C.ar    1  UNL1        0.0023
     16 C           4.4695   41.1591   11.1457 C.ar    1  UNL1        0.0003
     17 C           5.7401   41.4655   10.6535 C.ar    1  UNL1        0.0068
     18 F           4.8421   43.8288    7.9828 F       1  UNL1       -0.2040
     19 O          13.0950   42.1739    6.1039 O.3     1  UNL1       -0.4210
     20 C          13.9675   43.2659    6.2146 C.2     1  UNL1        0.3479
     21 O          13.6956   44.3163    5.5748 O.2     1  UNL1       -0.2444
     22 C          15.2297   43.1856    6.9868 C.ar    1  UNL1        0.1034
     23 C          16.2075   44.1979    6.9064 C.ar    1  UNL1        0.1463
     24 C          17.3978   44.0825    7.6314 C.ar    1  UNL1        0.0299
     25 C          17.6292   42.9617    8.4318 C.ar    1  UNL1        0.0023
     26 C          16.6699   41.9506    8.5099 C.ar    1  UNL1        0.0004
     27 C          15.4787   42.0615    7.7887 C.ar    1  UNL1        0.0087
     28 F          16.0087   45.3051    6.1480 F       1  UNL1       -0.2040
@<TRIPOS>BOND
     1     1     2    1
     2     3     9    1
     3     3     4   ar
     4     8    12    1
     5    13    18    1
     6    13    14   ar
     7    15    16   ar
     8    17    12   ar
     9     5     6   ar
    10     6    19    1
    11    20    19    1
    12    20    22    1
    13    23    28    1
    14    23    24   ar
    15    25    26   ar
    16    27    22   ar
    17     7     2   ar
    18     9     8   am
    19     2     3   ar
    20     8    10    2
    21    12    13   ar
    22    14    15   ar
    23    16    17   ar
    24     4     5   ar
    25     6     7   ar
    26    20    21    2
    27    22    23   ar
    28    24    25   ar
    29    26    27   ar
    30     9    11    1
@<TRIPOS>MOLECULE
MolPort-002-840-837 4666441 LN01230451 MCULE-8278033649 PubChem-7314039 ZINC000004666441 ZINC04666441
 28 30 0 0 0
SMALL
GASTEIGER

@<TRIPOS>ATOM
      1 C           8.8080   40.0325    6.2573 C.3     1  UNL1        0.0324
      2 C           9.8350   40.8869    6.9183 C.ar    1  UNL1       -0.0053
      3 C           9.6722   41.3753    8.2339 C.ar    1  UNL1        0.0467
      4 C          10.7204   42.0766    8.8378 C.ar    1  UNL1        0.0175
      5 C          11.9018   42.3280    8.1379 C.ar    1  UNL1        0.0389
      6 C          12.0601   41.8612    6.8247 C.ar    1  UNL1        0.1485
      7 C          11.0226   41.1424    6.2255 C.ar    1  UNL1        0.0346
      8 C           7.3710   42.0244    9.1012 C.2     1  UNL1        0.2517
      9 N           8.4881   41.1317    9.0040 N.am    1  UNL1       -0.2806
     10 O           7.4845   43.2139    8.6955 O.2     1  UNL1       -0.2697
     11 H           8.4382   40.2857    9.5050 H       1  UNL1        0.1552
     12 C           6.0984   41.5793    9.7145 C.ar    1  UNL1        0.0811
     13 C           5.9978   41.2374   11.0811 C.ar    1  UNL1        0.1445
     14 C           4.7723   40.8210   11.6115 C.ar    1  UNL1        0.0298
     15 C           3.6415   40.7394   10.7971 C.ar    1  UNL1        0.0023
     16 C           3.7309   41.0739    9.4455 C.ar    1  UNL1        0.0003
     17 C           4.9513   41.4904    8.9091 C.ar    1  UNL1        0.0068
     18 F           7.0704   41.2985   11.9087 F       1  UNL1       -0.2040
     19 O          13.2213   42.1171    6.0831 O.3     1  UNL1       -0.4210
     20 C          14.0354   43.2490    6.2307 C.2     1  UNL1        0.3479
     21 O          13.7046   44.3063    5.6314 O.2     1  UNL1       -0.2444
     22 C          15.3045   43.2076    6.9946 C.ar    1  UNL1        0.1034
     23 C          16.2601   44.2387    6.8909 C.ar    1  UNL1        0.1463
     24 C          17.4578   44.1598    7.6087 C.ar    1  UNL1        0.0299
     25 C          17.7186   43.0571    8.4249 C.ar    1  UNL1        0.0023
     26 C          16.7814   42.0274    8.5261 C.ar    1  UNL1        0.0004
     27 C          15.5830   42.1018    7.8123 C.ar    1  UNL1        0.0087
     28 F          16.0325   45.3292    6.1167 F       1  UNL1       -0.2040
@<TRIPOS>BOND
     1     1     2    1
     2     3     9    1
     3     3     4   ar
     4     8    12    1
     5    13    18    1
     6    13    14   ar
     7    15    16   ar
     8    17    12   ar
     9     5     6   ar
    10     6    19    1
    11    20    19    1
    12    20    22    1
    13    23    28    1
    14    23    24   ar
    15    25    26   ar
    16    27    22   ar
    17     7     2   ar
    18     9     8   am
    19     2     3   ar
    20     8    10    2
    21    12    13   ar
    22    14    15   ar
    23    16    17   ar
    24     4     5   ar
    25     6     7   ar
    26    20    21    2
    27    22    23   ar
    28    24    25   ar
    29    26    27   ar
    30     9    11    1
@<TRIPOS>MOLECULE
MolPort-002-840-837 4666441 LN01230451 MCULE-8278033649 PubChem-7314039 ZINC000004666441 ZINC04666441
 28 30 0 0 0
SMALL
GASTEIGER

@<TRIPOS>ATOM
      1 C          12.3619   41.7288    9.9902 C.3     1  UNL1        0.0324
      2 C          13.0616   40.4579    9.6483 C.ar    1  UNL1       -0.0053
      3 C          12.6148   39.6100    8.6104 C.ar    1  UNL1        0.0467
      4 C          13.3786   38.4908    8.2648 C.ar    1  UNL1        0.0175
      5 C          14.5500   38.1888    8.9614 C.ar    1  UNL1        0.0389
      6 C          14.9870   39.0175   10.0052 C.ar    1  UNL1        0.1485
      7 C          14.2371   40.1480   10.3397 C.ar    1  UNL1        0.0346
      8 C          10.1903   39.1727    7.9780 C.2     1  UNL1        0.2517
      9 N          11.4295   39.8816    7.8515 N.am    1  UNL1       -0.2806
     10 O          10.1565   38.0815    8.6109 O.2     1  UNL1       -0.2697
     11 H          11.4698   40.6117    7.1923 H       1  UNL1        0.1552
     12 C           8.9577   39.6837    7.3352 C.ar    1  UNL1        0.0811
     13 C           7.9738   38.8242    6.7987 C.ar    1  UNL1        0.1445
     14 C           6.8277   39.3575    6.2000 C.ar    1  UNL1        0.0298
     15 C           6.6470   40.7397    6.1271 C.ar    1  UNL1        0.0023
     16 C           7.6138   41.5973    6.6531 C.ar    1  UNL1        0.0003
     17 C           8.7608   41.0718    7.2523 C.ar    1  UNL1        0.0068
     18 F           8.1087   37.4755    6.8441 F       1  UNL1       -0.2040
     19 O          16.1436   38.7312   10.7430 O.3     1  UNL1       -0.4210
     20 C          16.7614   37.4745   10.8121 C.2     1  UNL1        0.3479
     21 O          16.6806   36.8264   11.8891 O.2     1  UNL1       -0.2444
     22 C          17.5694   36.9357    9.6928 C.ar    1  UNL1        0.1034
     23 C          17.1043   35.8702    8.8954 C.ar    1  UNL1        0.1463
     24 C          17.8999   35.3701    7.8597 C.ar    1  UNL1        0.0299
     25 C          19.1617   35.9159    7.6142 C.ar    1  UNL1        0.0023
     26 C          19.6333   36.9651    8.4050 C.ar    1  UNL1        0.0004
     27 C          18.8422   37.4693    9.4400 C.ar    1  UNL1        0.0087
     28 F          15.8786   35.3259    9.0996 F       1  UNL1       -0.2040
@<TRIPOS>BOND
     1     1     2    1
     2     3     9    1
     3     3     4   ar
     4     8    12    1
     5    13    18    1
     6    13    14   ar
     7    15    16   ar
     8    17    12   ar
     9     5     6   ar
    10     6    19    1
    11    20    19    1
    12    20    22    1
    13    23    28    1
    14    23    24   ar
    15    25    26   ar
    16    27    22   ar
    17     7     2   ar
    18     9     8   am
    19     2     3   ar
    20     8    10    2
    21    12    13   ar
    22    14    15   ar
    23    16    17   ar
    24     4     5   ar
    25     6     7   ar
    26    20    21    2
    27    22    23   ar
    28    24    25   ar
    29    26    27   ar
    30     9    11    1
@<TRIPOS>MOLECULE
MolPort-002-840-837 4666441 LN01230451 MCULE-8278033649 PubChem-7314039 ZINC000004666441 ZINC04666441
 28 30 0 0 0
SMALL
GASTEIGER

@<TRIPOS>ATOM
      1 C           8.1450   40.7576    6.3416 C.3     1  UNL1        0.0324
      2 C           9.3066   41.3074    7.0967 C.ar    1  UNL1       -0.0053
      3 C           9.2320   41.6086    8.4749 C.ar    1  UNL1        0.0467
      4 C          10.3875   42.0147    9.1498 C.ar    1  UNL1        0.0175
      5 C          11.5950   42.1603    8.4647 C.ar    1  UNL1        0.0389
      6 C          11.6689   41.8806    7.0923 C.ar    1  UNL1        0.1485
      7 C          10.5210   41.4549    6.4190 C.ar    1  UNL1        0.0346
      8 C           7.0296   42.4788    9.4029 C.2     1  UNL1        0.2517
      9 N           8.0231   41.4603    9.2306 N.am    1  UNL1       -0.2806
     10 O           7.2968   43.6717    9.0898 O.2     1  UNL1       -0.2697
     11 H           7.8629   40.5914    9.6650 H       1  UNL1        0.1552
     12 C           5.7078   42.1547    9.9873 C.ar    1  UNL1        0.0811
     13 C           4.4976   42.5962    9.4085 C.ar    1  UNL1        0.1445
     14 C           3.2747   42.2642   10.0009 C.ar    1  UNL1        0.0298
     15 C           3.2398   41.4964   11.1662 C.ar    1  UNL1        0.0023
     16 C           4.4301   41.0565   11.7463 C.ar    1  UNL1        0.0003
     17 C           5.6547   41.3843   11.1603 C.ar    1  UNL1        0.0068
     18 F           4.4834   43.3467    8.2790 F       1  UNL1       -0.2040
     19 O          12.8574   42.0405    6.3671 O.3     1  UNL1       -0.4210
     20 C          13.8644   42.9678    6.6701 C.2     1  UNL1        0.3479
     21 O          13.7449   44.1442    6.2360 O.2     1  UNL1       -0.2444
     22 C          15.0912   42.5805    7.4055 C.ar    1  UNL1        0.1034
     23 C          16.3126   43.2558    7.2069 C.ar    1  UNL1        0.1463
     24 C          17.4580   42.8523    7.9006 C.ar    1  UNL1        0.0299
     25 C          17.4017   41.7744    8.7867 C.ar    1  UNL1        0.0023
     26 C          16.1982   41.0947    8.9823 C.ar    1  UNL1        0.0004
     27 C          15.0510   41.4943    8.2929 C.ar    1  UNL1        0.0087
     28 F          16.3985   44.3143    6.3628 F       1  UNL1       -0.2040
@<TRIPOS>BOND
     1     1     2    1
     2     3     9    1
     3     3     4   ar
     4     8    12    1
     5    13    18    1
     6    13    14   ar
     7    15    16   ar
     8    17    12   ar
     9     5     6   ar
    10     6    19    1
    11    20    19    1
    12    20    22    1
    13    23    28    1
    14    23    24   ar
    15    25    26   ar
    16    27    22   ar
    17     7     2   ar
    18     9     8   am
    19     2     3   ar
    20     8    10    2
    21    12    13   ar
    22    14    15   ar
    23    16    17   ar
    24     4     5   ar
    25     6     7   ar
    26    20    21    2
    27    22    23   ar
    28    24    25   ar
    29    26    27   ar
    30     9    11    1
@<TRIPOS>MOLECULE
MolPort-002-840-837 4666441 LN01230451 MCULE-8278033649 PubChem-7314039 ZINC000004666441 ZINC04666441
 28 30 0 0 0
SMALL
GASTEIGER

@<TRIPOS>ATOM
      1 C          13.2080   41.5462    7.5481 C.3     1  UNL1        0.0324
      2 C          13.2524   40.9009    8.8910 C.ar    1  UNL1       -0.0053
      3 C          12.0949   40.7369    9.6843 C.ar    1  UNL1        0.0467
      4 C          12.1832   40.0235   10.8837 C.ar    1  UNL1        0.0175
      5 C          13.4077   39.5113   11.3161 C.ar    1  UNL1        0.0389
      6 C          14.5630   39.6885   10.5407 C.ar    1  UNL1        0.1485
      7 C          14.4745   40.3830    9.3315 C.ar    1  UNL1        0.0346
      8 C          10.3225   42.5536    9.5187 C.2     1  UNL1        0.2517
      9 N          10.8098   41.2269    9.2807 N.am    1  UNL1       -0.2806
     10 O          10.9251   43.3034   10.3354 O.2     1  UNL1       -0.2697
     11 H          10.2157   40.6038    8.8030 H       1  UNL1        0.1552
     12 C           9.0929   43.0387    8.8508 C.ar    1  UNL1        0.0811
     13 C           8.3572   44.1436    9.3332 C.ar    1  UNL1        0.1445
     14 C           7.2008   44.5612    8.6664 C.ar    1  UNL1        0.0298
     15 C           6.7645   43.8915    7.5220 C.ar    1  UNL1        0.0023
     16 C           7.4837   42.7981    7.0381 C.ar    1  UNL1        0.0003
     17 C           8.6393   42.3755    7.6989 C.ar    1  UNL1        0.0068
     18 F           8.7415   44.8220   10.4427 F       1  UNL1       -0.2040
     19 O          15.8134   39.2108   10.9556 O.3     1  UNL1       -0.4210
     20 C          16.1497   37.8569   11.0956 C.2     1  UNL1        0.3479
     21 O          15.9979   37.3161   12.2230 O.2     1  UNL1       -0.2444
     22 C          16.7525   37.0802    9.9868 C.ar    1  UNL1        0.1034
     23 C          18.1486   36.9200    9.8743 C.ar    1  UNL1        0.1463
     24 C          18.6878   36.1989    8.8041 C.ar    1  UNL1        0.0299
     25 C          17.8490   35.6411    7.8368 C.ar    1  UNL1        0.0023
     26 C          16.4660   35.8029    7.9361 C.ar    1  UNL1        0.0004
     27 C          15.9222   36.5210    9.0036 C.ar    1  UNL1        0.0087
     28 F          18.9902   37.4385   10.8033 F       1  UNL1       -0.2040
@<TRIPOS>BOND
     1     1     2    1
     2     3     9    1
     3     3     4   ar
     4     8    12    1
     5    13    18    1
     6    13    14   ar
     7    15    16   ar
     8    17    12   ar
     9     5     6   ar
    10     6    19    1
    11    20    19    1
    12    20    22    1
    13    23    28    1
    14    23    24   ar
    15    25    26   ar
    16    27    22   ar
    17     7     2   ar
    18     9     8   am
    19     2     3   ar
    20     8    10    2
    21    12    13   ar
    22    14    15   ar
    23    16    17   ar
    24     4     5   ar
    25     6     7   ar
    26    20    21    2
    27    22    23   ar
    28    24    25   ar
    29    26    27   ar
    30     9    11    1
@<TRIPOS>MOLECULE
MolPort-002-840-837 4666441 LN01230451 MCULE-8278033649 PubChem-7314039 ZINC000004666441 ZINC04666441
 28 30 0 0 0
SMALL
GASTEIGER

@<TRIPOS>ATOM
      1 C          11.3958   40.4564    5.6347 C.3     1  UNL1        0.0324
      2 C          10.9669   40.8755    6.9993 C.ar    1  UNL1       -0.0053
      3 C          11.8564   41.4847    7.9124 C.ar    1  UNL1        0.0467
      4 C          11.3657   41.9568    9.1337 C.ar    1  UNL1        0.0175
      5 C          10.0201   41.7946    9.4681 C.ar    1  UNL1        0.0389
      6 C           9.1376   41.1732    8.5723 C.ar    1  UNL1        0.1485
      7 C           9.6203   40.7186    7.3424 C.ar    1  UNL1        0.0346
      8 C          13.7704   42.8084    6.8860 C.2     1  UNL1        0.2517
      9 N          13.2429   41.6921    7.6138 N.am    1  UNL1       -0.2806
     10 O          12.9880   43.5607    6.2423 O.2     1  UNL1       -0.2697
     11 H          13.8824   41.0153    7.9335 H       1  UNL1        0.1552
     12 C          15.2289   43.0625    6.8436 C.ar    1  UNL1        0.0811
     13 C          15.8296   43.8473    5.8347 C.ar    1  UNL1        0.1445
     14 C          17.2127   44.0557    5.8387 C.ar    1  UNL1        0.0298
     15 C          18.0092   43.4912    6.8364 C.ar    1  UNL1        0.0023
     16 C          17.4254   42.7133    7.8368 C.ar    1  UNL1        0.0003
     17 C          16.0449   42.5009    7.8391 C.ar    1  UNL1        0.0068
     18 F          15.0959   44.4124    4.8441 F       1  UNL1       -0.2040
     19 O           7.7867   40.9701    8.8849 O.3     1  UNL1       -0.4210
     20 C           7.0150   41.8128    9.6974 C.2     1  UNL1        0.3479
     21 O           7.1070   41.6876   10.9473 O.2     1  UNL1       -0.2444
     22 C           6.0426   42.7753    9.1281 C.ar    1  UNL1        0.1034
     23 C           4.6700   42.7079    9.4426 C.ar    1  UNL1        0.1463
     24 C           3.7743   43.6178    8.8722 C.ar    1  UNL1        0.0299
     25 C           4.2311   44.5922    7.9821 C.ar    1  UNL1        0.0023
     26 C           5.5873   44.6600    7.6585 C.ar    1  UNL1        0.0004
     27 C           6.4865   43.7543    8.2264 C.ar    1  UNL1        0.0087
     28 F           4.1956   41.7816   10.3128 F       1  UNL1       -0.2040
@<TRIPOS>BOND
     1     1     2    1
     2     3     9    1
     3     3     4   ar
     4     8    12    1
     5    13    18    1
     6    13    14   ar
     7    15    16   ar
     8    17    12   ar
     9     5     6   ar
    10     6    19    1
    11    20    19    1
    12    20    22    1
    13    23    28    1
    14    23    24   ar
    15    25    26   ar
    16    27    22   ar
    17     7     2   ar
    18     9     8   am
    19     2     3   ar
    20     8    10    2
    21    12    13   ar
    22    14    15   ar
    23    16    17   ar
    24     4     5   ar
    25     6     7   ar
    26    20    21    2
    27    22    23   ar
    28    24    25   ar
    29    26    27   ar
    30     9    11    1
@<TRIPOS>MOLECULE
MolPort-002-840-837 4666441 LN01230451 MCULE-8278033649 PubChem-7314039 ZINC000004666441 ZINC04666441
 28 30 0 0 0
SMALL
GASTEIGER

@<TRIPOS>ATOM
      1 C           5.3010   43.7205    8.0986 C.3     1  UNL1        0.0324
      2 C           4.8353   42.7771    9.1545 C.ar    1  UNL1       -0.0053
      3 C           5.6163   41.6788    9.5783 C.ar    1  UNL1        0.0467
      4 C           5.1736   40.8979   10.6504 C.ar    1  UNL1        0.0175
      5 C           3.9546   41.1728   11.2727 C.ar    1  UNL1        0.0389
      6 C           3.1671   42.2508   10.8425 C.ar    1  UNL1        0.1485
      7 C           3.6161   43.0457    9.7848 C.ar    1  UNL1        0.0346
      8 C           7.0612   40.7138    7.7209 C.2     1  UNL1        0.2517
      9 N           6.8828   41.3617    8.9868 N.am    1  UNL1       -0.2806
     10 O           6.0782   40.1547    7.1610 O.2     1  UNL1       -0.2697
     11 H           7.6930   41.6079    9.4891 H       1  UNL1        0.1552
     12 C           8.3969   40.6538    7.0837 C.ar    1  UNL1        0.0811
     13 C           9.1633   39.4680    7.0467 C.ar    1  UNL1        0.1445
     14 C          10.4206   39.4645    6.4337 C.ar    1  UNL1        0.0298
     15 C          10.9277   40.6294    5.8555 C.ar    1  UNL1        0.0023
     16 C          10.1788   41.8062    5.8879 C.ar    1  UNL1        0.0003
     17 C           8.9226   41.8171    6.4983 C.ar    1  UNL1        0.0068
     18 F           8.7123   38.3142    7.5982 F       1  UNL1       -0.2040
     19 O           1.9264   42.5405   11.4262 O.3     1  UNL1       -0.4210
     20 C           1.5696   42.2349   12.7473 C.2     1  UNL1        0.3479
     21 O           2.2985   41.4376   13.3949 O.2     1  UNL1       -0.2444
     22 C           0.3251   42.7529   13.3628 C.ar    1  UNL1        0.1034
     23 C           0.3021   43.9805   14.0555 C.ar    1  UNL1        0.1463
     24 C          -0.8837   44.4318   14.6437 C.ar    1  UNL1        0.0299
     25 C          -2.0489   43.6669   14.5566 C.ar    1  UNL1        0.0023
     26 C          -2.0323   42.4458   13.8802 C.ar    1  UNL1        0.0004
     27 C          -0.8509   41.9910   13.2897 C.ar    1  UNL1        0.0087
     28 F           1.4132   44.7534   14.1480 F       1  UNL1       -0.2040
@<TRIPOS>BOND
     1     1     2    1
     2     3     9    1
     3     3     4   ar
     4     8    12    1
     5    13    18    1
     6    13    14   ar
     7    15    16   ar
     8    17    12   ar
     9     5     6   ar
    10     6    19    1
    11    20    19    1
    12    20    22    1
    13    23    28    1
    14    23    24   ar
    15    25    26   ar
    16    27    22   ar
    17     7     2   ar
    18     9     8   am
    19     2     3   ar
    20     8    10    2
    21    12    13   ar
    22    14    15   ar
    23    16    17   ar
    24     4     5   ar
    25     6     7   ar
    26    20    21    2
    27    22    23   ar
    28    24    25   ar
    29    26    27   ar
    30     9    11    1
@<TRIPOS>MOLECULE
MolPort-002-840-837 4666441 LN01230451 MCULE-8278033649 PubChem-7314039 ZINC000004666441 ZINC04666441
 28 30 0 0 0
SMALL
GASTEIGER

@<TRIPOS>ATOM
      1 C          12.3603   41.6658    7.1702 C.3     1  UNL1        0.0324
      2 C          12.3876   41.1344    8.5626 C.ar    1  UNL1       -0.0053
      3 C          11.2179   41.0215    9.3467 C.ar    1  UNL1        0.0467
      4 C          11.2926   40.4110   10.6025 C.ar    1  UNL1        0.0175
      5 C          12.5148   39.9521   11.0968 C.ar    1  UNL1        0.0389
      6 C          13.6819   40.0796   10.3293 C.ar    1  UNL1        0.1485
      7 C          13.6074   40.6706    9.0654 C.ar    1  UNL1        0.0346
      8 C           9.4119   42.7853    9.0359 C.2     1  UNL1        0.2517
      9 N           9.9347   41.4598    8.8819 N.am    1  UNL1       -0.2806
     10 O           9.9737   43.5904    9.8287 O.2     1  UNL1       -0.2697
     11 H           9.3687   40.7990    8.4211 H       1  UNL1        0.1552
     12 C           8.1921   43.2063    8.3090 C.ar    1  UNL1        0.0811
     13 C           7.8870   42.7391    7.0116 C.ar    1  UNL1        0.1445
     14 C           6.7223   43.1688    6.3673 C.ar    1  UNL1        0.0298
     15 C           5.8540   44.0610    6.9986 C.ar    1  UNL1        0.0023
     16 C           6.1471   44.5293    8.2799 C.ar    1  UNL1        0.0003
     17 C           7.3084   44.1045    8.9293 C.ar    1  UNL1        0.0068
     18 F           8.7028   41.8745    6.3588 F       1  UNL1       -0.2040
     19 O          14.9300   39.6541   10.8038 O.3     1  UNL1       -0.4210
     20 C          15.2063   38.3718   11.2988 C.2     1  UNL1        0.3479
     21 O          15.9461   38.2684   12.3129 O.2     1  UNL1       -0.2444
     22 C          14.7261   37.1476   10.6156 C.ar    1  UNL1        0.1034
     23 C          15.4286   36.5872    9.5293 C.ar    1  UNL1        0.1463
     24 C          14.9379   35.4431    8.8920 C.ar    1  UNL1        0.0299
     25 C          13.7465   34.8541    9.3209 C.ar    1  UNL1        0.0023
     26 C          13.0402   35.4081   10.3900 C.ar    1  UNL1        0.0004
     27 C          13.5265   36.5499   11.0309 C.ar    1  UNL1        0.0087
     28 F          16.5950   37.1275    9.0960 F       1  UNL1       -0.2040
@<TRIPOS>BOND
     1     1     2    1
     2     3     9    1
     3     3     4   ar
     4     8    12    1
     5    13    18    1
     6    13    14   ar
     7    15    16   ar
     8    17    12   ar
     9     5     6   ar
    10     6    19    1
    11    20    19    1
    12    20    22    1
    13    23    28    1
    14    23    24   ar
    15    25    26   ar
    16    27    22   ar
    17     7     2   ar
    18     9     8   am
    19     2     3   ar
    20     8    10    2
    21    12    13   ar
    22    14    15   ar
    23    16    17   ar
    24     4     5   ar
    25     6     7   ar
    26    20    21    2
    27    22    23   ar
    28    24    25   ar
    29    26    27   ar
    30     9    11    1
@<TRIPOS>MOLECULE
MolPort-002-840-837 4666441 LN01230451 MCULE-8278033649 PubChem-7314039 ZINC000004666441 ZINC04666441
 28 30 0 0 0
SMALL
GASTEIGER

@<TRIPOS>ATOM
      1 C          10.7807   41.0047    7.0332 C.3     1  UNL1        0.0324
      2 C          11.7076   40.7851    8.1796 C.ar    1  UNL1       -0.0053
      3 C          11.2379   40.5205    9.4855 C.ar    1  UNL1        0.0467
      4 C          12.1567   40.2120   10.4934 C.ar    1  UNL1        0.0175
      5 C          13.5268   40.2032   10.2261 C.ar    1  UNL1        0.0389
      6 C          13.9983   40.4841    8.9354 C.ar    1  UNL1        0.1485
      7 C          13.0819   40.7727    7.9209 C.ar    1  UNL1        0.0346
      8 C           9.0017   41.6562    9.9080 C.2     1  UNL1        0.2517
      9 N           9.8423   40.4994    9.8116 N.am    1  UNL1       -0.2806
     10 O           9.5221   42.8050    9.9510 O.2     1  UNL1       -0.2697
     11 H           9.4291   39.6223    9.9826 H       1  UNL1        0.1552
     12 C           7.5303   41.5160   10.0037 C.ar    1  UNL1        0.0811
     13 C           6.8446   41.5767   11.2369 C.ar    1  UNL1        0.1445
     14 C           5.4534   41.4366   11.2734 C.ar    1  UNL1        0.0298
     15 C           4.7326   41.2357   10.0950 C.ar    1  UNL1        0.0023
     16 C           5.4010   41.1730    8.8718 C.ar    1  UNL1        0.0003
     17 C           6.7900   41.3120    8.8278 C.ar    1  UNL1        0.0068
     18 F           7.5038   41.7670   12.4067 F       1  UNL1       -0.2040
     19 O          15.3673   40.5098    8.6367 O.3     1  UNL1       -0.4210
     20 C          16.1514   41.6698    8.5623 C.2     1  UNL1        0.3479
     21 O          17.0308   41.8552    9.4448 O.2     1  UNL1       -0.2444
     22 C          15.9155   42.7108    7.5344 C.ar    1  UNL1        0.1034
     23 C          16.8061   43.7898    7.3617 C.ar    1  UNL1        0.1463
     24 C          16.5442   44.7678    6.3968 C.ar    1  UNL1        0.0299
     25 C          15.3965   44.6870    5.6053 C.ar    1  UNL1        0.0023
     26 C          14.5049   43.6265    5.7763 C.ar    1  UNL1        0.0004
     27 C          14.7623   42.6463    6.7377 C.ar    1  UNL1        0.0087
     28 F          17.9361   43.8913    8.1054 F       1  UNL1       -0.2040
@<TRIPOS>BOND
     1     1     2    1
     2     3     9    1
     3     3     4   ar
     4     8    12    1
     5    13    18    1
     6    13    14   ar
     7    15    16   ar
     8    17    12   ar
     9     5     6   ar
    10     6    19    1
    11    20    19    1
    12    20    22    1
    13    23    28    1
    14    23    24   ar
    15    25    26   ar
    16    27    22   ar
    17     7     2   ar
    18     9     8   am
    19     2     3   ar
    20     8    10    2
    21    12    13   ar
    22    14    15   ar
    23    16    17   ar
    24     4     5   ar
    25     6     7   ar
    26    20    21    2
    27    22    23   ar
    28    24    25   ar
    29    26    27   ar
    30     9    11    1
