@<TRIPOS>MOLECULE
MolPort-003-121-662 9058316 CSSS03437103792 MCULE-8574513420 PubChem-16939933 ZINC000009058316 ZINC09058316
 32 35 0 0 0
SMALL
GASTEIGER

@<TRIPOS>ATOM
      1 C          14.4469   41.1849    8.3127 C.ar    1  UNL1        0.2135
      2 C          13.4930   41.8987    7.5870 C.ar    1  UNL1        0.1110
      3 C          14.1983   42.9165    6.9844 C.ar    1  UNL1        0.1322
      4 C          14.7262   44.7538    5.6287 C.ar    1  UNL1        0.0991
      5 C          16.0785   44.6647    6.0300 C.ar    1  UNL1        0.0238
      6 C          16.4817   43.6548    6.9219 C.ar    1  UNL1        0.0407
      7 C          15.4998   42.7822    7.3777 C.ar    1  UNL1        0.1644
      8 O          15.6377   41.7479    8.1742 O.2     1  UNL1       -0.4460
      9 N          13.7989   43.8705    6.1072 N.ar    1  UNL1       -0.2394
     10 C          14.2134   39.9807    9.1215 C.2     1  UNL1        0.2856
     11 O          14.6586   39.9149   10.2988 O.2     1  UNL1       -0.2664
     12 N          13.4761   38.8914    8.5494 N.am    1  UNL1       -0.2755
     13 H          13.1610   39.0162    7.6251 H       1  UNL1        0.1554
     14 C          14.0410   36.5381    9.1076 C.ar    1  UNL1        0.1520
     15 C          13.1450   37.6394    9.1707 C.ar    1  UNL1        0.0851
     16 C          11.9263   37.4869    9.8519 C.ar    1  UNL1        0.0178
     17 C          11.5896   36.2784   10.4610 C.ar    1  UNL1        0.0015
     18 C          12.4696   35.2005   10.3978 C.ar    1  UNL1        0.0032
     19 C          13.6848   35.3330    9.7256 C.ar    1  UNL1        0.0382
     20 C          16.5491   36.6190    9.1031 C.3     1  UNL1        0.2525
     21 O          15.2853   36.5683    8.4570 O.3     1  UNL1       -0.4702
     22 C          11.0634   41.7871    8.3727 C.2     1  UNL1        0.2518
     23 O          11.3460   42.0894    9.5638 O.2     1  UNL1       -0.2697
     24 N          12.1126   41.5455    7.4278 N.am    1  UNL1       -0.2765
     25 H          11.8621   41.0941    6.5896 H       1  UNL1        0.1553
     26 C           9.6443   41.6306    7.9777 C.ar    1  UNL1        0.0811
     27 C           9.2126   41.7722    6.6402 C.ar    1  UNL1        0.1445
     28 C           7.8602   41.6155    6.3195 C.ar    1  UNL1        0.0298
     29 C           6.9278   41.3194    7.3153 C.ar    1  UNL1        0.0023
     30 C           7.3440   41.1785    8.6395 C.ar    1  UNL1        0.0003
     31 C           8.6930   41.3335    8.9670 C.ar    1  UNL1        0.0068
     32 F          10.0821   42.0614    5.6404 F       1  UNL1       -0.2040
@<TRIPOS>BOND
     1    20    21    1
     2    14    21    1
     3    15    12    1
     4    15    16   ar
     5    10     1    1
     6     1     8   ar
     7     2    24    1
     8     2     3   ar
     9    22    26    1
    10    27    32    1
    11    27    28   ar
    12    29    30   ar
    13    31    26   ar
    14     4     9   ar
    15     5     6   ar
    16     7     8   ar
    17     7     3   ar
    18    17    18   ar
    19    19    14   ar
    20    12    10   am
    21    24    22   am
    22    14    15   ar
    23    10    11    2
    24     1     2   ar
    25    22    23    2
    26    26    27   ar
    27    28    29   ar
    28    30    31   ar
    29     3     9   ar
    30     4     5   ar
    31     6     7   ar
    32    16    17   ar
    33    18    19   ar
    34    12    13    1
    35    24    25    1
@<TRIPOS>MOLECULE
MolPort-003-121-662 9058316 CSSS03437103792 MCULE-8574513420 PubChem-16939933 ZINC000009058316 ZINC09058316
 32 35 0 0 0
SMALL
GASTEIGER

@<TRIPOS>ATOM
      1 C          13.9121   42.1734    7.3000 C.ar    1  UNL1        0.2135
      2 C          14.9859   41.4708    7.8472 C.ar    1  UNL1        0.1110
      3 C          16.0576   42.3294    7.7437 C.ar    1  UNL1        0.1322
      4 C          18.2051   43.2395    7.9722 C.ar    1  UNL1        0.0991
      5 C          17.7746   44.4232    7.3307 C.ar    1  UNL1        0.0238
      6 C          16.4393   44.5470    6.9070 C.ar    1  UNL1        0.0407
      7 C          15.5968   43.4660    7.1416 C.ar    1  UNL1        0.1644
      8 O          14.3154   43.3618    6.8765 O.2     1  UNL1       -0.4460
      9 N          17.3361   42.2045    8.1784 N.ar    1  UNL1       -0.2394
     10 C          12.5230   41.7073    7.1911 C.2     1  UNL1        0.2856
     11 O          11.6155   42.2643    7.8654 O.2     1  UNL1       -0.2664
     12 N          12.2233   40.6153    6.3107 N.am    1  UNL1       -0.2755
     13 H          12.9841   40.2314    5.8176 H       1  UNL1        0.1554
     14 C          10.2875   39.2603    7.0759 C.ar    1  UNL1        0.1520
     15 C          10.9403   40.0177    6.0660 C.ar    1  UNL1        0.0851
     16 C          10.3114   40.1752    4.8201 C.ar    1  UNL1        0.0178
     17 C           9.0655   39.6021    4.5662 C.ar    1  UNL1        0.0015
     18 C           8.4277   38.8603    5.5578 C.ar    1  UNL1        0.0032
     19 C           9.0369   38.6929    6.8016 C.ar    1  UNL1        0.0382
     20 C          10.4891   37.9341    9.1967 C.3     1  UNL1        0.2525
     21 O          10.8145   39.0329    8.3576 O.3     1  UNL1       -0.4702
     22 C          14.0533   39.8191    9.5602 C.2     1  UNL1        0.2518
     23 O          13.4632   40.7125   10.2261 O.2     1  UNL1       -0.2697
     24 N          14.9215   40.1869    8.4817 N.am    1  UNL1       -0.2765
     25 H          15.5318   39.4920    8.1443 H       1  UNL1        0.1553
     26 C          13.8839   38.3969    9.9383 C.ar    1  UNL1        0.0811
     27 C          13.7697   37.9814   11.2835 C.ar    1  UNL1        0.1445
     28 C          13.6123   36.6253   11.5878 C.ar    1  UNL1        0.0298
     29 C          13.5672   35.6732   10.5680 C.ar    1  UNL1        0.0023
     30 C          13.6801   36.0733    9.2362 C.ar    1  UNL1        0.0003
     31 C          13.8374   37.4258    8.9250 C.ar    1  UNL1        0.0068
     32 F          13.8100   38.8704   12.3070 F       1  UNL1       -0.2040
@<TRIPOS>BOND
     1    20    21    1
     2    14    21    1
     3    15    12    1
     4    15    16   ar
     5    10     1    1
     6     1     8   ar
     7     2    24    1
     8     2     3   ar
     9    22    26    1
    10    27    32    1
    11    27    28   ar
    12    29    30   ar
    13    31    26   ar
    14     4     9   ar
    15     5     6   ar
    16     7     8   ar
    17     7     3   ar
    18    17    18   ar
    19    19    14   ar
    20    12    10   am
    21    24    22   am
    22    14    15   ar
    23    10    11    2
    24     1     2   ar
    25    22    23    2
    26    26    27   ar
    27    28    29   ar
    28    30    31   ar
    29     3     9   ar
    30     4     5   ar
    31     6     7   ar
    32    16    17   ar
    33    18    19   ar
    34    12    13    1
    35    24    25    1
@<TRIPOS>MOLECULE
MolPort-003-121-662 9058316 CSSS03437103792 MCULE-8574513420 PubChem-16939933 ZINC000009058316 ZINC09058316
 32 35 0 0 0
SMALL
GASTEIGER

@<TRIPOS>ATOM
      1 C          14.5101   41.2882    8.2530 C.ar    1  UNL1        0.2135
      2 C          13.5425   42.0077    7.5514 C.ar    1  UNL1        0.1110
      3 C          14.2399   43.0149    6.9225 C.ar    1  UNL1        0.1322
      4 C          14.7462   44.8392    5.5413 C.ar    1  UNL1        0.0991
      5 C          16.1087   44.7386    5.9033 C.ar    1  UNL1        0.0238
      6 C          16.5278   43.7296    6.7889 C.ar    1  UNL1        0.0407
      7 C          15.5510   42.8696    7.2783 C.ar    1  UNL1        0.1644
      8 O          15.7020   41.8384    8.0764 O.2     1  UNL1       -0.4460
      9 N          13.8246   43.9681    6.0519 N.ar    1  UNL1       -0.2394
     10 C          14.2885   40.0910    9.0752 C.2     1  UNL1        0.2856
     11 O          14.7365   40.0417   10.2523 O.2     1  UNL1       -0.2664
     12 N          13.5593   38.9893    8.5166 N.am    1  UNL1       -0.2755
     13 H          13.2412   39.1014    7.5916 H       1  UNL1        0.1554
     14 C          11.9023   37.4364    9.5223 C.ar    1  UNL1        0.1520
     15 C          13.2401   37.7414    9.1521 C.ar    1  UNL1        0.0851
     16 C          14.2502   36.8022    9.4165 C.ar    1  UNL1        0.0178
     17 C          13.9573   35.5855   10.0322 C.ar    1  UNL1        0.0015
     18 C          12.6453   35.2890   10.3941 C.ar    1  UNL1        0.0032
     19 C          11.6284   36.2095   10.1395 C.ar    1  UNL1        0.0382
     20 C           9.9642   38.2795    8.1695 C.3     1  UNL1        0.2525
     21 O          10.8094   38.2926    9.3109 O.3     1  UNL1       -0.4702
     22 C          11.1222   41.9935    8.3729 C.2     1  UNL1        0.2518
     23 O          11.4257   42.3747    9.5358 O.2     1  UNL1       -0.2697
     24 N          12.1546   41.6676    7.4348 N.am    1  UNL1       -0.2765
     25 H          11.8856   41.1621    6.6340 H       1  UNL1        0.1553
     26 C           9.6956   41.8336    8.0075 C.ar    1  UNL1        0.0811
     27 C           9.2463   41.9014    6.6701 C.ar    1  UNL1        0.1445
     28 C           7.8875   41.7448    6.3779 C.ar    1  UNL1        0.0298
     29 C           6.9659   41.5212    7.4023 C.ar    1  UNL1        0.0023
     30 C           7.3995   41.4535    8.7267 C.ar    1  UNL1        0.0003
     31 C           8.7550   41.6089    9.0257 C.ar    1  UNL1        0.0068
     32 F          10.1048   42.1187    5.6429 F       1  UNL1       -0.2040
@<TRIPOS>BOND
     1    20    21    1
     2    14    21    1
     3    15    12    1
     4    15    16   ar
     5    10     1    1
     6     1     8   ar
     7     2    24    1
     8     2     3   ar
     9    22    26    1
    10    27    32    1
    11    27    28   ar
    12    29    30   ar
    13    31    26   ar
    14     4     9   ar
    15     5     6   ar
    16     7     8   ar
    17     7     3   ar
    18    17    18   ar
    19    19    14   ar
    20    12    10   am
    21    24    22   am
    22    14    15   ar
    23    10    11    2
    24     1     2   ar
    25    22    23    2
    26    26    27   ar
    27    28    29   ar
    28    30    31   ar
    29     3     9   ar
    30     4     5   ar
    31     6     7   ar
    32    16    17   ar
    33    18    19   ar
    34    12    13    1
    35    24    25    1
@<TRIPOS>MOLECULE
MolPort-003-121-662 9058316 CSSS03437103792 MCULE-8574513420 PubChem-16939933 ZINC000009058316 ZINC09058316
 32 35 0 0 0
SMALL
GASTEIGER

@<TRIPOS>ATOM
      1 C          13.3433   42.2607    7.1104 C.ar    1  UNL1        0.2135
      2 C          14.2756   41.4402    7.7458 C.ar    1  UNL1        0.1110
      3 C          15.4510   42.1571    7.7198 C.ar    1  UNL1        0.1322
      4 C          17.6716   42.7974    8.1088 C.ar    1  UNL1        0.0991
      5 C          17.4433   44.0137    7.4259 C.ar    1  UNL1        0.0238
      6 C          16.1705   44.2948    6.8977 C.ar    1  UNL1        0.0407
      7 C          15.1838   43.3311    7.0742 C.ar    1  UNL1        0.1644
      8 O          13.9236   43.3821    6.7102 O.2     1  UNL1       -0.4460
      9 N          16.6666   41.8821    8.2545 N.ar    1  UNL1       -0.2394
     10 C          11.9193   41.9689    6.8966 C.2     1  UNL1        0.2856
     11 O          11.4961   41.7038    5.7394 O.2     1  UNL1       -0.2664
     12 N          11.0287   41.9921    8.0207 N.am    1  UNL1       -0.2755
     13 H          11.4325   42.2074    8.8924 H       1  UNL1        0.1554
     14 C           9.0995   40.5053    7.5344 C.ar    1  UNL1        0.1520
     15 C           9.6151   41.7373    8.0202 C.ar    1  UNL1        0.0851
     16 C           8.7204   42.7064    8.5025 C.ar    1  UNL1        0.0178
     17 C           7.3451   42.4749    8.5096 C.ar    1  UNL1        0.0015
     18 C           6.8423   41.2664    8.0330 C.ar    1  UNL1        0.0032
     19 C           7.7156   40.2917    7.5500 C.ar    1  UNL1        0.0382
     20 C           9.5898   38.6844    5.8787 C.3     1  UNL1        0.2525
     21 O           9.8919   39.4621    7.0282 O.3     1  UNL1       -0.4702
     22 C          13.1634   39.9833    9.5272 C.2     1  UNL1        0.2518
     23 O          12.8190   40.9666   10.2373 O.2     1  UNL1       -0.2697
     24 N          14.0023   40.1857    8.3837 N.am    1  UNL1       -0.2765
     25 H          14.4319   39.3876    7.9995 H       1  UNL1        0.1553
     26 C          12.7401   38.6185    9.9178 C.ar    1  UNL1        0.0811
     27 C          13.6104   37.7143   10.5660 C.ar    1  UNL1        0.1445
     28 C          13.1617   36.4358   10.9131 C.ar    1  UNL1        0.0298
     29 C          11.8542   36.0429   10.6224 C.ar    1  UNL1        0.0023
     30 C          10.9871   36.9284    9.9815 C.ar    1  UNL1        0.0003
     31 C          11.4283   38.2067    9.6321 C.ar    1  UNL1        0.0068
     32 F          14.8892   38.0515   10.8665 F       1  UNL1       -0.2040
@<TRIPOS>BOND
     1    20    21    1
     2    14    21    1
     3    15    12    1
     4    15    16   ar
     5    10     1    1
     6     1     8   ar
     7     2    24    1
     8     2     3   ar
     9    22    26    1
    10    27    32    1
    11    27    28   ar
    12    29    30   ar
    13    31    26   ar
    14     4     9   ar
    15     5     6   ar
    16     7     8   ar
    17     7     3   ar
    18    17    18   ar
    19    19    14   ar
    20    12    10   am
    21    24    22   am
    22    14    15   ar
    23    10    11    2
    24     1     2   ar
    25    22    23    2
    26    26    27   ar
    27    28    29   ar
    28    30    31   ar
    29     3     9   ar
    30     4     5   ar
    31     6     7   ar
    32    16    17   ar
    33    18    19   ar
    34    12    13    1
    35    24    25    1
@<TRIPOS>MOLECULE
MolPort-003-121-662 9058316 CSSS03437103792 MCULE-8574513420 PubChem-16939933 ZINC000009058316 ZINC09058316
 32 35 0 0 0
SMALL
GASTEIGER

@<TRIPOS>ATOM
      1 C          10.7796   41.5138    7.5990 C.ar    1  UNL1        0.2135
      2 C          10.4017   40.1718    7.6498 C.ar    1  UNL1        0.1110
      3 C           9.1153   40.1495    7.1589 C.ar    1  UNL1        0.1322
      4 C           7.0471   39.3672    6.3827 C.ar    1  UNL1        0.0991
      5 C           6.6551   40.6919    6.0840 C.ar    1  UNL1        0.0238
      6 C           7.5411   41.7577    6.3229 C.ar    1  UNL1        0.0407
      7 C           8.7832   41.4410    6.8618 C.ar    1  UNL1        0.1644
      8 O           9.7818   42.2491    7.1319 O.2     1  UNL1       -0.4460
      9 N           8.2806   39.1094    6.9126 N.ar    1  UNL1       -0.2394
     10 C          12.0798   42.0745    7.9909 C.2     1  UNL1        0.2856
     11 O          12.1310   43.0791    8.7503 O.2     1  UNL1       -0.2664
     12 N          13.2786   41.4619    7.4959 N.am    1  UNL1       -0.2755
     13 H          13.1585   40.6816    6.9077 H       1  UNL1        0.1554
     14 C          15.1915   43.0042    7.1343 C.ar    1  UNL1        0.1520
     15 C          14.6342   41.8564    7.7601 C.ar    1  UNL1        0.0851
     16 C          15.4297   41.1100    8.6447 C.ar    1  UNL1        0.0178
     17 C          16.7475   41.4795    8.9127 C.ar    1  UNL1        0.0015
     18 C          17.2914   42.6050    8.2980 C.ar    1  UNL1        0.0032
     19 C          16.5165   43.3590    7.4164 C.ar    1  UNL1        0.0382
     20 C          15.0077   45.0163    5.6460 C.3     1  UNL1        0.2525
     21 O          14.4973   43.8281    6.2334 O.3     1  UNL1       -0.4702
     22 C          11.5537   38.6575    9.3564 C.2     1  UNL1        0.2518
     23 O          11.3240   39.4317   10.3247 O.2     1  UNL1       -0.2697
     24 N          11.2410   39.0703    8.0208 N.am    1  UNL1       -0.2765
     25 H          11.6404   38.5479    7.2880 H       1  UNL1        0.1553
     26 C          12.1977   37.3474    9.6078 C.ar    1  UNL1        0.0811
     27 C          13.4666   37.0164    9.0827 C.ar    1  UNL1        0.1445
     28 C          14.0309   35.7646    9.3488 C.ar    1  UNL1        0.0298
     29 C          13.3472   34.8338   10.1328 C.ar    1  UNL1        0.0023
     30 C          12.0930   35.1507   10.6554 C.ar    1  UNL1        0.0003
     31 C          11.5234   36.3990   10.3938 C.ar    1  UNL1        0.0068
     32 F          14.1663   37.8880    8.3145 F       1  UNL1       -0.2040
@<TRIPOS>BOND
     1    20    21    1
     2    14    21    1
     3    15    12    1
     4    15    16   ar
     5    10     1    1
     6     1     8   ar
     7     2    24    1
     8     2     3   ar
     9    22    26    1
    10    27    32    1
    11    27    28   ar
    12    29    30   ar
    13    31    26   ar
    14     4     9   ar
    15     5     6   ar
    16     7     8   ar
    17     7     3   ar
    18    17    18   ar
    19    19    14   ar
    20    12    10   am
    21    24    22   am
    22    14    15   ar
    23    10    11    2
    24     1     2   ar
    25    22    23    2
    26    26    27   ar
    27    28    29   ar
    28    30    31   ar
    29     3     9   ar
    30     4     5   ar
    31     6     7   ar
    32    16    17   ar
    33    18    19   ar
    34    12    13    1
    35    24    25    1
@<TRIPOS>MOLECULE
MolPort-003-121-662 9058316 CSSS03437103792 MCULE-8574513420 PubChem-16939933 ZINC000009058316 ZINC09058316
 32 35 0 0 0
SMALL
GASTEIGER

@<TRIPOS>ATOM
      1 C          13.8256   41.4085    7.6698 C.ar    1  UNL1        0.2135
      2 C          13.0238   42.3685    7.0520 C.ar    1  UNL1        0.1110
      3 C          13.9060   43.3201    6.5909 C.ar    1  UNL1        0.1322
      4 C          14.7698   45.2036    5.4962 C.ar    1  UNL1        0.0991
      5 C          16.0783   44.8276    5.8762 C.ar    1  UNL1        0.0238
      6 C          16.2834   43.6520    6.6205 C.ar    1  UNL1        0.0407
      7 C          15.1567   42.9099    6.9570 C.ar    1  UNL1        0.1644
      8 O          15.0982   41.7696    7.6046 O.2     1  UNL1       -0.4460
      9 N          13.6947   44.4385    5.8536 N.ar    1  UNL1       -0.2394
     10 C          13.3717   40.1653    8.3079 C.2     1  UNL1        0.2856
     11 O          12.1394   39.9412    8.4485 O.2     1  UNL1       -0.2664
     12 N          14.3502   39.2208    8.7638 N.am    1  UNL1       -0.2755
     13 H          15.2928   39.4656    8.6194 H       1  UNL1        0.1554
     14 C          13.7731   37.8988   10.7858 C.ar    1  UNL1        0.1520
     15 C          14.1123   37.9587    9.4070 C.ar    1  UNL1        0.0851
     16 C          14.2119   36.7623    8.6782 C.ar    1  UNL1        0.0178
     17 C          13.9835   35.5285    9.2872 C.ar    1  UNL1        0.0015
     18 C          13.6511   35.4726   10.6388 C.ar    1  UNL1        0.0032
     19 C          13.5475   36.6505   11.3790 C.ar    1  UNL1        0.0382
     20 C          12.4730   39.8155   11.7520 C.3     1  UNL1        0.2525
     21 O          13.6442   39.0234   11.6171 O.3     1  UNL1       -0.4702
     22 C          10.9270   41.3670    5.9874 C.2     1  UNL1        0.2518
     23 O          11.5728   40.7343    5.1085 O.2     1  UNL1       -0.2697
     24 N          11.6066   42.2852    6.8518 N.am    1  UNL1       -0.2765
     25 H          11.0473   42.9193    7.3562 H       1  UNL1        0.1553
     26 C           9.4588   41.1935    6.0789 C.ar    1  UNL1        0.0811
     27 C           8.8400   39.9278    5.9769 C.ar    1  UNL1        0.1445
     28 C           7.4486   39.8180    6.0690 C.ar    1  UNL1        0.0298
     29 C           6.6615   40.9546    6.2614 C.ar    1  UNL1        0.0023
     30 C           7.2631   42.2094    6.3624 C.ar    1  UNL1        0.0003
     31 C           8.6519   42.3266    6.2715 C.ar    1  UNL1        0.0068
     32 F           9.5640   38.7967    5.7880 F       1  UNL1       -0.2040
@<TRIPOS>BOND
     1    20    21    1
     2    14    21    1
     3    15    12    1
     4    15    16   ar
     5    10     1    1
     6     1     8   ar
     7     2    24    1
     8     2     3   ar
     9    22    26    1
    10    27    32    1
    11    27    28   ar
    12    29    30   ar
    13    31    26   ar
    14     4     9   ar
    15     5     6   ar
    16     7     8   ar
    17     7     3   ar
    18    17    18   ar
    19    19    14   ar
    20    12    10   am
    21    24    22   am
    22    14    15   ar
    23    10    11    2
    24     1     2   ar
    25    22    23    2
    26    26    27   ar
    27    28    29   ar
    28    30    31   ar
    29     3     9   ar
    30     4     5   ar
    31     6     7   ar
    32    16    17   ar
    33    18    19   ar
    34    12    13    1
    35    24    25    1
@<TRIPOS>MOLECULE
MolPort-003-121-662 9058316 CSSS03437103792 MCULE-8574513420 PubChem-16939933 ZINC000009058316 ZINC09058316
 32 35 0 0 0
SMALL
GASTEIGER

@<TRIPOS>ATOM
      1 C          13.4262   39.5993    9.2348 C.ar    1  UNL1        0.2135
      2 C          12.0755   39.2525    9.2728 C.ar    1  UNL1        0.1110
      3 C          12.0574   37.9583    9.7429 C.ar    1  UNL1        0.1322
      4 C          11.2831   35.8944   10.5385 C.ar    1  UNL1        0.0991
      5 C          12.6160   35.4676   10.7363 C.ar    1  UNL1        0.0238
      6 C          13.6829   36.3338   10.4372 C.ar    1  UNL1        0.0407
      7 C          13.3585   37.5921    9.9425 C.ar    1  UNL1        0.1644
      8 O          14.1689   38.5771    9.6323 O.2     1  UNL1       -0.4460
      9 N          11.0179   37.1427   10.0484 N.ar    1  UNL1       -0.2394
     10 C          13.9885   40.8936    8.8256 C.2     1  UNL1        0.2856
     11 O          13.2553   41.9182    8.7921 O.2     1  UNL1       -0.2664
     12 N          15.3756   40.9668    8.4678 N.am    1  UNL1       -0.2755
     13 H          15.8838   40.1251    8.5183 H       1  UNL1        0.1554
     14 C          15.6568   42.9106    6.9475 C.ar    1  UNL1        0.1520
     15 C          16.1080   42.1275    8.0442 C.ar    1  UNL1        0.0851
     16 C          17.2845   42.5054    8.7117 C.ar    1  UNL1        0.0178
     17 C          18.0073   43.6298    8.3137 C.ar    1  UNL1        0.0015
     18 C          17.5628   44.3957    7.2384 C.ar    1  UNL1        0.0032
     19 C          16.3964   44.0360    6.5631 C.ar    1  UNL1        0.0382
     20 C          13.6271   43.6085    5.6473 C.3     1  UNL1        0.2525
     21 O          14.4984   42.6343    6.2032 O.3     1  UNL1       -0.4702
     22 C          10.3599   40.3316    7.7155 C.2     1  UNL1        0.2518
     23 O          10.9522   39.9592    6.6666 O.2     1  UNL1       -0.2697
     24 N          10.9706   40.1227    8.9944 N.am    1  UNL1       -0.2765
     25 H          10.5961   40.6243    9.7542 H       1  UNL1        0.1553
     26 C           9.0597   41.0331    7.6082 C.ar    1  UNL1        0.0811
     27 C           8.7427   41.8738    6.5182 C.ar    1  UNL1        0.1445
     28 C           7.5006   42.5145    6.4647 C.ar    1  UNL1        0.0298
     29 C           6.5660   42.3300    7.4850 C.ar    1  UNL1        0.0023
     30 C           6.8698   41.5024    8.5664 C.ar    1  UNL1        0.0003
     31 C           8.1083   40.8593    8.6264 C.ar    1  UNL1        0.0068
     32 F           9.6198   42.0841    5.5054 F       1  UNL1       -0.2040
@<TRIPOS>BOND
     1    20    21    1
     2    14    21    1
     3    15    12    1
     4    15    16   ar
     5    10     1    1
     6     1     8   ar
     7     2    24    1
     8     2     3   ar
     9    22    26    1
    10    27    32    1
    11    27    28   ar
    12    29    30   ar
    13    31    26   ar
    14     4     9   ar
    15     5     6   ar
    16     7     8   ar
    17     7     3   ar
    18    17    18   ar
    19    19    14   ar
    20    12    10   am
    21    24    22   am
    22    14    15   ar
    23    10    11    2
    24     1     2   ar
    25    22    23    2
    26    26    27   ar
    27    28    29   ar
    28    30    31   ar
    29     3     9   ar
    30     4     5   ar
    31     6     7   ar
    32    16    17   ar
    33    18    19   ar
    34    12    13    1
    35    24    25    1
@<TRIPOS>MOLECULE
MolPort-003-121-662 9058316 CSSS03437103792 MCULE-8574513420 PubChem-16939933 ZINC000009058316 ZINC09058316
 32 35 0 0 0
SMALL
GASTEIGER

@<TRIPOS>ATOM
      1 C          13.4716   39.5189    9.0744 C.ar    1  UNL1        0.2135
      2 C          12.1259   39.1927    9.2440 C.ar    1  UNL1        0.1110
      3 C          12.1311   37.8763    9.6482 C.ar    1  UNL1        0.1322
      4 C          11.4035   35.7868   10.4207 C.ar    1  UNL1        0.0991
      5 C          12.7404   35.3286   10.4487 C.ar    1  UNL1        0.0238
      6 C          13.7868   36.1917   10.0770 C.ar    1  UNL1        0.0407
      7 C          13.4379   37.4791    9.6845 C.ar    1  UNL1        0.1644
      8 O          14.2308   38.4656    9.3361 O.2     1  UNL1       -0.4460
      9 N          11.1136   37.0630   10.0257 N.ar    1  UNL1       -0.2394
     10 C          14.0139   40.8233    8.6705 C.2     1  UNL1        0.2856
     11 O          13.2446   41.8124    8.5354 O.2     1  UNL1       -0.2664
     12 N          15.4234   40.9472    8.4347 N.am    1  UNL1       -0.2755
     13 H          15.9597   40.1312    8.5602 H       1  UNL1        0.1554
     14 C          15.6549   42.9536    6.9892 C.ar    1  UNL1        0.1520
     15 C          16.1419   42.1254    8.0364 C.ar    1  UNL1        0.0851
     16 C          17.3400   42.4759    8.6798 C.ar    1  UNL1        0.0178
     17 C          18.0497   43.6168    8.3058 C.ar    1  UNL1        0.0015
     18 C          17.5702   44.4270    7.2792 C.ar    1  UNL1        0.0032
     19 C          16.3818   44.0949    6.6284 C.ar    1  UNL1        0.0382
     20 C          13.7835   43.6583    5.4730 C.3     1  UNL1        0.2525
     21 O          14.4723   42.7078    6.2727 O.3     1  UNL1       -0.4702
     22 C          10.6046   41.0532   10.1140 C.2     1  UNL1        0.2518
     23 O          11.0400   40.9729   11.2946 O.2     1  UNL1       -0.2697
     24 N          11.0165   40.0940    9.1330 N.am    1  UNL1       -0.2765
     25 H          10.4877   40.0496    8.3038 H       1  UNL1        0.1553
     26 C           9.6253   42.1096    9.7687 C.ar    1  UNL1        0.0811
     27 C           8.4764   41.8489    8.9895 C.ar    1  UNL1        0.1445
     28 C           7.5826   42.8823    8.6903 C.ar    1  UNL1        0.0298
     29 C           7.8175   44.1767    9.1572 C.ar    1  UNL1        0.0023
     30 C           8.9499   44.4447    9.9269 C.ar    1  UNL1        0.0003
     31 C           9.8467   43.4175   10.2296 C.ar    1  UNL1        0.0068
     32 F           8.2084   40.6078    8.5128 F       1  UNL1       -0.2040
@<TRIPOS>BOND
     1    20    21    1
     2    14    21    1
     3    15    12    1
     4    15    16   ar
     5    10     1    1
     6     1     8   ar
     7     2    24    1
     8     2     3   ar
     9    22    26    1
    10    27    32    1
    11    27    28   ar
    12    29    30   ar
    13    31    26   ar
    14     4     9   ar
    15     5     6   ar
    16     7     8   ar
    17     7     3   ar
    18    17    18   ar
    19    19    14   ar
    20    12    10   am
    21    24    22   am
    22    14    15   ar
    23    10    11    2
    24     1     2   ar
    25    22    23    2
    26    26    27   ar
    27    28    29   ar
    28    30    31   ar
    29     3     9   ar
    30     4     5   ar
    31     6     7   ar
    32    16    17   ar
    33    18    19   ar
    34    12    13    1
    35    24    25    1
@<TRIPOS>MOLECULE
MolPort-003-121-662 9058316 CSSS03437103792 MCULE-8574513420 PubChem-16939933 ZINC000009058316 ZINC09058316
 32 35 0 0 0
SMALL
GASTEIGER

@<TRIPOS>ATOM
      1 C          10.6869   41.5286    7.4635 C.ar    1  UNL1        0.2135
      2 C          10.4020   40.1632    7.4892 C.ar    1  UNL1        0.1110
      3 C           9.0907   40.0695    7.0790 C.ar    1  UNL1        0.1322
      4 C           7.0324   39.1741    6.4056 C.ar    1  UNL1        0.0991
      5 C           6.5358   40.4781    6.1801 C.ar    1  UNL1        0.0238
      6 C           7.3637   41.5933    6.4017 C.ar    1  UNL1        0.0407
      7 C           8.6561   41.3444    6.8502 C.ar    1  UNL1        0.1644
      8 O           9.6149   42.2092    7.0866 O.2     1  UNL1       -0.4460
      9 N           8.3119   38.9837    6.8478 N.ar    1  UNL1       -0.2394
     10 C          11.9702   42.1634    7.7936 C.2     1  UNL1        0.2856
     11 O          12.0774   42.8670    8.8338 O.2     1  UNL1       -0.2664
     12 N          13.0879   41.9686    6.9160 N.am    1  UNL1       -0.2755
     13 H          12.9273   41.4070    6.1236 H       1  UNL1        0.1554
     14 C          15.3476   41.8911    7.9439 C.ar    1  UNL1        0.1520
     15 C          14.4148   42.4993    7.0610 C.ar    1  UNL1        0.0851
     16 C          14.8093   43.6307    6.3285 C.ar    1  UNL1        0.0178
     17 C          16.0939   44.1584    6.4570 C.ar    1  UNL1        0.0015
     18 C          17.0063   43.5603    7.3230 C.ar    1  UNL1        0.0032
     19 C          16.6327   42.4356    8.0590 C.ar    1  UNL1        0.0382
     20 C          15.9659   40.1644    9.6568 C.3     1  UNL1        0.2525
     21 O          15.0711   40.7590    8.7277 O.3     1  UNL1       -0.4702
     22 C          11.8519   38.7565    9.0549 C.2     1  UNL1        0.2518
     23 O          11.7283   39.5542   10.0236 O.2     1  UNL1       -0.2697
     24 N          11.3339   39.1098    7.7669 N.am    1  UNL1       -0.2765
     25 H          11.6476   38.5787    6.9996 H       1  UNL1        0.1553
     26 C          12.5831   37.4829    9.2484 C.ar    1  UNL1        0.0811
     27 C          12.0402   36.4041    9.9811 C.ar    1  UNL1        0.1445
     28 C          12.7723   35.2224   10.1357 C.ar    1  UNL1        0.0298
     29 C          14.0423   35.0990    9.5695 C.ar    1  UNL1        0.0023
     30 C          14.5877   36.1591    8.8448 C.ar    1  UNL1        0.0003
     31 C          13.8623   37.3422    8.6863 C.ar    1  UNL1        0.0068
     32 F          10.8115   36.4794   10.5503 F       1  UNL1       -0.2040
@<TRIPOS>BOND
     1    20    21    1
     2    14    21    1
     3    15    12    1
     4    15    16   ar
     5    10     1    1
     6     1     8   ar
     7     2    24    1
     8     2     3   ar
     9    22    26    1
    10    27    32    1
    11    27    28   ar
    12    29    30   ar
    13    31    26   ar
    14     4     9   ar
    15     5     6   ar
    16     7     8   ar
    17     7     3   ar
    18    17    18   ar
    19    19    14   ar
    20    12    10   am
    21    24    22   am
    22    14    15   ar
    23    10    11    2
    24     1     2   ar
    25    22    23    2
    26    26    27   ar
    27    28    29   ar
    28    30    31   ar
    29     3     9   ar
    30     4     5   ar
    31     6     7   ar
    32    16    17   ar
    33    18    19   ar
    34    12    13    1
    35    24    25    1
@<TRIPOS>MOLECULE
MolPort-003-121-662 9058316 CSSS03437103792 MCULE-8574513420 PubChem-16939933 ZINC000009058316 ZINC09058316
 32 35 0 0 0
SMALL
GASTEIGER

@<TRIPOS>ATOM
      1 C          12.8370   39.6105    8.3095 C.ar    1  UNL1        0.2135
      2 C          11.5921   39.1868    8.7750 C.ar    1  UNL1        0.1110
      3 C          11.8338   37.9665    9.3655 C.ar    1  UNL1        0.1322
      4 C          11.5203   35.9792   10.5674 C.ar    1  UNL1        0.0991
      5 C          12.8903   35.6671   10.4140 C.ar    1  UNL1        0.0238
      6 C          13.7400   36.5527    9.7271 C.ar    1  UNL1        0.0407
      7 C          13.1680   37.7126    9.2165 C.ar    1  UNL1        0.1644
      8 O          13.7579   38.6981    8.5809 O.2     1  UNL1       -0.4460
      9 N          11.0070   37.1336   10.0451 N.ar    1  UNL1       -0.2394
     10 C          13.1320   40.8733    7.6188 C.2     1  UNL1        0.2856
     11 O          12.2342   41.4513    6.9492 O.2     1  UNL1       -0.2664
     12 N          14.4503   41.4295    7.7202 N.am    1  UNL1       -0.2755
     13 H          15.0976   40.9209    8.2601 H       1  UNL1        0.1554
     14 C          16.2756   43.0669    7.3257 C.ar    1  UNL1        0.1520
     15 C          14.9341   42.6435    7.1242 C.ar    1  UNL1        0.0851
     16 C          14.0839   43.4310    6.3308 C.ar    1  UNL1        0.0178
     17 C          14.5378   44.6122    5.7443 C.ar    1  UNL1        0.0015
     18 C          15.8532   45.0249    5.9433 C.ar    1  UNL1        0.0032
     19 C          16.7125   44.2558    6.7283 C.ar    1  UNL1        0.0382
     20 C          16.9095   41.4327    9.1214 C.3     1  UNL1        0.2525
     21 O          17.2177   42.3665    8.0966 O.3     1  UNL1       -0.4702
     22 C           9.9997   40.9885    9.6417 C.2     1  UNL1        0.2518
     23 O          10.6186   41.1312   10.7309 O.2     1  UNL1       -0.2697
     24 N          10.3736   39.9415    8.7383 N.am    1  UNL1       -0.2765
     25 H           9.7332   39.7191    8.0244 H       1  UNL1        0.1553
     26 C           8.8529   41.8741    9.3337 C.ar    1  UNL1        0.0811
     27 C           8.9517   43.2824    9.3830 C.ar    1  UNL1        0.1445
     28 C           7.8382   44.0744    9.0840 C.ar    1  UNL1        0.0298
     29 C           6.6231   43.4821    8.7359 C.ar    1  UNL1        0.0023
     30 C           6.5150   42.0920    8.6853 C.ar    1  UNL1        0.0003
     31 C           7.6228   41.2949    8.9825 C.ar    1  UNL1        0.0068
     32 F          10.1109   43.9015    9.7179 F       1  UNL1       -0.2040
@<TRIPOS>BOND
     1    20    21    1
     2    14    21    1
     3    15    12    1
     4    15    16   ar
     5    10     1    1
     6     1     8   ar
     7     2    24    1
     8     2     3   ar
     9    22    26    1
    10    27    32    1
    11    27    28   ar
    12    29    30   ar
    13    31    26   ar
    14     4     9   ar
    15     5     6   ar
    16     7     8   ar
    17     7     3   ar
    18    17    18   ar
    19    19    14   ar
    20    12    10   am
    21    24    22   am
    22    14    15   ar
    23    10    11    2
    24     1     2   ar
    25    22    23    2
    26    26    27   ar
    27    28    29   ar
    28    30    31   ar
    29     3     9   ar
    30     4     5   ar
    31     6     7   ar
    32    16    17   ar
    33    18    19   ar
    34    12    13    1
    35    24    25    1
