@<TRIPOS>MOLECULE
MolPort-006-609-839 ChemDiv-V020-0836 MCULE-3240632637 PubChem-46069923 ZINC000034735291 ZINC34735291
 29 32 0 0 0
SMALL
GASTEIGER

@<TRIPOS>ATOM
      1 C          12.6077   40.1608   10.7466 C.3     1  UNL1        0.1015
      2 C          13.3192   39.2594    9.7515 C.3     1  UNL1        0.0435
      3 C          14.0760   40.1054    8.7318 C.3     1  UNL1        0.0971
      4 C          12.0169   41.5852    8.7993 C.2     1  UNL1        0.3112
      5 N          11.6216   40.9870   10.0521 N.am    1  UNL1       -0.2430
      6 N          13.2487   41.1766    8.1730 N.am    1  UNL1       -0.2596
      7 O          11.3020   42.4715    8.2565 O.2     1  UNL1       -0.2520
      8 C           8.9715   41.3920   12.6812 C.ar    1  UNL1        0.0026
      9 C           7.8449   41.6494   11.8985 C.ar    1  UNL1        0.0148
     10 C           7.9487   41.6942   10.5014 C.ar    1  UNL1        0.0515
     11 C           9.1936   41.4805    9.9014 C.ar    1  UNL1        0.0296
     12 C          10.3398   41.2287   10.6742 C.ar    1  UNL1        0.0565
     13 C          10.2102   41.1802   12.0722 C.ar    1  UNL1        0.0150
     14 C           6.5732   43.1316    8.8838 C.2     1  UNL1        0.2256
     15 N           6.8146   41.9529    9.6626 N.am    1  UNL1       -0.2839
     16 O           7.3917   44.0925    8.8903 O.2     1  UNL1       -0.2748
     17 H           6.1301   41.2468    9.6170 H       1  UNL1        0.1549
     18 C           5.3203   43.2048    8.0636 C.3     1  UNL1        0.0768
     19 C           4.0931   43.3340    8.9464 C.3     1  UNL1        0.0091
     20 C           3.8531   44.7318    8.4094 C.3     1  UNL1        0.0010
     21 C           5.0851   44.6074    7.5340 C.3     1  UNL1        0.0091
     22 C          13.7282   41.8321    6.9616 C.3     1  UNL1        0.1217
     23 C          15.0315   42.5161    7.2113 C.ar    1  UNL1       -0.0021
     24 C          15.3500   43.6876    6.5156 C.ar    1  UNL1       -0.0003
     25 C          16.5660   44.3353    6.7540 C.ar    1  UNL1        0.0294
     26 C          17.4649   43.8128    7.6890 C.ar    1  UNL1        0.1401
     27 C          17.1481   42.6427    8.3857 C.ar    1  UNL1        0.0294
     28 C          15.9323   41.9947    8.1475 C.ar    1  UNL1       -0.0003
     29 F          18.6428   44.4404    7.9198 F       1  UNL1       -0.2042
@<TRIPOS>BOND
     1     9    10   ar
     2    10    15    1
     3    11    12   ar
     4    12     5    1
     5    13     8   ar
     6     1     5    1
     7     1     2    1
     8     2     3    1
     9     3     6    1
    10     4     5   am
    11    22     6    1
    12    22    23    1
    13    24    25   ar
    14    26    27   ar
    15    26    29    1
    16    28    23   ar
    17    18    14    1
    18    18    19    1
    19    19    20    1
    20    20    21    1
    21    21    18    1
    22     6     4   am
    23    15    14   am
    24     8     9   ar
    25    10    11   ar
    26    12    13   ar
    27     4     7    2
    28    23    24   ar
    29    25    26   ar
    30    27    28   ar
    31    14    16    2
    32    15    17    1
@<TRIPOS>MOLECULE
MolPort-006-609-839 ChemDiv-V020-0836 MCULE-3240632637 PubChem-46069923 ZINC000034735291 ZINC34735291
 29 32 0 0 0
SMALL
GASTEIGER

@<TRIPOS>ATOM
      1 C          10.6076   42.3047   10.4480 C.3     1  UNL1        0.1015
      2 C           9.6154   43.2401   11.1186 C.3     1  UNL1        0.0435
      3 C           8.3036   42.5060   11.3806 C.3     1  UNL1        0.0971
      4 C           8.6932   41.5014    9.0843 C.2     1  UNL1        0.3112
      5 N          10.0862   41.8734    9.1520 N.am    1  UNL1       -0.2430
      6 N           7.8275   41.7785   10.2024 N.am    1  UNL1       -0.2596
      7 O           8.2313   40.9236    8.0624 O.2     1  UNL1       -0.2520
      8 C          11.5121   40.8686    5.8269 C.ar    1  UNL1        0.0026
      9 C          12.7518   41.5093    5.8545 C.ar    1  UNL1        0.0148
     10 C          13.1268   42.2782    6.9649 C.ar    1  UNL1        0.0515
     11 C          12.2441   42.3976    8.0429 C.ar    1  UNL1        0.0296
     12 C          10.9888   41.7666    8.0284 C.ar    1  UNL1        0.0565
     13 C          10.6378   40.9944    6.9085 C.ar    1  UNL1        0.0150
     14 C          14.7914   44.1072    6.2880 C.2     1  UNL1        0.2256
     15 N          14.3922   42.9494    7.0325 N.am    1  UNL1       -0.2839
     16 O          14.0083   44.6466    5.4579 O.2     1  UNL1       -0.2748
     17 H          15.0564   42.5758    7.6558 H       1  UNL1        0.1549
     18 C          16.1661   44.6631    6.5094 C.3     1  UNL1        0.0768
     19 C          16.7969   44.0848    7.7622 C.3     1  UNL1        0.0091
     20 C          17.8341   43.3752    6.9133 C.3     1  UNL1        0.0010
     21 C          17.1984   43.9448    5.6599 C.3     1  UNL1        0.0091
     22 C           6.4412   41.3254   10.2086 C.3     1  UNL1        0.1217
     23 C           5.5509   42.3391    9.5694 C.ar    1  UNL1       -0.0021
     24 C           4.1652   42.2632    9.7478 C.ar    1  UNL1       -0.0003
     25 C           3.3297   43.2165    9.1578 C.ar    1  UNL1        0.0294
     26 C           3.8787   44.2475    8.3892 C.ar    1  UNL1        0.1401
     27 C           5.2632   44.3255    8.2103 C.ar    1  UNL1        0.0294
     28 C           6.0991   43.3723    8.8001 C.ar    1  UNL1       -0.0003
     29 F           3.0691   45.1709    7.8177 F       1  UNL1       -0.2042
@<TRIPOS>BOND
     1     9    10   ar
     2    10    15    1
     3    11    12   ar
     4    12     5    1
     5    13     8   ar
     6     1     5    1
     7     1     2    1
     8     2     3    1
     9     3     6    1
    10     4     5   am
    11    22     6    1
    12    22    23    1
    13    24    25   ar
    14    26    27   ar
    15    26    29    1
    16    28    23   ar
    17    18    14    1
    18    18    19    1
    19    19    20    1
    20    20    21    1
    21    21    18    1
    22     6     4   am
    23    15    14   am
    24     8     9   ar
    25    10    11   ar
    26    12    13   ar
    27     4     7    2
    28    23    24   ar
    29    25    26   ar
    30    27    28   ar
    31    14    16    2
    32    15    17    1
@<TRIPOS>MOLECULE
MolPort-006-609-839 ChemDiv-V020-0836 MCULE-3240632637 PubChem-46069923 ZINC000034735291 ZINC34735291
 29 32 0 0 0
SMALL
GASTEIGER

@<TRIPOS>ATOM
      1 C           9.9800   41.9574    8.3823 C.3     1  UNL1        0.1015
      2 C           8.5799   41.5443    7.9605 C.3     1  UNL1        0.0435
      3 C           7.5614   42.0374    8.9841 C.3     1  UNL1        0.0971
      4 C           9.3024   41.3334   10.6891 C.2     1  UNL1        0.3112
      5 N          10.3170   41.3366    9.6623 N.am    1  UNL1       -0.2430
      6 N           7.9541   41.7193   10.3583 N.am    1  UNL1       -0.2596
      7 O           9.5888   41.0103   11.8744 O.2     1  UNL1       -0.2520
      8 C          13.1876   39.3695   11.0725 C.ar    1  UNL1        0.0026
      9 C          14.2546   39.8617   10.3191 C.ar    1  UNL1        0.0148
     10 C          14.0377   40.8416    9.3406 C.ar    1  UNL1        0.0515
     11 C          12.7406   41.3183    9.1266 C.ar    1  UNL1        0.0296
     12 C          11.6537   40.8279    9.8698 C.ar    1  UNL1        0.0565
     13 C          11.8961   39.8520   10.8508 C.ar    1  UNL1        0.0150
     14 C          15.0074   42.3896    7.5412 C.2     1  UNL1        0.2256
     15 N          15.1074   41.3744    8.5480 N.am    1  UNL1       -0.2839
     16 O          13.8948   42.9130    7.2559 O.2     1  UNL1       -0.2748
     17 H          16.0046   41.0041    8.7127 H       1  UNL1        0.1549
     18 C          16.2541   42.8140    6.8247 C.3     1  UNL1        0.0768
     19 C          15.9342   43.7485    5.6730 C.3     1  UNL1        0.0091
     20 C          16.6401   44.8805    6.3945 C.3     1  UNL1        0.0010
     21 C          16.9517   43.9498    7.5505 C.3     1  UNL1        0.0091
     22 C           6.9292   41.8254   11.3906 C.3     1  UNL1        0.1217
     23 C           5.5683   41.6399   10.8053 C.ar    1  UNL1       -0.0021
     24 C           5.0442   42.6038    9.9371 C.ar    1  UNL1       -0.0003
     25 C           3.7736   42.4283    9.3803 C.ar    1  UNL1        0.0294
     26 C           3.0258   41.2883    9.6904 C.ar    1  UNL1        0.1401
     27 C           3.5482   40.3236   10.5573 C.ar    1  UNL1        0.0294
     28 C           4.8186   40.4988   11.1143 C.ar    1  UNL1       -0.0003
     29 F           1.7950   41.1185    9.1510 F       1  UNL1       -0.2042
@<TRIPOS>BOND
     1     9    10   ar
     2    10    15    1
     3    11    12   ar
     4    12     5    1
     5    13     8   ar
     6     1     5    1
     7     1     2    1
     8     2     3    1
     9     3     6    1
    10     4     5   am
    11    22     6    1
    12    22    23    1
    13    24    25   ar
    14    26    27   ar
    15    26    29    1
    16    28    23   ar
    17    18    14    1
    18    18    19    1
    19    19    20    1
    20    20    21    1
    21    21    18    1
    22     6     4   am
    23    15    14   am
    24     8     9   ar
    25    10    11   ar
    26    12    13   ar
    27     4     7    2
    28    23    24   ar
    29    25    26   ar
    30    27    28   ar
    31    14    16    2
    32    15    17    1
@<TRIPOS>MOLECULE
MolPort-006-609-839 ChemDiv-V020-0836 MCULE-3240632637 PubChem-46069923 ZINC000034735291 ZINC34735291
 29 32 0 0 0
SMALL
GASTEIGER

@<TRIPOS>ATOM
      1 C          12.5446   41.2055    9.2174 C.3     1  UNL1        0.1015
      2 C          11.1830   41.8486    9.4208 C.3     1  UNL1        0.0435
      3 C          10.2795   41.5418    8.2301 C.3     1  UNL1        0.0971
      4 C          12.3708   41.9486    6.8536 C.2     1  UNL1        0.3112
      5 N          13.1871   41.7670    8.0302 N.am    1  UNL1       -0.2430
      6 N          10.9412   41.7960    6.9488 N.am    1  UNL1       -0.2596
      7 O          12.8988   42.2249    5.7417 O.2     1  UNL1       -0.2520
      8 C          16.4932   43.4345    7.4076 C.ar    1  UNL1        0.0026
      9 C          17.3670   42.5662    8.0641 C.ar    1  UNL1        0.0148
     10 C          16.8755   41.4281    8.7181 C.ar    1  UNL1        0.0515
     11 C          15.5004   41.1740    8.7072 C.ar    1  UNL1        0.0296
     12 C          14.6056   42.0418    8.0588 C.ar    1  UNL1        0.0565
     13 C          15.1217   43.1719    7.4029 C.ar    1  UNL1        0.0150
     14 C          17.3663   39.5714   10.4170 C.2     1  UNL1        0.2256
     15 N          17.7405   40.5107    9.4011 N.am    1  UNL1       -0.2839
     16 O          16.1714   39.4878   10.8150 O.2     1  UNL1       -0.2748
     17 H          18.6910   40.5278    9.1455 H       1  UNL1        0.1549
     18 C          18.4279   38.6916   11.0060 C.3     1  UNL1        0.0768
     19 C          18.1423   37.2272   10.7306 C.3     1  UNL1        0.0091
     20 C          19.3693   37.1542    9.8423 C.3     1  UNL1        0.0010
     21 C          19.6501   38.6204   10.1091 C.3     1  UNL1        0.0091
     22 C          10.0976   41.8717    5.7614 C.3     1  UNL1        0.1217
     23 C          10.0110   40.5416    5.0889 C.ar    1  UNL1       -0.0021
     24 C          10.9660   40.1790    4.1328 C.ar    1  UNL1       -0.0003
     25 C          10.8927   38.9303    3.5079 C.ar    1  UNL1        0.0294
     26 C           9.8646   38.0422    3.8388 C.ar    1  UNL1        0.1401
     27 C           8.9098   38.4024    4.7946 C.ar    1  UNL1        0.0294
     28 C           8.9828   39.6510    5.4196 C.ar    1  UNL1       -0.0003
     29 F           9.7938   36.8327    3.2334 F       1  UNL1       -0.2042
@<TRIPOS>BOND
     1     9    10   ar
     2    10    15    1
     3    11    12   ar
     4    12     5    1
     5    13     8   ar
     6     1     5    1
     7     1     2    1
     8     2     3    1
     9     3     6    1
    10     4     5   am
    11    22     6    1
    12    22    23    1
    13    24    25   ar
    14    26    27   ar
    15    26    29    1
    16    28    23   ar
    17    18    14    1
    18    18    19    1
    19    19    20    1
    20    20    21    1
    21    21    18    1
    22     6     4   am
    23    15    14   am
    24     8     9   ar
    25    10    11   ar
    26    12    13   ar
    27     4     7    2
    28    23    24   ar
    29    25    26   ar
    30    27    28   ar
    31    14    16    2
    32    15    17    1
@<TRIPOS>MOLECULE
MolPort-006-609-839 ChemDiv-V020-0836 MCULE-3240632637 PubChem-46069923 ZINC000034735291 ZINC34735291
 29 32 0 0 0
SMALL
GASTEIGER

@<TRIPOS>ATOM
      1 C          13.8516   39.3293   11.5447 C.3     1  UNL1        0.1015
      2 C          15.0574   38.4053   11.5770 C.3     1  UNL1        0.0435
      3 C          16.3195   39.1840   11.2178 C.3     1  UNL1        0.0971
      4 C          14.8418   40.2964    9.4821 C.2     1  UNL1        0.3112
      5 N          13.6655   39.8565   10.1938 N.am    1  UNL1       -0.2430
      6 N          16.1478   39.9978   10.0127 N.am    1  UNL1       -0.2596
      7 O          14.7362   40.9515    8.4092 O.2     1  UNL1       -0.2520
      8 C           9.9699   40.4921   10.0001 C.ar    1  UNL1        0.0026
      9 C           9.7090   40.1911    8.6623 C.ar    1  UNL1        0.0148
     10 C          10.7461   39.7796    7.8140 C.ar    1  UNL1        0.0515
     11 C          12.0447   39.6764    8.3224 C.ar    1  UNL1        0.0296
     12 C          12.3270   39.9838    9.6641 C.ar    1  UNL1        0.0565
     13 C          11.2703   40.3862   10.4979 C.ar    1  UNL1        0.0150
     14 C          10.9312   40.2239    5.2955 C.2     1  UNL1        0.2256
     15 N          10.5184   39.4588    6.4350 N.am    1  UNL1       -0.2839
     16 O          11.5569   41.3111    5.4360 O.2     1  UNL1       -0.2748
     17 H          10.0269   38.6257    6.2517 H       1  UNL1        0.1549
     18 C          10.5972   39.7095    3.9274 C.3     1  UNL1        0.0768
     19 C          11.2965   38.3919    3.6504 C.3     1  UNL1        0.0091
     20 C           9.9555   37.6841    3.6273 C.3     1  UNL1        0.0010
     21 C           9.2563   38.9989    3.9139 C.3     1  UNL1        0.0091
     22 C          17.3532   40.5142    9.3744 C.3     1  UNL1        0.1217
     23 C          17.0720   41.8058    8.6806 C.ar    1  UNL1       -0.0021
     24 C          17.4565   43.0143    9.2717 C.ar    1  UNL1       -0.0003
     25 C          17.2025   44.2250    8.6199 C.ar    1  UNL1        0.0294
     26 C          16.5643   44.2289    7.3758 C.ar    1  UNL1        0.1401
     27 C          16.1800   43.0222    6.7832 C.ar    1  UNL1        0.0294
     28 C          16.4338   41.8113    7.4346 C.ar    1  UNL1       -0.0003
     29 F          16.3184   45.4018    6.7447 F       1  UNL1       -0.2042
@<TRIPOS>BOND
     1     9    10   ar
     2    10    15    1
     3    11    12   ar
     4    12     5    1
     5    13     8   ar
     6     1     5    1
     7     1     2    1
     8     2     3    1
     9     3     6    1
    10     4     5   am
    11    22     6    1
    12    22    23    1
    13    24    25   ar
    14    26    27   ar
    15    26    29    1
    16    28    23   ar
    17    18    14    1
    18    18    19    1
    19    19    20    1
    20    20    21    1
    21    21    18    1
    22     6     4   am
    23    15    14   am
    24     8     9   ar
    25    10    11   ar
    26    12    13   ar
    27     4     7    2
    28    23    24   ar
    29    25    26   ar
    30    27    28   ar
    31    14    16    2
    32    15    17    1
@<TRIPOS>MOLECULE
MolPort-006-609-839 ChemDiv-V020-0836 MCULE-3240632637 PubChem-46069923 ZINC000034735291 ZINC34735291
 29 32 0 0 0
SMALL
GASTEIGER

@<TRIPOS>ATOM
      1 C          10.7774   39.6165    8.3816 C.3     1  UNL1        0.1015
      2 C          10.6237   39.7256    6.8738 C.3     1  UNL1        0.0435
      3 C          11.7942   40.5089    6.2868 C.3     1  UNL1        0.0971
      4 C          11.5035   41.9912    8.3245 C.2     1  UNL1        0.3112
      5 N          10.7509   40.9494    8.9816 N.am    1  UNL1       -0.2430
      6 N          12.0508   41.7543    7.0127 N.am    1  UNL1       -0.2596
      7 O          11.6983   43.0999    8.8938 O.2     1  UNL1       -0.2520
      8 C          10.0216   41.1043   12.6617 C.ar    1  UNL1        0.0026
      9 C           8.6787   41.4850   12.6600 C.ar    1  UNL1        0.0148
     10 C           8.0043   41.6960   11.4496 C.ar    1  UNL1        0.0515
     11 C           8.6924   41.5230   10.2446 C.ar    1  UNL1        0.0296
     12 C          10.0466   41.1484   10.2277 C.ar    1  UNL1        0.0565
     13 C          10.6999   40.9344   11.4530 C.ar    1  UNL1        0.0150
     14 C           5.6737   41.7636   10.3827 C.2     1  UNL1        0.2256
     15 N           6.6247   42.0850   11.4057 N.am    1  UNL1       -0.2839
     16 O           6.0091   41.0787    9.3770 O.2     1  UNL1       -0.2748
     17 H           6.2964   42.6300   12.1570 H       1  UNL1        0.1549
     18 C           4.2683   42.2657   10.5271 C.3     1  UNL1        0.0768
     19 C           3.6332   42.5169    9.1723 C.3     1  UNL1        0.0091
     20 C           2.6543   41.3855    9.4205 C.3     1  UNL1        0.0010
     21 C           3.2947   41.1272   10.7707 C.3     1  UNL1        0.0091
     22 C          12.9010   42.7461    6.3639 C.3     1  UNL1        0.1217
     23 C          14.2766   42.7234    6.9437 C.ar    1  UNL1       -0.0021
     24 C          15.1847   43.7397    6.6272 C.ar    1  UNL1       -0.0003
     25 C          16.4707   43.7259    7.1758 C.ar    1  UNL1        0.0294
     26 C          16.8502   42.6961    8.0422 C.ar    1  UNL1        0.1401
     27 C          15.9439   41.6800    8.3602 C.ar    1  UNL1        0.0294
     28 C          14.6578   41.6935    7.8118 C.ar    1  UNL1       -0.0003
     29 F          18.0960   42.6829    8.5735 F       1  UNL1       -0.2042
@<TRIPOS>BOND
     1     9    10   ar
     2    10    15    1
     3    11    12   ar
     4    12     5    1
     5    13     8   ar
     6     1     5    1
     7     1     2    1
     8     2     3    1
     9     3     6    1
    10     4     5   am
    11    22     6    1
    12    22    23    1
    13    24    25   ar
    14    26    27   ar
    15    26    29    1
    16    28    23   ar
    17    18    14    1
    18    18    19    1
    19    19    20    1
    20    20    21    1
    21    21    18    1
    22     6     4   am
    23    15    14   am
    24     8     9   ar
    25    10    11   ar
    26    12    13   ar
    27     4     7    2
    28    23    24   ar
    29    25    26   ar
    30    27    28   ar
    31    14    16    2
    32    15    17    1
@<TRIPOS>MOLECULE
MolPort-006-609-839 ChemDiv-V020-0836 MCULE-3240632637 PubChem-46069923 ZINC000034735291 ZINC34735291
 29 32 0 0 0
SMALL
GASTEIGER

@<TRIPOS>ATOM
      1 C           9.7862   39.7318    7.0470 C.3     1  UNL1        0.1015
      2 C           8.2895   39.4739    7.0963 C.3     1  UNL1        0.0435
      3 C           7.5293   40.7714    6.8374 C.3     1  UNL1        0.0971
      4 C           9.3119   41.8197    8.3061 C.2     1  UNL1        0.3112
      5 N          10.1634   40.6725    8.1007 N.am    1  UNL1       -0.2430
      6 N           8.0314   41.8824    7.6482 N.am    1  UNL1       -0.2596
      7 O           9.6847   42.7728    9.0437 O.2     1  UNL1       -0.2520
      8 C          12.5569   39.5945   10.7856 C.ar    1  UNL1        0.0026
      9 C          13.7671   40.0773   10.2850 C.ar    1  UNL1        0.0148
     10 C          13.8054   40.7581    9.0604 C.ar    1  UNL1        0.0515
     11 C          12.6184   40.9460    8.3455 C.ar    1  UNL1        0.0296
     12 C          11.3926   40.4592    8.8302 C.ar    1  UNL1        0.0565
     13 C          11.3771   39.7871   10.0638 C.ar    1  UNL1        0.0150
     14 C          15.1663   42.3605    7.5924 C.2     1  UNL1        0.2256
     15 N          15.0278   41.2714    8.5138 N.am    1  UNL1       -0.2839
     16 O          14.1536   42.9784    7.1613 O.2     1  UNL1       -0.2748
     17 H          15.8590   40.8294    8.8016 H       1  UNL1        0.1549
     18 C          16.5429   42.7483    7.1425 C.3     1  UNL1        0.0768
     19 C          16.8295   44.2067    7.4472 C.3     1  UNL1        0.0091
     20 C          17.8876   43.7899    8.4505 C.3     1  UNL1        0.0010
     21 C          17.5950   42.3318    8.1538 C.3     1  UNL1        0.0091
     22 C           7.1916   43.0703    7.7521 C.3     1  UNL1        0.1217
     23 C           5.9357   42.7660    8.4999 C.ar    1  UNL1       -0.0021
     24 C           4.8508   43.6467    8.4306 C.ar    1  UNL1       -0.0003
     25 C           3.6702   43.3597    9.1225 C.ar    1  UNL1        0.0294
     26 C           3.5726   42.1912    9.8842 C.ar    1  UNL1        0.1401
     27 C           4.6555   41.3094    9.9541 C.ar    1  UNL1        0.0294
     28 C           5.8362   41.5961    9.2623 C.ar    1  UNL1       -0.0003
     29 F           2.4288   41.9134   10.5544 F       1  UNL1       -0.2042
@<TRIPOS>BOND
     1     9    10   ar
     2    10    15    1
     3    11    12   ar
     4    12     5    1
     5    13     8   ar
     6     1     5    1
     7     1     2    1
     8     2     3    1
     9     3     6    1
    10     4     5   am
    11    22     6    1
    12    22    23    1
    13    24    25   ar
    14    26    27   ar
    15    26    29    1
    16    28    23   ar
    17    18    14    1
    18    18    19    1
    19    19    20    1
    20    20    21    1
    21    21    18    1
    22     6     4   am
    23    15    14   am
    24     8     9   ar
    25    10    11   ar
    26    12    13   ar
    27     4     7    2
    28    23    24   ar
    29    25    26   ar
    30    27    28   ar
    31    14    16    2
    32    15    17    1
@<TRIPOS>MOLECULE
MolPort-006-609-839 ChemDiv-V020-0836 MCULE-3240632637 PubChem-46069923 ZINC000034735291 ZINC34735291
 29 32 0 0 0
SMALL
GASTEIGER

@<TRIPOS>ATOM
      1 C           9.8848   40.5279    7.4028 C.3     1  UNL1        0.1015
      2 C           8.5298   39.8745    7.1884 C.3     1  UNL1        0.0435
      3 C           7.4325   40.7384    7.8031 C.3     1  UNL1        0.0971
      4 C           9.0910   41.0649    9.6944 C.2     1  UNL1        0.3112
      5 N          10.1658   40.6316    8.8338 N.am    1  UNL1       -0.2430
      6 N           7.7519   41.1552    9.1700 N.am    1  UNL1       -0.2596
      7 O           9.3161   41.3786   10.8953 O.2     1  UNL1       -0.2520
      8 C          13.0019   39.3197   10.9157 C.ar    1  UNL1        0.0026
      9 C          14.1009   39.8993   10.2796 C.ar    1  UNL1        0.0148
     10 C          13.9178   40.7231    9.1605 C.ar    1  UNL1        0.0515
     11 C          12.6224   40.9557    8.6877 C.ar    1  UNL1        0.0296
     12 C          11.5055   40.3735    9.3104 C.ar    1  UNL1        0.0565
     13 C          11.7125   39.5580   10.4355 C.ar    1  UNL1        0.0150
     14 C          14.9497   42.3680    7.4860 C.2     1  UNL1        0.2256
     15 N          15.0203   41.3390    8.4811 N.am    1  UNL1       -0.2839
     16 O          13.8374   42.8273    7.1054 O.2     1  UNL1       -0.2748
     17 H          15.9202   41.0217    8.7238 H       1  UNL1        0.1549
     18 C          16.2281   42.8850    6.8974 C.3     1  UNL1        0.0768
     19 C          16.4376   44.3482    7.2395 C.3     1  UNL1        0.0091
     20 C          17.6383   43.9784    8.0890 C.3     1  UNL1        0.0010
     21 C          17.4237   42.5147    7.7556 C.3     1  UNL1        0.0091
     22 C           6.6623   41.6858    9.9815 C.3     1  UNL1        0.1217
     23 C           5.9051   42.7312    9.2313 C.ar    1  UNL1       -0.0021
     24 C           4.5180   42.8329    9.3833 C.ar    1  UNL1       -0.0003
     25 C           3.8074   43.8168    8.6889 C.ar    1  UNL1        0.0294
     26 C           4.4831   44.7007    7.8421 C.ar    1  UNL1        0.1401
     27 C           5.8694   44.6011    7.6894 C.ar    1  UNL1        0.0294
     28 C           6.5803   43.6174    8.3836 C.ar    1  UNL1       -0.0003
     29 F           3.7947   45.6538    7.1696 F       1  UNL1       -0.2042
@<TRIPOS>BOND
     1     9    10   ar
     2    10    15    1
     3    11    12   ar
     4    12     5    1
     5    13     8   ar
     6     1     5    1
     7     1     2    1
     8     2     3    1
     9     3     6    1
    10     4     5   am
    11    22     6    1
    12    22    23    1
    13    24    25   ar
    14    26    27   ar
    15    26    29    1
    16    28    23   ar
    17    18    14    1
    18    18    19    1
    19    19    20    1
    20    20    21    1
    21    21    18    1
    22     6     4   am
    23    15    14   am
    24     8     9   ar
    25    10    11   ar
    26    12    13   ar
    27     4     7    2
    28    23    24   ar
    29    25    26   ar
    30    27    28   ar
    31    14    16    2
    32    15    17    1
@<TRIPOS>MOLECULE
MolPort-006-609-839 ChemDiv-V020-0836 MCULE-3240632637 PubChem-46069923 ZINC000034735291 ZINC34735291
 29 32 0 0 0
SMALL
GASTEIGER

@<TRIPOS>ATOM
      1 C           9.8955   41.1265   11.5762 C.3     1  UNL1        0.1015
      2 C           8.8854   42.2544   11.4478 C.3     1  UNL1        0.0435
      3 C           7.7338   41.8213   10.5452 C.3     1  UNL1        0.0971
      4 C           9.5593   40.7556    9.1432 C.2     1  UNL1        0.3112
      5 N          10.4649   40.8177   10.2655 N.am    1  UNL1       -0.2430
      6 N           8.2019   41.2136    9.2980 N.am    1  UNL1       -0.2596
      7 O           9.9412   40.2910    8.0343 O.2     1  UNL1       -0.2520
      8 C          13.8442   39.3475   10.9852 C.ar    1  UNL1        0.0026
      9 C          14.6251   39.9598   10.0036 C.ar    1  UNL1        0.0148
     10 C          14.0461   40.8581    9.0967 C.ar    1  UNL1        0.0515
     11 C          12.6776   41.1318    9.1853 C.ar    1  UNL1        0.0296
     12 C          11.8748   40.5180   10.1615 C.ar    1  UNL1        0.0565
     13 C          12.4785   39.6274   11.0650 C.ar    1  UNL1        0.0150
     14 C          14.4007   42.6145    7.2626 C.2     1  UNL1        0.2256
     15 N          14.8146   41.5095    8.0761 N.am    1  UNL1       -0.2839
     16 O          13.2503   43.1184    7.3892 O.2     1  UNL1       -0.2748
     17 H          15.7216   41.1610    7.9175 H       1  UNL1        0.1549
     18 C          15.3618   43.1576    6.2482 C.3     1  UNL1        0.0768
     19 C          14.6573   44.0597    5.2523 C.3     1  UNL1        0.0091
     20 C          15.4260   45.2524    5.7877 C.3     1  UNL1        0.0010
     21 C          16.1235   44.3532    6.7901 C.3     1  UNL1        0.0091
     22 C           7.2337   41.0708    8.2166 C.3     1  UNL1        0.1217
     23 C           6.2083   42.1542    8.2787 C.ar    1  UNL1       -0.0021
     24 C           6.4263   43.3615    7.6059 C.ar    1  UNL1       -0.0003
     25 C           5.4637   44.3745    7.6549 C.ar    1  UNL1        0.0294
     26 C           4.2815   44.1813    8.3762 C.ar    1  UNL1        0.1401
     27 C           4.0616   42.9752    9.0485 C.ar    1  UNL1        0.0294
     28 C           5.0239   41.9621    8.9998 C.ar    1  UNL1       -0.0003
     29 F           3.3492   45.1627    8.4235 F       1  UNL1       -0.2042
@<TRIPOS>BOND
     1     9    10   ar
     2    10    15    1
     3    11    12   ar
     4    12     5    1
     5    13     8   ar
     6     1     5    1
     7     1     2    1
     8     2     3    1
     9     3     6    1
    10     4     5   am
    11    22     6    1
    12    22    23    1
    13    24    25   ar
    14    26    27   ar
    15    26    29    1
    16    28    23   ar
    17    18    14    1
    18    18    19    1
    19    19    20    1
    20    20    21    1
    21    21    18    1
    22     6     4   am
    23    15    14   am
    24     8     9   ar
    25    10    11   ar
    26    12    13   ar
    27     4     7    2
    28    23    24   ar
    29    25    26   ar
    30    27    28   ar
    31    14    16    2
    32    15    17    1
@<TRIPOS>MOLECULE
MolPort-006-609-839 ChemDiv-V020-0836 MCULE-3240632637 PubChem-46069923 ZINC000034735291 ZINC34735291
 29 32 0 0 0
SMALL
GASTEIGER

@<TRIPOS>ATOM
      1 C          11.5887   40.7974    5.9245 C.3     1  UNL1        0.1015
      2 C          10.5031   39.8269    6.3589 C.3     1  UNL1        0.0435
      3 C           9.2573   40.5972    6.7865 C.3     1  UNL1        0.0971
      4 C          10.9123   42.1844    7.8709 C.2     1  UNL1        0.3112
      5 N          11.9715   41.6504    7.0485 N.am    1  UNL1       -0.2430
      6 N           9.5682   41.6909    7.7092 N.am    1  UNL1       -0.2596
      7 O          11.1501   43.0883    8.7182 O.2     1  UNL1       -0.2520
      8 C          15.2852   43.3882    6.7345 C.ar    1  UNL1        0.0026
      9 C          16.0857   42.6065    7.5690 C.ar    1  UNL1        0.0148
     10 C          15.5415   41.5045    8.2428 C.ar    1  UNL1        0.0515
     11 C          14.1878   41.1987    8.0711 C.ar    1  UNL1        0.0296
     12 C          13.3653   41.9798    7.2417 C.ar    1  UNL1        0.0565
     13 C          13.9344   43.0746    6.5700 C.ar    1  UNL1        0.0150
     14 C          15.8526   39.8376   10.1661 C.2     1  UNL1        0.2256
     15 N          16.3311   40.6755    9.1064 N.am    1  UNL1       -0.2839
     16 O          14.6215   39.7745   10.4379 O.2     1  UNL1       -0.2748
     17 H          17.3040   40.6828    8.9556 H       1  UNL1        0.1549
     18 C          16.8477   39.0400   10.9544 C.3     1  UNL1        0.0768
     19 C          16.8524   37.5859   10.5212 C.3     1  UNL1        0.0091
     20 C          18.2599   37.7506    9.9812 C.3     1  UNL1        0.0010
     21 C          18.2525   39.2066   10.4049 C.3     1  UNL1        0.0091
     22 C           8.4584   42.2793    8.4504 C.3     1  UNL1        0.1217
     23 C           8.5060   41.8711    9.8857 C.ar    1  UNL1       -0.0021
     24 C           9.7032   41.4050   10.4399 C.ar    1  UNL1       -0.0003
     25 C           9.7530   41.0306   11.7861 C.ar    1  UNL1        0.0294
     26 C           8.6059   41.1224   12.5803 C.ar    1  UNL1        0.1401
     27 C           7.4087   41.5886   12.0285 C.ar    1  UNL1        0.0294
     28 C           7.3585   41.9631   10.6823 C.ar    1  UNL1       -0.0003
     29 F           8.6544   40.7597   13.8844 F       1  UNL1       -0.2042
@<TRIPOS>BOND
     1     9    10   ar
     2    10    15    1
     3    11    12   ar
     4    12     5    1
     5    13     8   ar
     6     1     5    1
     7     1     2    1
     8     2     3    1
     9     3     6    1
    10     4     5   am
    11    22     6    1
    12    22    23    1
    13    24    25   ar
    14    26    27   ar
    15    26    29    1
    16    28    23   ar
    17    18    14    1
    18    18    19    1
    19    19    20    1
    20    20    21    1
    21    21    18    1
    22     6     4   am
    23    15    14   am
    24     8     9   ar
    25    10    11   ar
    26    12    13   ar
    27     4     7    2
    28    23    24   ar
    29    25    26   ar
    30    27    28   ar
    31    14    16    2
    32    15    17    1
