@<TRIPOS>MOLECULE
MolPort-002-864-401 1385280 CHEMBL1326881 CSSS00025732746 MCULE-5033354806 PubChem-1473622 ZINC000001385280 ZINC01385280
 28 30 0 0 0
SMALL
GASTEIGER

@<TRIPOS>ATOM
      1 C          13.5406   42.6873    7.1533 C.ar    1  UNL1        0.1278
      2 C          14.2732   41.8069    7.9452 C.ar    1  UNL1        0.0272
      3 C          15.6575   41.9408    8.0564 C.ar    1  UNL1        0.0708
      4 C          16.2786   43.0009    7.3650 C.ar    1  UNL1        0.1297
      5 C          17.7398   43.2734    7.4959 C.3     1  UNL1        0.0727
      6 C          14.2401   43.6799    6.4416 C.ar    1  UNL1        0.3591
      7 O          15.5564   43.8031    6.5875 O.2     1  UNL1       -0.4245
      8 O          13.6398   44.4455    5.6423 O.2     1  UNL1       -0.2431
      9 C          11.4417   41.2369    7.0704 C.2     1  UNL1        0.2496
     10 O          12.0859   40.1637    6.9119 O.2     1  UNL1       -0.2698
     11 N          12.1234   42.4980    7.0418 N.am    1  UNL1       -0.2753
     12 H          11.5696   43.3051    6.9363 H       1  UNL1        0.1554
     13 C           7.1822   41.1245    7.5427 C.ar    1  UNL1        0.1387
     14 C           7.7492   41.3999    6.2882 C.ar    1  UNL1        0.0370
     15 C           9.1379   41.4358    6.1354 C.ar    1  UNL1        0.0076
     16 C           9.9779   41.1971    7.2319 C.ar    1  UNL1        0.0539
     17 C           9.4086   40.9230    8.4837 C.ar    1  UNL1        0.0076
     18 C           8.0198   40.8869    8.6367 C.ar    1  UNL1        0.0370
     19 C           5.1893   41.2234    9.0047 C.3     1  UNL1        0.2525
     20 O           5.7977   41.0814    7.7283 O.3     1  UNL1       -0.4714
     21 C          16.3979   40.9959    8.9191 C.2     1  UNL1        0.1982
     22 O          17.6535   40.9406    8.8145 O.2     1  UNL1       -0.2865
     23 C          15.7172   40.1531    9.9270 C.ar    1  UNL1        0.0390
     24 C          16.4719   39.3414   10.7872 C.ar    1  UNL1        0.0032
     25 C          15.8407   38.5570   11.7572 C.ar    1  UNL1        0.0001
     26 C          14.4490   38.5828   11.8797 C.ar    1  UNL1        0.0000
     27 C          13.6888   39.3949   11.0344 C.ar    1  UNL1        0.0001
     28 C          14.3202   40.1791   10.0649 C.ar    1  UNL1        0.0032
@<TRIPOS>BOND
     1    19    20    1
     2    13    20    1
     3    14    15   ar
     4    16    17   ar
     5    16     9    1
     6    18    13   ar
     7     9    11   am
     8     2     3   ar
     9     3    21    1
    10    21    23    1
    11    24    25   ar
    12    26    27   ar
    13    28    23   ar
    14     4     7   ar
    15     5     4    1
    16     6     7   ar
    17     6     1   ar
    18    11     1    1
    19    13    14   ar
    20    15    16   ar
    21    17    18   ar
    22     9    10    2
    23     1     2   ar
    24     3     4   ar
    25    21    22    2
    26    23    24   ar
    27    25    26   ar
    28    27    28   ar
    29     6     8    2
    30    11    12    1
@<TRIPOS>MOLECULE
MolPort-002-864-401 1385280 CHEMBL1326881 CSSS00025732746 MCULE-5033354806 PubChem-1473622 ZINC000001385280 ZINC01385280
 28 30 0 0 0
SMALL
GASTEIGER

@<TRIPOS>ATOM
      1 C          11.4887   39.7341   10.0190 C.ar    1  UNL1        0.1278
      2 C          10.3151   40.1174    9.3750 C.ar    1  UNL1        0.0272
      3 C           9.4829   41.0848    9.9392 C.ar    1  UNL1        0.0708
      4 C           9.8791   41.6706   11.1588 C.ar    1  UNL1        0.1297
      5 C           9.0975   42.7740   11.7896 C.3     1  UNL1        0.0727
      6 C          11.7832   40.3169   11.2659 C.ar    1  UNL1        0.3591
      7 O          10.9873   41.2570   11.7676 O.2     1  UNL1       -0.4245
      8 O          12.7833   39.9432   11.9333 O.2     1  UNL1       -0.2431
      9 C          13.7297   38.6212    9.5135 C.2     1  UNL1        0.2496
     10 O          14.4068   39.6111    9.9050 O.2     1  UNL1       -0.2698
     11 N          12.3019   38.7153    9.4210 N.am    1  UNL1       -0.2753
     12 H          11.8390   38.0191    8.9011 H       1  UNL1        0.1554
     13 C          15.7185   35.0201    8.3065 C.ar    1  UNL1        0.1387
     14 C          15.5560   35.3176    9.6689 C.ar    1  UNL1        0.0370
     15 C          14.9071   36.4916   10.0611 C.ar    1  UNL1        0.0076
     16 C          14.4121   37.3829    9.0993 C.ar    1  UNL1        0.0539
     17 C          14.5765   37.0834    7.7393 C.ar    1  UNL1        0.0076
     18 C          15.2254   35.9093    7.3468 C.ar    1  UNL1        0.0370
     19 C          15.7051   32.8452    7.1285 C.3     1  UNL1        0.2525
     20 O          16.3626   33.8548    7.8820 O.3     1  UNL1       -0.4714
     21 C           8.2536   41.4760    9.2174 C.2     1  UNL1        0.1982
     22 O           7.6185   42.4910    9.6138 O.2     1  UNL1       -0.2865
     23 C           7.7762   40.7434    8.0237 C.ar    1  UNL1        0.0390
     24 C           6.4227   40.8036    7.6589 C.ar    1  UNL1        0.0032
     25 C           5.9646   40.1327    6.5212 C.ar    1  UNL1        0.0001
     26 C           6.8577   39.4008    5.7344 C.ar    1  UNL1        0.0000
     27 C           8.2092   39.3423    6.0834 C.ar    1  UNL1        0.0001
     28 C           8.6670   40.0133    7.2208 C.ar    1  UNL1        0.0032
@<TRIPOS>BOND
     1    19    20    1
     2    13    20    1
     3    14    15   ar
     4    16    17   ar
     5    16     9    1
     6    18    13   ar
     7     9    11   am
     8     2     3   ar
     9     3    21    1
    10    21    23    1
    11    24    25   ar
    12    26    27   ar
    13    28    23   ar
    14     4     7   ar
    15     5     4    1
    16     6     7   ar
    17     6     1   ar
    18    11     1    1
    19    13    14   ar
    20    15    16   ar
    21    17    18   ar
    22     9    10    2
    23     1     2   ar
    24     3     4   ar
    25    21    22    2
    26    23    24   ar
    27    25    26   ar
    28    27    28   ar
    29     6     8    2
    30    11    12    1
@<TRIPOS>MOLECULE
MolPort-002-864-401 1385280 CHEMBL1326881 CSSS00025732746 MCULE-5033354806 PubChem-1473622 ZINC000001385280 ZINC01385280
 28 30 0 0 0
SMALL
GASTEIGER

@<TRIPOS>ATOM
      1 C           9.8764   42.0034    9.7125 C.ar    1  UNL1        0.1278
      2 C           8.6709   41.3825    9.3961 C.ar    1  UNL1        0.0272
      3 C           7.5490   42.1437    9.0663 C.ar    1  UNL1        0.0708
      4 C           7.6836   43.5468    9.0426 C.ar    1  UNL1        0.1297
      5 C           6.5631   44.4352    8.6163 C.3     1  UNL1        0.0727
      6 C           9.9145   43.4103    9.7309 C.ar    1  UNL1        0.3591
      7 O           8.8384   44.1114    9.3852 O.2     1  UNL1       -0.4245
      8 O          10.9517   44.0235   10.0960 O.2     1  UNL1       -0.2431
      9 C          12.1431   40.9232    9.2525 C.2     1  UNL1        0.2496
     10 O          12.1079   41.1742    8.0166 O.2     1  UNL1       -0.2698
     11 N          10.9983   41.1865   10.0747 N.am    1  UNL1       -0.2753
     12 H          10.9808   40.7699   10.9665 H       1  UNL1        0.1554
     13 C          15.6417   39.1371   10.9699 C.ar    1  UNL1        0.1387
     14 C          14.4065   39.0564   11.6326 C.ar    1  UNL1        0.0370
     15 C          13.2667   39.6386   11.0715 C.ar    1  UNL1        0.0076
     16 C          13.3447   40.3081    9.8425 C.ar    1  UNL1        0.0539
     17 C          14.5798   40.3877    9.1833 C.ar    1  UNL1        0.0076
     18 C          15.7200   39.8054    9.7443 C.ar    1  UNL1        0.0370
     19 C          18.0943   38.8167   10.9756 C.3     1  UNL1        0.2525
     20 O          16.7995   38.5655   11.5045 O.3     1  UNL1       -0.4714
     21 C           6.2916   41.4472    8.7213 C.2     1  UNL1        0.1982
     22 O           6.2383   40.7981    7.6413 O.2     1  UNL1       -0.2865
     23 C           5.1180   41.4514    9.6226 C.ar    1  UNL1        0.0390
     24 C           3.8696   41.8792    9.1461 C.ar    1  UNL1        0.0032
     25 C           2.7495   41.8674    9.9825 C.ar    1  UNL1        0.0001
     26 C           2.8669   41.4214   11.3015 C.ar    1  UNL1        0.0000
     27 C           4.1034   40.9843   11.7831 C.ar    1  UNL1        0.0001
     28 C           5.2230   40.9960   10.9465 C.ar    1  UNL1        0.0032
@<TRIPOS>BOND
     1    19    20    1
     2    13    20    1
     3    14    15   ar
     4    16    17   ar
     5    16     9    1
     6    18    13   ar
     7     9    11   am
     8     2     3   ar
     9     3    21    1
    10    21    23    1
    11    24    25   ar
    12    26    27   ar
    13    28    23   ar
    14     4     7   ar
    15     5     4    1
    16     6     7   ar
    17     6     1   ar
    18    11     1    1
    19    13    14   ar
    20    15    16   ar
    21    17    18   ar
    22     9    10    2
    23     1     2   ar
    24     3     4   ar
    25    21    22    2
    26    23    24   ar
    27    25    26   ar
    28    27    28   ar
    29     6     8    2
    30    11    12    1
@<TRIPOS>MOLECULE
MolPort-002-864-401 1385280 CHEMBL1326881 CSSS00025732746 MCULE-5033354806 PubChem-1473622 ZINC000001385280 ZINC01385280
 28 30 0 0 0
SMALL
GASTEIGER

@<TRIPOS>ATOM
      1 C          17.8956   38.7638    9.8588 C.ar    1  UNL1        0.1278
      2 C          17.2128   37.6790    9.3148 C.ar    1  UNL1        0.0272
      3 C          17.5390   36.3764    9.6937 C.ar    1  UNL1        0.0708
      4 C          18.5570   36.2003   10.6529 C.ar    1  UNL1        0.1297
      5 C          18.9115   34.8509   11.1818 C.3     1  UNL1        0.0727
      6 C          18.9439   38.5042   10.7614 C.ar    1  UNL1        0.3591
      7 O          19.2156   37.2545   11.1268 O.2     1  UNL1       -0.4245
      8 O          19.6524   39.4410   11.2150 O.2     1  UNL1       -0.2431
      9 C          18.2410   40.8434    8.4193 C.2     1  UNL1        0.2496
     10 O          19.3951   40.4975    8.0451 O.2     1  UNL1       -0.2698
     11 N          17.5503   40.0853    9.4214 N.am    1  UNL1       -0.2753
     12 H          16.7702   40.5094    9.8467 H       1  UNL1        0.1554
     13 C          16.4421   44.3849    6.8063 C.ar    1  UNL1        0.1387
     14 C          17.8381   44.2876    6.9198 C.ar    1  UNL1        0.0370
     15 C          18.4233   43.1324    7.4453 C.ar    1  UNL1        0.0076
     16 C          17.6234   42.0601    7.8637 C.ar    1  UNL1        0.0539
     17 C          16.2294   42.1605    7.7498 C.ar    1  UNL1        0.0076
     18 C          15.6439   43.3158    7.2242 C.ar    1  UNL1        0.0370
     19 C          14.4836   45.5296    5.8204 C.3     1  UNL1        0.2525
     20 O          15.8264   45.5261    6.2852 O.3     1  UNL1       -0.4714
     21 C          16.7807   35.2521    9.1054 C.2     1  UNL1        0.1982
     22 O          17.4037   34.4002    8.4149 O.2     1  UNL1       -0.2865
     23 C          15.3308   35.0736    9.3405 C.ar    1  UNL1        0.0390
     24 C          14.6817   33.9203    8.8744 C.ar    1  UNL1        0.0032
     25 C          13.3166   33.7312    9.1092 C.ar    1  UNL1        0.0001
     26 C          12.5898   34.6912    9.8182 C.ar    1  UNL1        0.0000
     27 C          13.2286   35.8385   10.2951 C.ar    1  UNL1        0.0001
     28 C          14.5934   36.0272   10.0603 C.ar    1  UNL1        0.0032
@<TRIPOS>BOND
     1    19    20    1
     2    13    20    1
     3    14    15   ar
     4    16    17   ar
     5    16     9    1
     6    18    13   ar
     7     9    11   am
     8     2     3   ar
     9     3    21    1
    10    21    23    1
    11    24    25   ar
    12    26    27   ar
    13    28    23   ar
    14     4     7   ar
    15     5     4    1
    16     6     7   ar
    17     6     1   ar
    18    11     1    1
    19    13    14   ar
    20    15    16   ar
    21    17    18   ar
    22     9    10    2
    23     1     2   ar
    24     3     4   ar
    25    21    22    2
    26    23    24   ar
    27    25    26   ar
    28    27    28   ar
    29     6     8    2
    30    11    12    1
@<TRIPOS>MOLECULE
MolPort-002-864-401 1385280 CHEMBL1326881 CSSS00025732746 MCULE-5033354806 PubChem-1473622 ZINC000001385280 ZINC01385280
 28 30 0 0 0
SMALL
GASTEIGER

@<TRIPOS>ATOM
      1 C          10.9954   41.3096    9.3431 C.ar    1  UNL1        0.1278
      2 C          11.7646   41.7642    8.2751 C.ar    1  UNL1        0.0272
      3 C          13.1321   41.4923    8.2228 C.ar    1  UNL1        0.0708
      4 C          13.6969   40.7302    9.2658 C.ar    1  UNL1        0.1297
      5 C          15.1306   40.3172    9.2481 C.3     1  UNL1        0.0727
      6 C          11.6436   40.6113   10.3791 C.ar    1  UNL1        0.3591
      7 O          12.9429   40.3414   10.2906 O.2     1  UNL1       -0.4245
      8 O          11.0145   40.2552   11.4100 O.2     1  UNL1       -0.2431
      9 C           9.0450   42.9202    9.6870 C.2     1  UNL1        0.2496
     10 O           9.7584   43.8008   10.2413 O.2     1  UNL1       -0.2698
     11 N           9.5989   41.6351    9.3745 N.am    1  UNL1       -0.2753
     12 H           8.9647   40.9125    9.1628 H       1  UNL1        0.1554
     13 C           4.9121   43.7182    8.8734 C.ar    1  UNL1        0.1387
     14 C           5.2824   42.5874    9.6187 C.ar    1  UNL1        0.0370
     15 C           6.6299   42.3286    9.8837 C.ar    1  UNL1        0.0076
     16 C           7.6246   43.1946    9.4088 C.ar    1  UNL1        0.0539
     17 C           7.2517   44.3228    8.6641 C.ar    1  UNL1        0.0076
     18 C           5.9040   44.5819    8.3991 C.ar    1  UNL1        0.0370
     19 C           3.1809   45.0514    7.7143 C.3     1  UNL1        0.2525
     20 O           3.5736   44.0047    8.5915 O.3     1  UNL1       -0.4714
     21 C          13.9117   41.9788    7.0649 C.2     1  UNL1        0.1982
     22 O          13.4583   41.7782    5.9053 O.2     1  UNL1       -0.2865
     23 C          15.1762   42.7297    7.2284 C.ar    1  UNL1        0.0390
     24 C          16.1313   42.2999    8.1620 C.ar    1  UNL1        0.0032
     25 C          17.3384   42.9894    8.3100 C.ar    1  UNL1        0.0001
     26 C          17.6038   44.1113    7.5205 C.ar    1  UNL1        0.0000
     27 C          16.6636   44.5419    6.5810 C.ar    1  UNL1        0.0001
     28 C          15.4570   43.8523    6.4332 C.ar    1  UNL1        0.0032
@<TRIPOS>BOND
     1    19    20    1
     2    13    20    1
     3    14    15   ar
     4    16    17   ar
     5    16     9    1
     6    18    13   ar
     7     9    11   am
     8     2     3   ar
     9     3    21    1
    10    21    23    1
    11    24    25   ar
    12    26    27   ar
    13    28    23   ar
    14     4     7   ar
    15     5     4    1
    16     6     7   ar
    17     6     1   ar
    18    11     1    1
    19    13    14   ar
    20    15    16   ar
    21    17    18   ar
    22     9    10    2
    23     1     2   ar
    24     3     4   ar
    25    21    22    2
    26    23    24   ar
    27    25    26   ar
    28    27    28   ar
    29     6     8    2
    30    11    12    1
@<TRIPOS>MOLECULE
MolPort-002-864-401 1385280 CHEMBL1326881 CSSS00025732746 MCULE-5033354806 PubChem-1473622 ZINC000001385280 ZINC01385280
 28 30 0 0 0
SMALL
GASTEIGER

@<TRIPOS>ATOM
      1 C          17.0838   38.1195   10.2938 C.ar    1  UNL1        0.1278
      2 C          17.4223   37.0662    9.4482 C.ar    1  UNL1        0.0272
      3 C          18.1629   35.9852    9.9274 C.ar    1  UNL1        0.0708
      4 C          18.5326   35.9858   11.2879 C.ar    1  UNL1        0.1297
      5 C          19.2481   34.8320   11.9068 C.3     1  UNL1        0.0727
      6 C          17.5453   38.0793   11.6229 C.ar    1  UNL1        0.3591
      7 O          18.2255   37.0237   12.0612 O.2     1  UNL1       -0.4245
      8 O          17.3450   39.0450   12.4055 O.2     1  UNL1       -0.2431
      9 C          16.9132   40.4368    9.2368 C.2     1  UNL1        0.2496
     10 O          18.1152   40.7312    9.4823 O.2     1  UNL1       -0.2698
     11 N          16.3469   39.2260    9.7556 N.am    1  UNL1       -0.2753
     12 H          15.3657   39.1473    9.7411 H       1  UNL1        0.1554
     13 C          14.4694   43.1405    6.9791 C.ar    1  UNL1        0.1387
     14 C          15.8354   43.4064    7.1649 C.ar    1  UNL1        0.0370
     15 C          16.6311   42.5240    7.9006 C.ar    1  UNL1        0.0076
     16 C          16.0742   41.3656    8.4597 C.ar    1  UNL1        0.0539
     17 C          14.7094   41.1030    8.2730 C.ar    1  UNL1        0.0076
     18 C          13.9134   41.9853    7.5371 C.ar    1  UNL1        0.0370
     19 C          14.1592   45.0728    5.4663 C.3     1  UNL1        0.2525
     20 O          13.6471   44.0027    6.2487 O.3     1  UNL1       -0.4714
     21 C          18.4893   34.8791    9.0026 C.2     1  UNL1        0.1982
     22 O          19.6523   34.8211    8.5182 O.2     1  UNL1       -0.2865
     23 C          17.5116   33.8199    8.6681 C.ar    1  UNL1        0.0390
     24 C          17.9336   32.4866    8.5552 C.ar    1  UNL1        0.0032
     25 C          17.0150   31.4748    8.2604 C.ar    1  UNL1        0.0001
     26 C          15.6647   31.7869    8.0824 C.ar    1  UNL1        0.0000
     27 C          15.2325   33.1101    8.2022 C.ar    1  UNL1        0.0001
     28 C          16.1511   34.1213    8.4971 C.ar    1  UNL1        0.0032
@<TRIPOS>BOND
     1    19    20    1
     2    13    20    1
     3    14    15   ar
     4    16    17   ar
     5    16     9    1
     6    18    13   ar
     7     9    11   am
     8     2     3   ar
     9     3    21    1
    10    21    23    1
    11    24    25   ar
    12    26    27   ar
    13    28    23   ar
    14     4     7   ar
    15     5     4    1
    16     6     7   ar
    17     6     1   ar
    18    11     1    1
    19    13    14   ar
    20    15    16   ar
    21    17    18   ar
    22     9    10    2
    23     1     2   ar
    24     3     4   ar
    25    21    22    2
    26    23    24   ar
    27    25    26   ar
    28    27    28   ar
    29     6     8    2
    30    11    12    1
@<TRIPOS>MOLECULE
MolPort-002-864-401 1385280 CHEMBL1326881 CSSS00025732746 MCULE-5033354806 PubChem-1473622 ZINC000001385280 ZINC01385280
 28 30 0 0 0
SMALL
GASTEIGER

@<TRIPOS>ATOM
      1 C          11.6496   40.7950    9.9440 C.ar    1  UNL1        0.1278
      2 C          12.1805   41.3561    8.7855 C.ar    1  UNL1        0.0272
      3 C          13.5461   41.2609    8.5157 C.ar    1  UNL1        0.0708
      4 C          14.3566   40.5647    9.4355 C.ar    1  UNL1        0.1297
      5 C          15.8099   40.3376    9.1853 C.3     1  UNL1        0.0727
      6 C          12.5329   40.1729   10.8461 C.ar    1  UNL1        0.3591
      7 O          13.8258   40.0714   10.5511 O.2     1  UNL1       -0.4245
      8 O          12.1214   39.7278   11.9497 O.2     1  UNL1       -0.2431
      9 C           9.5382   42.1822   10.3102 C.2     1  UNL1        0.2496
     10 O          10.1719   43.2612   10.4713 O.2     1  UNL1       -0.2698
     11 N          10.2457   40.9400   10.1993 N.am    1  UNL1       -0.2753
     12 H           9.7216   40.1137   10.3080 H       1  UNL1        0.1554
     13 C           5.2515   42.2141   10.2539 C.ar    1  UNL1        0.1387
     14 C           5.9786   42.8132    9.2129 C.ar    1  UNL1        0.0370
     15 C           7.3759   42.8017    9.2322 C.ar    1  UNL1        0.0076
     16 C           8.0651   42.1923   10.2897 C.ar    1  UNL1        0.0539
     17 C           7.3362   41.5954   11.3283 C.ar    1  UNL1        0.0076
     18 C           5.9387   41.6067   11.3092 C.ar    1  UNL1        0.0370
     19 C           3.0834   41.3720    9.4122 C.3     1  UNL1        0.2525
     20 O           3.8541   42.2087   10.2639 O.3     1  UNL1       -0.4714
     21 C          14.0692   41.8560    7.2677 C.2     1  UNL1        0.1982
     22 O          13.4136   41.6961    6.2022 O.2     1  UNL1       -0.2865
     23 C          15.3065   42.6672    7.2421 C.ar    1  UNL1        0.0390
     24 C          15.4000   43.7765    6.3881 C.ar    1  UNL1        0.0032
     25 C          16.5560   44.5625    6.3709 C.ar    1  UNL1        0.0001
     26 C          17.6265   44.2496    7.2128 C.ar    1  UNL1        0.0000
     27 C          17.5398   43.1528    8.0739 C.ar    1  UNL1        0.0001
     28 C          16.3839   42.3674    8.0910 C.ar    1  UNL1        0.0032
@<TRIPOS>BOND
     1    19    20    1
     2    13    20    1
     3    14    15   ar
     4    16    17   ar
     5    16     9    1
     6    18    13   ar
     7     9    11   am
     8     2     3   ar
     9     3    21    1
    10    21    23    1
    11    24    25   ar
    12    26    27   ar
    13    28    23   ar
    14     4     7   ar
    15     5     4    1
    16     6     7   ar
    17     6     1   ar
    18    11     1    1
    19    13    14   ar
    20    15    16   ar
    21    17    18   ar
    22     9    10    2
    23     1     2   ar
    24     3     4   ar
    25    21    22    2
    26    23    24   ar
    27    25    26   ar
    28    27    28   ar
    29     6     8    2
    30    11    12    1
@<TRIPOS>MOLECULE
MolPort-002-864-401 1385280 CHEMBL1326881 CSSS00025732746 MCULE-5033354806 PubChem-1473622 ZINC000001385280 ZINC01385280
 28 30 0 0 0
SMALL
GASTEIGER

@<TRIPOS>ATOM
      1 C           7.9916   40.4088    7.4319 C.ar    1  UNL1        0.1278
      2 C           9.1880   40.9634    7.8790 C.ar    1  UNL1        0.0272
      3 C          10.3532   40.8342    7.1225 C.ar    1  UNL1        0.0708
      4 C          10.2726   40.1500    5.8925 C.ar    1  UNL1        0.1297
      5 C          11.4462   40.0399    4.9777 C.3     1  UNL1        0.0727
      6 C           8.0052   39.6838    6.2255 C.ar    1  UNL1        0.3591
      7 O           9.1233   39.5999    5.5102 O.2     1  UNL1       -0.4245
      8 O           6.9739   39.0866    5.8193 O.2     1  UNL1       -0.2431
      9 C           6.7065   41.3603    9.4216 C.2     1  UNL1        0.2496
     10 O           7.7405   41.8214    9.9784 O.2     1  UNL1       -0.2698
     11 N           6.8226   40.5382    8.2527 N.am    1  UNL1       -0.2753
     12 H           6.0300   40.0165    7.9904 H       1  UNL1        0.1554
     13 C           2.8434   42.1235   11.1169 C.ar    1  UNL1        0.1387
     14 C           3.7672   41.3122   11.7947 C.ar    1  UNL1        0.0370
     15 C           5.0263   41.0645   11.2413 C.ar    1  UNL1        0.0076
     16 C           5.3796   41.6233   10.0053 C.ar    1  UNL1        0.0539
     17 C           4.4545   42.4327    9.3303 C.ar    1  UNL1        0.0076
     18 C           3.1952   42.6806    9.8837 C.ar    1  UNL1        0.0370
     19 C           1.3379   42.5266   13.0376 C.3     1  UNL1        0.2525
     20 O           1.5766   42.3903   11.6434 O.3     1  UNL1       -0.4714
     21 C          11.6001   41.4503    7.6234 C.2     1  UNL1        0.1982
     22 O          11.9979   42.5234    7.0935 O.2     1  UNL1       -0.2865
     23 C          12.3639   40.8730    8.7516 C.ar    1  UNL1        0.0390
     24 C          11.7093   40.5534    9.9508 C.ar    1  UNL1        0.0032
     25 C          12.4168   39.9880   11.0158 C.ar    1  UNL1        0.0001
     26 C          13.7843   39.7310   10.8883 C.ar    1  UNL1        0.0000
     27 C          14.4437   40.0365    9.6951 C.ar    1  UNL1        0.0001
     28 C          13.7361   40.6016    8.6305 C.ar    1  UNL1        0.0032
@<TRIPOS>BOND
     1    19    20    1
     2    13    20    1
     3    14    15   ar
     4    16    17   ar
     5    16     9    1
     6    18    13   ar
     7     9    11   am
     8     2     3   ar
     9     3    21    1
    10    21    23    1
    11    24    25   ar
    12    26    27   ar
    13    28    23   ar
    14     4     7   ar
    15     5     4    1
    16     6     7   ar
    17     6     1   ar
    18    11     1    1
    19    13    14   ar
    20    15    16   ar
    21    17    18   ar
    22     9    10    2
    23     1     2   ar
    24     3     4   ar
    25    21    22    2
    26    23    24   ar
    27    25    26   ar
    28    27    28   ar
    29     6     8    2
    30    11    12    1
@<TRIPOS>MOLECULE
MolPort-002-864-401 1385280 CHEMBL1326881 CSSS00025732746 MCULE-5033354806 PubChem-1473622 ZINC000001385280 ZINC01385280
 28 30 0 0 0
SMALL
GASTEIGER

@<TRIPOS>ATOM
      1 C          10.3792   40.3168    9.7930 C.ar    1  UNL1        0.1278
      2 C           9.1802   40.8548   10.2535 C.ar    1  UNL1        0.0272
      3 C           9.0462   41.2448   11.5864 C.ar    1  UNL1        0.0708
      4 C          10.1620   41.0978   12.4355 C.ar    1  UNL1        0.1297
      5 C          10.1380   41.5688   13.8511 C.3     1  UNL1        0.0727
      6 C          11.4265   40.1407   10.7167 C.ar    1  UNL1        0.3591
      7 O          11.2818   40.5468   11.9749 O.2     1  UNL1       -0.4245
      8 O          12.5000   39.5777   10.3762 O.2     1  UNL1       -0.2431
      9 C           9.3726   39.8192    7.5006 C.2     1  UNL1        0.2496
     10 O           8.1839   39.8419    7.9226 O.2     1  UNL1       -0.2698
     11 N          10.4671   39.9010    8.4232 N.am    1  UNL1       -0.2753
     12 H          11.3575   39.6496    8.0867 H       1  UNL1        0.1554
     13 C          10.1387   39.3415    3.3096 C.ar    1  UNL1        0.1387
     14 C          10.9601   40.1702    4.0903 C.ar    1  UNL1        0.0370
     15 C          10.7096   40.3248    5.4565 C.ar    1  UNL1        0.0076
     16 C           9.6371   39.6544    6.0607 C.ar    1  UNL1        0.0539
     17 C           8.8180   38.8279    5.2782 C.ar    1  UNL1        0.0076
     18 C           9.0684   38.6731    3.9118 C.ar    1  UNL1        0.0370
     19 C          10.3409   37.8895    1.3173 C.3     1  UNL1        0.2525
     20 O          10.3627   39.1660    1.9413 O.3     1  UNL1       -0.4714
     21 C           7.7626   41.8260   12.0333 C.2     1  UNL1        0.1982
     22 O           7.7522   42.5354   13.0760 O.2     1  UNL1       -0.2865
     23 C           6.5077   41.6389   11.2719 C.ar    1  UNL1        0.0390
     24 C           5.5012   40.8004   11.7743 C.ar    1  UNL1        0.0032
     25 C           4.3029   40.6327   11.0739 C.ar    1  UNL1        0.0001
     26 C           4.0982   41.3077    9.8677 C.ar    1  UNL1        0.0000
     27 C           5.0901   42.1525    9.3634 C.ar    1  UNL1        0.0001
     28 C           6.2879   42.3200   10.0640 C.ar    1  UNL1        0.0032
@<TRIPOS>BOND
     1    19    20    1
     2    13    20    1
     3    14    15   ar
     4    16    17   ar
     5    16     9    1
     6    18    13   ar
     7     9    11   am
     8     2     3   ar
     9     3    21    1
    10    21    23    1
    11    24    25   ar
    12    26    27   ar
    13    28    23   ar
    14     4     7   ar
    15     5     4    1
    16     6     7   ar
    17     6     1   ar
    18    11     1    1
    19    13    14   ar
    20    15    16   ar
    21    17    18   ar
    22     9    10    2
    23     1     2   ar
    24     3     4   ar
    25    21    22    2
    26    23    24   ar
    27    25    26   ar
    28    27    28   ar
    29     6     8    2
    30    11    12    1
@<TRIPOS>MOLECULE
MolPort-002-864-401 1385280 CHEMBL1326881 CSSS00025732746 MCULE-5033354806 PubChem-1473622 ZINC000001385280 ZINC01385280
 28 30 0 0 0
SMALL
GASTEIGER

@<TRIPOS>ATOM
      1 C          10.0266   41.9628    9.3098 C.ar    1  UNL1        0.1278
      2 C           8.8282   41.3208    9.0085 C.ar    1  UNL1        0.0272
      3 C           7.6483   42.0532    8.8744 C.ar    1  UNL1        0.0708
      4 C           7.7154   43.4527    9.0302 C.ar    1  UNL1        0.1297
      5 C           6.5226   44.3237    8.8179 C.3     1  UNL1        0.0727
      6 C          10.0011   43.3550    9.5153 C.ar    1  UNL1        0.3591
      7 O           8.8680   44.0326    9.3537 O.2     1  UNL1       -0.4245
      8 O          11.0364   43.9735    9.8770 O.2     1  UNL1       -0.2431
      9 C          11.5688   40.4218   10.6375 C.2     1  UNL1        0.2496
     10 O          10.9841   40.6400   11.7340 O.2     1  UNL1       -0.2698
     11 N          11.2119   41.1710    9.4683 N.am    1  UNL1       -0.2753
     12 H          11.8354   41.1392    8.7071 H       1  UNL1        0.1554
     13 C          14.7372   37.5400   10.4474 C.ar    1  UNL1        0.1387
     14 C          13.7402   37.5636    9.4592 C.ar    1  UNL1        0.0370
     15 C          12.7082   38.5038    9.5220 C.ar    1  UNL1        0.0076
     16 C          12.6581   39.4321   10.5710 C.ar    1  UNL1        0.0539
     17 C          13.6549   39.4057   11.5569 C.ar    1  UNL1        0.0076
     18 C          14.6872   38.4655   11.4943 C.ar    1  UNL1        0.0370
     19 C          16.6373   36.4609    9.2882 C.3     1  UNL1        0.2525
     20 O          15.7822   36.6127   10.4130 O.3     1  UNL1       -0.4714
     21 C           6.3993   41.3371    8.5387 C.2     1  UNL1        0.1982
     22 O           6.3550   40.6707    7.4689 O.2     1  UNL1       -0.2865
     23 C           5.2245   41.3420    9.4383 C.ar    1  UNL1        0.0390
     24 C           5.3970   41.1530   10.8179 C.ar    1  UNL1        0.0032
     25 C           4.2966   41.1767   11.6798 C.ar    1  UNL1        0.0001
     26 C           3.0142   41.3962   11.1701 C.ar    1  UNL1        0.0000
     27 C           2.8326   41.5951    9.7992 C.ar    1  UNL1        0.0001
     28 C           3.9330   41.5715    8.9378 C.ar    1  UNL1        0.0032
@<TRIPOS>BOND
     1    19    20    1
     2    13    20    1
     3    14    15   ar
     4    16    17   ar
     5    16     9    1
     6    18    13   ar
     7     9    11   am
     8     2     3   ar
     9     3    21    1
    10    21    23    1
    11    24    25   ar
    12    26    27   ar
    13    28    23   ar
    14     4     7   ar
    15     5     4    1
    16     6     7   ar
    17     6     1   ar
    18    11     1    1
    19    13    14   ar
    20    15    16   ar
    21    17    18   ar
    22     9    10    2
    23     1     2   ar
    24     3     4   ar
    25    21    22    2
    26    23    24   ar
    27    25    26   ar
    28    27    28   ar
    29     6     8    2
    30    11    12    1
