Molport-046-988-330 MCULE-4942212263 PubChem-110130929
     RDKit          3D

 24 26  0  0  0  0  0  0  0  0999 V2000
   12.8962   44.9345    3.7542 C   0  0  0  0  0  0  0  0  0  0  0  0
   13.8792   44.3912    4.7268 C   0  0  0  0  0  0  0  0  0  0  0  0
   14.3195   42.6609    6.5572 C   0  0  0  0  0  0  0  0  0  0  0  0
   14.8139   41.1809    8.1789 C   0  0  0  0  0  0  0  0  0  0  0  0
   16.0272   41.8603    8.1129 C   0  0  0  0  0  0  0  0  0  0  0  0
   17.2062   41.5732    8.9426 C   0  0  0  0  0  0  0  0  0  0  0  0
   18.3822   42.3191    8.8073 C   0  0  0  0  0  0  0  0  0  0  0  0
   19.4047   41.0302   10.5113 C   0  0  0  0  0  0  0  0  0  0  0  0
   18.2331   40.2845   10.6528 C   0  0  0  0  0  0  0  0  0  0  0  0
   18.1726   39.1762   11.6597 C   0  0  2  0  0  0  0  0  0  0  0  0
   18.1561   37.7918   10.9968 C   0  0  0  0  0  0  0  0  0  0  0  0
   16.8013   37.4786   10.3585 C   0  0  0  0  0  0  0  0  0  0  0  0
   15.6902   37.6103   11.3937 C   0  0  0  0  0  0  0  0  0  0  0  0
   17.0024   39.3453   12.6353 C   0  0  0  0  0  0  0  0  0  0  0  0
   14.6326   39.8341   11.9440 C   0  0  0  0  0  0  0  0  0  0  0  0
   13.3624   39.4361   11.2717 C   0  0  0  0  0  0  0  0  0  0  0  0
   15.0289   44.8999    4.7913 O   0  0  0  0  0  0  0  0  0  0  0  0
   14.7136   40.9811   12.4589 O   0  0  0  0  0  0  0  0  0  0  0  0
   13.4988   43.2995    5.5714 N   0  0  0  0  0  0  0  0  0  0  0  0
   13.8707   41.6336    7.3095 N   0  0  0  0  0  0  0  0  0  0  0  0
   19.4533   42.0307    9.5927 N   0  0  0  0  0  0  0  0  0  0  0  0
   17.1637   40.5718    9.8616 N   0  0  0  0  0  0  0  0  0  0  0  0
   15.7506   38.9361   12.0016 N   0  0  0  0  0  0  0  0  0  0  0  0
   15.9129   43.0596    6.9344 S   0  0  0  0  0  0  0  0  0  0  0  0
  1  2  1  0
  2 19  1  0
  3 24  1  0
  4 20  1  0
  5 24  1  0
  5  6  1  0
  6 22  2  0
  7 21  2  0
  8  9  2  0
 10  9  1  6
 10 11  1  0
 11 12  1  0
 12 13  1  0
 13 23  1  0
 14 23  1  0
 14 10  1  0
 16 15  1  0
 19  3  1  0
 23 15  1  0
  2 17  2  0
  3 20  2  0
  4  5  2  0
  6  7  1  0
  8 21  1  0
  9 22  1  0
 15 18  2  0
M  END
>  <rmsd>  (1) 
0.209469035

$$$$
MolPort-001-631-060 4778425 CSSS00121599782 MCULE-7263481753 PubChem-4613212 ZINC000004778425 ZINC04778425
     RDKit          3D

 26 28  0  0  0  0  0  0  0  0999 V2000
   13.1801   38.6375   11.0239 C   0  0  0  0  0  0  0  0  0  0  0  0
   13.8244   39.9289   11.4918 C   0  0  0  0  0  0  0  0  0  0  0  0
   13.8137   40.9604   10.3780 C   0  0  0  0  0  0  0  0  0  0  0  0
   14.8762   40.6335    9.3418 C   0  0  0  0  0  0  0  0  0  0  0  0
   14.2653   42.7740    6.6319 C   0  0  0  0  0  0  0  0  0  0  0  0
   13.9090   44.3464    4.6678 C   0  0  0  0  0  0  0  0  0  0  0  0
   13.0121   44.7977    3.5898 C   0  0  0  0  0  0  0  0  0  0  0  0
   11.7403   44.2277    3.4462 C   0  0  0  0  0  0  0  0  0  0  0  0
   10.8811   44.6402    2.4159 C   0  0  0  0  0  0  0  0  0  0  0  0
    9.0960   43.0407    3.0820 C   0  0  0  0  0  0  0  0  0  0  0  0
    9.7101   41.7287    2.7243 C   0  0  0  0  0  0  0  0  0  0  0  0
    9.4264   41.1303    1.4913 C   0  0  0  0  0  0  0  0  0  0  0  0
   10.0106   39.9046    1.1573 C   0  0  0  0  0  0  0  0  0  0  0  0
   10.8789   39.2760    2.0554 C   0  0  0  0  0  0  0  0  0  0  0  0
   11.1626   39.8725    3.2878 C   0  0  0  0  0  0  0  0  0  0  0  0
   10.5782   41.0979    3.6222 C   0  0  0  0  0  0  0  0  0  0  0  0
   11.3025   45.6361    1.5297 C   0  0  0  0  0  0  0  0  0  0  0  0
   12.5679   46.2129    1.6670 C   0  0  0  0  0  0  0  0  0  0  0  0
   13.4201   45.7949    2.6928 C   0  0  0  0  0  0  0  0  0  0  0  0
   14.8479   41.6163    8.2723 N   0  0  0  0  0  0  0  0  0  0  0  0
   15.8497   42.4307    7.9883 N   0  0  0  0  0  0  0  0  0  0  0  0
   15.5107   43.1812    6.9522 N   0  0  0  0  0  0  0  0  0  0  0  0
   13.4843   43.3057    5.5578 N   0  0  0  0  0  0  0  0  0  0  0  0
   13.8327   41.7929    7.4439 N   0  0  0  0  0  0  0  0  0  0  0  0
   15.0469   44.8746    4.8005 O   0  0  0  0  0  0  0  0  0  0  0  0
    9.6089   44.0803    2.2523 O   0  0  0  0  0  0  0  0  0  0  0  0
  1  2  1  0
  2  3  1  0
  3  4  1  0
  4 20  1  0
  5 22  1  0
  5 23  1  0
  6  7  1  0
  8  9  2  0
  9 26  1  0
 10 26  1  0
 10 11  1  0
 12 13  2  0
 14 15  2  0
 16 11  2  0
 17 18  2  0
 19  7  2  0
 20 21  1  0
 20 24  1  0
 23  6  1  0
  5 24  2  0
  6 25  2  0
  7  8  1  0
  9 17  1  0
 11 12  1  0
 13 14  1  0
 15 16  1  0
 18 19  1  0
 21 22  2  0
M  END
>  <rmsd>  (2) 
0.162405491

$$$$
MolPort-047-073-850 MCULE-1850452322 PubChem-132772074
     RDKit          3D

 29 32  0  0  0  0  0  0  0  0999 V2000
   15.2119   45.8787    3.8018 C   0  0  0  0  0  0  0  0  0  0  0  0
   14.1130   46.0436    2.9530 C   0  0  0  0  0  0  0  0  0  0  0  0
   13.8759   44.3169    4.6961 C   0  0  0  0  0  0  0  0  0  0  0  0
   14.2211   42.7235    6.6479 C   0  0  0  0  0  0  0  0  0  0  0  0
   16.2100   42.6583    7.9303 C   0  0  0  0  0  0  0  0  0  0  0  0
   15.6805   41.6404    8.7199 C   0  0  0  0  0  0  0  0  0  0  0  0
   14.3896   41.1800    8.4369 C   0  0  0  0  0  0  0  0  0  0  0  0
   13.7624   40.0890    9.2448 C   0  0  2  0  0  0  0  0  0  0  0  0
   13.6121   40.5024   10.7031 C   0  0  0  0  0  0  0  0  0  0  0  0
   12.9708   39.3683   11.4852 C   0  0  0  0  0  0  0  0  0  0  0  0
   13.8101   38.0953   11.3369 C   0  0  0  0  0  0  0  0  0  0  0  0
   12.7086   37.2853    9.3648 C   0  0  0  0  0  0  0  0  0  0  0  0
   12.9143   36.1976    8.4043 C   0  0  0  0  0  0  0  0  0  0  0  0
   14.5725   38.7900    9.1397 C   0  0  0  0  0  0  0  0  0  0  0  0
   16.4396   46.6804    3.6727 C   0  0  0  0  0  0  0  0  0  0  0  0
   18.8833   47.0500    4.7554 C   0  0  0  0  0  0  0  0  0  0  0  0
   19.2422   46.1928    5.9104 C   0  0  0  0  0  0  0  0  0  0  0  0
   17.8889   45.6243    5.7084 C   0  0  0  0  0  0  0  0  0  0  0  0
   12.9440   44.9360    3.4523 S   0  0  0  0  0  0  0  0  0  0  0  0
   13.4470   43.2730    5.5761 N   0  0  0  0  0  0  0  0  0  0  0  0
   15.4758   43.1795    6.9138 N   0  0  0  0  0  0  0  0  0  0  0  0
   13.9896   37.6968    9.9331 N   0  0  0  0  0  0  0  0  0  0  0  0
   13.0767   35.3390    7.6456 N   0  0  0  0  0  0  0  0  0  0  0  0
   13.6906   41.7306    7.4096 N   0  0  0  0  0  0  0  0  0  0  0  0
   15.0769   44.9243    4.7631 N   0  0  0  0  0  0  0  0  0  0  0  0
   17.5397   46.4801    4.5609 N   0  0  0  0  0  0  0  0  0  0  0  0
   16.5273   47.5551    2.7701 O   0  0  0  0  0  0  0  0  0  0  0  0
   20.2618   45.3002    5.6402 F   0  0  0  0  0  0  0  0  0  0  0  0
   19.3763   46.8906    7.0955 F   0  0  0  0  0  0  0  0  0  0  0  0
  1 15  1  0
  1 25  1  0
  2 19  1  0
  3 19  1  0
  3 20  1  0
  4 24  2  0
  5 21  2  0
  6  7  2  0
  8  7  1  6
  8  9  1  0
  9 10  1  0
 10 11  1  0
 11 22  1  0
 12 22  1  0
 12 13  1  0
 14 22  1  0
 14  8  1  0
 15 26  1  0
 16 26  1  0
 16 17  1  0
 17 18  1  0
 17 28  1  0
 17 29  1  0
 18 26  1  0
 20  4  1  0
  1  2  2  0
  3 25  2  0
  4 21  1  0
  5  6  1  0
  7 24  1  0
 15 27  2  0
 13 23  3  0
M  END
>  <rmsd>  (3) 
0.24255164

$$$$
MolPort-002-981-687 MolPort-046-846-370 6204347 CSSS02125562603 ChemDiv-F019-5747 MCULE-4413014932 MCULE-9982046585 PubChem-163328878 PubChem-4239369 ZINC000006204347 ZINC06204347
     RDKit          3D

 21 22  0  0  0  0  0  0  0  0999 V2000
   13.1868   38.6223   11.0191 C   0  0  0  0  0  0  0  0  0  0  0  0
   13.8148   39.9200   11.4917 C   0  0  0  0  0  0  0  0  0  0  0  0
   13.8008   40.9519   10.3784 C   0  0  0  0  0  0  0  0  0  0  0  0
   14.8734   40.6363    9.3490 C   0  0  0  0  0  0  0  0  0  0  0  0
   14.2626   42.7762    6.6382 C   0  0  0  0  0  0  0  0  0  0  0  0
   13.9094   44.3499    4.6805 C   0  0  0  0  0  0  0  0  0  0  0  0
   13.0074   44.7950    3.5862 C   0  0  0  0  0  0  0  0  0  0  0  0
   12.4746   44.1361    1.2625 C   0  0  0  0  0  0  0  0  0  0  0  0
   12.7186   43.2704    0.1906 C   0  0  0  0  0  0  0  0  0  0  0  0
   12.0173   43.4181   -1.0100 C   0  0  0  0  0  0  0  0  0  0  0  0
   12.2827   42.4944   -2.1433 C   0  0  0  0  0  0  0  0  0  0  0  0
   11.0670   44.4341   -1.1446 C   0  0  0  0  0  0  0  0  0  0  0  0
   10.8172   45.3031   -0.0787 C   0  0  0  0  0  0  0  0  0  0  0  0
   11.5182   45.1555    1.1217 C   0  0  0  0  0  0  0  0  0  0  0  0
   14.8438   41.6209    8.2810 N   0  0  0  0  0  0  0  0  0  0  0  0
   15.8398   42.4453    8.0062 N   0  0  0  0  0  0  0  0  0  0  0  0
   15.5017   43.1946    6.9691 N   0  0  0  0  0  0  0  0  0  0  0  0
   13.4843   43.3043    5.5602 N   0  0  0  0  0  0  0  0  0  0  0  0
   13.8333   41.7894    7.4453 N   0  0  0  0  0  0  0  0  0  0  0  0
   15.0480   44.8757    4.7977 O   0  0  0  0  0  0  0  0  0  0  0  0
   13.1917   43.9623    2.4490 O   0  0  0  0  0  0  0  0  0  0  0  0
  1  2  1  0
  2  3  1  0
  3  4  1  0
  4 15  1  0
  5 17  1  0
  5 18  1  0
  7  6  1  0
  7 21  1  0
  8 21  1  0
  9 10  2  0
 11 10  1  0
 12 13  2  0
 14  8  2  0
 15 16  1  0
 15 19  1  0
 18  6  1  0
  5 19  2  0
  6 20  2  0
  8  9  1  0
 10 12  1  0
 13 14  1  0
 16 17  2  0
M  END
>  <rmsd>  (4) 
0.162634179

$$$$
MolPort-047-152-614 MCULE-3835555102 MCULE-4567635678 PubChem-145944756 PubChem-83404161
     RDKit          3D

 16 17  0  0  0  0  0  0  0  0999 V2000
   13.0090   44.8229    3.5809 C   0  0  0  0  0  0  0  0  0  0  0  0
   13.9138   44.3568    4.6634 C   0  0  0  0  0  0  0  0  0  0  0  0
   14.2126   42.7449    6.6338 C   0  0  0  0  0  0  0  0  0  0  0  0
   15.5058   43.1791    6.9634 C   0  0  0  0  0  0  0  0  0  0  0  0
   16.1943   42.6018    8.0334 C   0  0  0  0  0  0  0  0  0  0  0  0
   15.5951   41.5861    8.7819 C   0  0  0  0  0  0  0  0  0  0  0  0
   14.3028   41.1444    8.4612 C   0  0  0  0  0  0  0  0  0  0  0  0
   13.6194   41.7271    7.3885 C   0  0  0  0  0  0  0  0  0  0  0  0
   13.6384   40.0587    9.2464 C   0  0  2  0  0  0  0  0  0  0  0  0
   13.4189   40.4905   10.7006 C   0  0  0  0  0  0  0  0  0  0  0  0
   13.0775   39.2876   11.5775 C   0  0  0  0  0  0  0  0  0  0  0  0
   14.0871   38.1382   11.4119 C   0  0  0  0  0  0  0  0  0  0  0  0
   14.4115   38.7348    9.1317 C   0  0  0  0  0  0  0  0  0  0  0  0
   15.0495   44.8859    4.7892 O   0  0  0  0  0  0  0  0  0  0  0  0
   13.4754   43.3136    5.5430 N   0  0  0  0  0  0  0  0  0  0  0  0
   15.0943   38.4150   10.3840 N   0  0  0  0  0  0  0  0  0  0  0  0
  1  2  1  0
  2 15  1  0
  4  5  2  0
  6  7  2  0
  8  3  2  0
  9  7  1  6
  9 10  1  0
 10 11  1  0
 11 12  1  0
 12 16  1  0
 13 16  1  0
 13  9  1  0
 15  3  1  0
  2 14  2  0
  3  4  1  0
  5  6  1  0
  7  8  1  0
M  END
>  <rmsd>  (5) 
0.240562379

$$$$
Molport-051-666-686 MCULE-6365975377 PubChem-110095411
     RDKit          3D

 26 29  0  0  0  0  0  0  0  0999 V2000
   17.5599   43.0122    8.3708 C   0  0  0  0  0  0  0  0  0  0  0  0
   16.1863   42.5626    8.0259 C   0  0  0  0  0  0  0  0  0  0  0  0
   15.5058   43.1538    6.9638 C   0  0  0  0  0  0  0  0  0  0  0  0
   14.2139   42.7095    6.6625 C   0  0  0  0  0  0  0  0  0  0  0  0
   14.3365   41.1510    8.4438 C   0  0  0  0  0  0  0  0  0  0  0  0
   13.6904   40.0641    9.2370 C   0  0  2  0  0  0  0  0  0  0  0  0
   13.5445   40.4806   10.6994 C   0  0  0  0  0  0  0  0  0  0  0  0
   12.9652   39.3330   11.5198 C   0  0  0  0  0  0  0  0  0  0  0  0
   13.8215   38.0838   11.3290 C   0  0  0  0  0  0  0  0  0  0  0  0
   14.5032   38.7734    9.1395 C   0  0  0  0  0  0  0  0  0  0  0  0
   14.5871   36.4445    9.7787 C   0  0  0  0  0  0  0  0  0  0  0  0
   16.0926   36.5552   10.1079 C   0  0  0  0  0  0  0  0  0  0  0  0
   16.8791   35.3472    9.5798 C   0  0  0  0  0  0  0  0  0  0  0  0
   15.3289   34.6814    8.1041 C   0  0  0  0  0  0  0  0  0  0  0  0
   14.3117   35.7876    8.4192 C   0  0  0  0  0  0  0  0  0  0  0  0
   13.8750   44.3149    4.6970 C   0  0  0  0  0  0  0  0  0  0  0  0
   15.1868   45.8787    3.7826 C   0  0  0  0  0  0  0  0  0  0  0  0
   14.0865   46.0358    2.9403 C   0  0  0  0  0  0  0  0  0  0  0  0
   16.4185   46.6973    3.6362 C   0  0  0  0  0  0  0  0  0  0  0  0
   13.6604   41.7184    7.4102 N   0  0  0  0  0  0  0  0  0  0  0  0
   15.5941   41.5755    8.7456 N   0  0  0  0  0  0  0  0  0  0  0  0
   13.8519   37.7085    9.9134 N   0  0  0  0  0  0  0  0  0  0  0  0
   13.4546   43.2715    5.5839 N   0  0  0  0  0  0  0  0  0  0  0  0
   15.0731   44.9311    4.7517 N   0  0  0  0  0  0  0  0  0  0  0  0
   16.0211   34.2805    9.2601 O   0  0  0  0  0  0  0  0  0  0  0  0
   12.9303   44.9224    3.4559 S   0  0  0  0  0  0  0  0  0  0  0  0
  1  2  1  0
  2 21  2  0
  3  4  2  0
  4 23  1  0
  5 20  2  0
  6  5  1  6
  6  7  1  0
  7  8  1  0
  8  9  1  0
  9 22  1  0
 10 22  1  0
 10  6  1  0
 11 22  1  0
 11 12  1  0
 12 13  1  0
 13 25  1  0
 14 25  1  0
 14 15  1  0
 15 11  1  0
 16 26  1  0
 17 24  1  0
 18 26  1  0
 19 17  1  0
 23 16  1  0
  2  3  1  0
  4 20  1  0
  5 21  1  0
 16 24  2  0
 17 18  2  0
M  END
>  <rmsd>  (6) 
0.243065029

$$$$
Molport-053-323-739 PubChem-110097764
     RDKit          3D

 26 29  0  0  0  0  0  0  0  0999 V2000
   11.2142   35.8239   11.6428 C   0  0  0  0  0  0  0  0  0  0  0  0
   12.1400   33.8590   10.4177 C   0  0  0  0  0  0  0  0  0  0  0  0
   13.2655   34.7955    8.8312 C   0  0  0  0  0  0  0  0  0  0  0  0
   12.6728   35.7695    9.6034 C   0  0  0  0  0  0  0  0  0  0  0  0
   12.8265   37.2437    9.4198 C   0  0  0  0  0  0  0  0  0  0  0  0
   13.9110   38.0984   11.3937 C   0  0  0  0  0  0  0  0  0  0  0  0
   13.0346   39.3462   11.5333 C   0  0  0  0  0  0  0  0  0  0  0  0
   13.6413   40.4908   10.7390 C   0  0  0  0  0  0  0  0  0  0  0  0
   13.7975   40.0696    9.2832 C   0  0  2  0  0  0  0  0  0  0  0  0
   14.6424   38.7916    9.1862 C   0  0  0  0  0  0  0  0  0  0  0  0
   14.3952   41.1705    8.4660 C   0  0  0  0  0  0  0  0  0  0  0  0
   13.6599   41.7098    7.4081 C   0  0  0  0  0  0  0  0  0  0  0  0
   14.2093   42.7374    6.6370 C   0  0  0  0  0  0  0  0  0  0  0  0
   16.1928   42.6960    7.9497 C   0  0  0  0  0  0  0  0  0  0  0  0
   15.6753   41.6692    8.7405 C   0  0  0  0  0  0  0  0  0  0  0  0
   13.8557   44.3270    4.6672 C   0  0  0  0  0  0  0  0  0  0  0  0
   15.4693   45.9026    3.9317 C   0  0  0  0  0  0  0  0  0  0  0  0
   14.5976   46.3278    2.9281 C   0  0  0  0  0  0  0  0  0  0  0  0
   12.9864   44.7544    3.6612 C   0  0  0  0  0  0  0  0  0  0  0  0
   11.9820   35.1811   10.5903 N   0  0  0  0  0  0  0  0  0  0  0  0
   12.9208   33.5947    9.3471 N   0  0  0  0  0  0  0  0  0  0  0  0
   14.0945   37.6914    9.9915 N   0  0  0  0  0  0  0  0  0  0  0  0
   15.4570   43.2034    6.9249 N   0  0  0  0  0  0  0  0  0  0  0  0
   13.4423   43.2831    5.5569 N   0  0  0  0  0  0  0  0  0  0  0  0
   15.0799   44.9130    4.7781 N   0  0  0  0  0  0  0  0  0  0  0  0
   13.3754   45.7444    2.8148 N   0  0  0  0  0  0  0  0  0  0  0  0
  1 20  1  0
  3 21  1  0
  4 20  1  0
  5  4  1  0
  5 22  1  0
  6 22  1  0
  6  7  1  0
  7  8  1  0
  8  9  1  0
  9 10  1  0
  9 11  1  6
 10 22  1  0
 12 13  2  0
 13 24  1  0
 14 23  2  0
 15 11  2  0
 17 25  2  0
 18 26  2  0
 19 16  2  0
 20  2  1  0
 24 16  1  0
  2 21  2  0
  3  4  2  0
 11 12  1  0
 13 23  1  0
 14 15  1  0
 16 25  1  0
 17 18  1  0
 19 26  1  0
M  END
>  <rmsd>  (7) 
0.247666344

$$$$
MolPort-001-630-073 2865909 CHEMBL1306485 CSSS00132429918 MCULE-4256763631 PubChem-2219062 ZINC000002865909 ZINC02865909
     RDKit          3D

 22 23  0  0  0  0  0  0  0  0999 V2000
   13.1704   38.6475   11.0385 C   0  0  0  0  0  0  0  0  0  0  0  0
   13.8304   39.9341   11.4976 C   0  0  0  0  0  0  0  0  0  0  0  0
   13.8212   40.9624   10.3809 C   0  0  0  0  0  0  0  0  0  0  0  0
   14.8726   40.6222    9.3376 C   0  0  0  0  0  0  0  0  0  0  0  0
   14.2659   42.7649    6.6282 C   0  0  0  0  0  0  0  0  0  0  0  0
   13.9143   44.3425    4.6733 C   0  0  0  0  0  0  0  0  0  0  0  0
   12.9933   44.8251    3.6113 C   0  0  0  0  0  0  0  0  0  0  0  0
   11.1634   46.4723    3.3760 C   0  0  0  0  0  0  0  0  0  0  0  0
   10.3682   47.4526    3.9766 C   0  0  0  0  0  0  0  0  0  0  0  0
    9.3814   48.1106    3.2380 C   0  0  0  0  0  0  0  0  0  0  0  0
    9.1798   47.7945    1.8910 C   0  0  0  0  0  0  0  0  0  0  0  0
    9.9754   46.8097    1.2797 C   0  0  0  0  0  0  0  0  0  0  0  0
    9.7929   46.4432   -0.1530 C   0  0  0  0  0  0  0  0  0  0  0  0
   10.9614   46.1545    2.0236 C   0  0  0  0  0  0  0  0  0  0  0  0
   14.8475   41.6035    8.2666 N   0  0  0  0  0  0  0  0  0  0  0  0
   15.8555   42.4071    7.9748 N   0  0  0  0  0  0  0  0  0  0  0  0
   15.5176   43.1597    6.9400 N   0  0  0  0  0  0  0  0  0  0  0  0
   13.4831   43.3046    5.5591 N   0  0  0  0  0  0  0  0  0  0  0  0
   13.8286   41.7894    7.4447 N   0  0  0  0  0  0  0  0  0  0  0  0
   15.0480   44.8765    4.8000 O   0  0  0  0  0  0  0  0  0  0  0  0
   12.1416   45.8323    4.1412 O   0  0  0  0  0  0  0  0  0  0  0  0
    7.9270   48.6485    1.0032 Cl  0  0  0  0  0  0  0  0  0  0  0  0
  1  2  1  0
  2  3  1  0
  3  4  1  0
  4 15  1  0
  5 17  1  0
  5 18  1  0
  7  6  1  0
  7 21  1  0
  8 21  1  0
  9 10  2  0
 11 22  1  0
 11 12  2  0
 13 12  1  0
 14  8  2  0
 15 16  1  0
 15 19  1  0
 18  6  1  0
  5 19  2  0
  6 20  2  0
  8  9  1  0
 10 11  1  0
 12 14  1  0
 16 17  2  0
M  END
>  <rmsd>  (8) 
0.159457415

$$$$
MolPort-001-980-280 871420 MCULE-4930312388 PubChem-1131017 ZINC000000871420 ZINC00871420
     RDKit          3D

 27 29  0  0  0  0  0  0  0  0999 V2000
    9.6451   44.8361   -0.3470 C   0  0  0  0  0  0  0  0  0  0  0  0
   11.6227   45.1539    1.1043 C   0  0  0  0  0  0  0  0  0  0  0  0
   11.1802   44.1972    2.0317 C   0  0  0  0  0  0  0  0  0  0  0  0
   11.9423   43.9121    3.1677 C   0  0  0  0  0  0  0  0  0  0  0  0
   13.1549   44.5780    3.3929 C   0  0  0  0  0  0  0  0  0  0  0  0
   13.5948   45.5325    2.4647 C   0  0  0  0  0  0  0  0  0  0  0  0
   12.8327   45.8179    1.3283 C   0  0  0  0  0  0  0  0  0  0  0  0
   13.9592   44.2751    4.5893 C   0  0  0  0  0  0  0  0  0  0  0  0
   14.2799   42.7215    6.5783 C   0  0  0  0  0  0  0  0  0  0  0  0
   15.6061   42.2952    6.4909 C   0  0  0  0  0  0  0  0  0  0  0  0
   16.4006   42.3685    5.2893 C   0  0  0  0  0  0  0  0  0  0  0  0
   16.0613   41.6800    7.6725 C   0  0  0  0  0  0  0  0  0  0  0  0
   17.4400   41.1205    7.8156 C   0  0  0  0  0  0  0  0  0  0  0  0
   15.0836   41.5949    8.6714 C   0  0  0  0  0  0  0  0  0  0  0  0
   15.2582   41.0404   10.0342 C   0  0  0  0  0  0  0  0  0  0  0  0
   14.2966   40.3709   12.2550 C   0  0  0  0  0  0  0  0  0  0  0  0
   14.2034   38.8757   12.5480 C   0  0  0  0  0  0  0  0  0  0  0  0
   12.9045   38.3110   11.9744 C   0  0  0  0  0  0  0  0  0  0  0  0
   12.8278   38.5698   10.4704 C   0  0  0  0  0  0  0  0  0  0  0  0
   12.9292   40.0673   10.1944 C   0  0  0  0  0  0  0  0  0  0  0  0
   10.8837   45.4618   -0.0413 O   0  0  0  0  0  0  0  0  0  0  0  0
   15.0384   44.8949    4.7950 O   0  0  0  0  0  0  0  0  0  0  0  0
   16.4184   40.9769   10.5244 O   0  0  0  0  0  0  0  0  0  0  0  0
   13.4879   43.3153    5.5429 N   0  0  0  0  0  0  0  0  0  0  0  0
   17.0390   42.4250    4.3255 N   0  0  0  0  0  0  0  0  0  0  0  0
   14.1388   40.5957   10.8202 N   0  0  0  0  0  0  0  0  0  0  0  0
   13.6679   42.2965    8.0802 S   0  0  0  0  0  0  0  0  0  0  0  0
  1 21  1  0
  2 21  1  0
  3  4  2  0
  5  6  2  0
  5  8  1  0
  7  2  2  0
  8 24  1  0
  9 27  1  0
 10 11  1  0
 10 12  1  0
 13 12  1  0
 14 27  1  0
 14 15  1  0
 15 26  1  0
 16 26  1  0
 16 17  1  0
 17 18  1  0
 18 19  1  0
 19 20  1  0
 20 26  1  0
 24  9  1  0
  2  3  1  0
  4  5  1  0
  6  7  1  0
  8 22  2  0
  9 10  2  0
 12 14  2  0
 15 23  2  0
 11 25  3  0
M  END
>  <rmsd>  (9) 
0.208438829

$$$$
MolPort-007-711-095 ChemDiv-D485-0830 MCULE-3941068606 PubChem-20899143
     RDKit          3D

 34 38  0  0  0  0  0  0  0  0999 V2000
   13.3421   39.2162   11.2093 C   0  0  0  0  0  0  0  0  0  0  0  0
   12.1683   39.8179    9.1118 C   0  0  0  0  0  0  0  0  0  0  0  0
   11.8424   40.7995    8.1502 C   0  0  0  0  0  0  0  0  0  0  0  0
   11.0434   40.4563    7.0534 C   0  0  0  0  0  0  0  0  0  0  0  0
   10.5587   39.1550    6.9083 C   0  0  0  0  0  0  0  0  0  0  0  0
   10.8734   38.1831    7.8589 C   0  0  0  0  0  0  0  0  0  0  0  0
   11.6743   38.5120    8.9543 C   0  0  0  0  0  0  0  0  0  0  0  0
   12.3505   42.2183    8.2348 C   0  0  2  0  0  0  0  0  0  0  0  0
   10.6708   42.8509    9.8082 C   0  0  0  0  0  0  0  0  0  0  0  0
   10.3999   43.4445   11.1945 C   0  0  0  0  0  0  0  0  0  0  0  0
   10.1326   45.7268   10.5377 C   0  0  0  0  0  0  0  0  0  0  0  0
   12.3390   44.8760   10.8830 C   0  0  0  0  0  0  0  0  0  0  0  0
   12.5396   44.2300    9.5081 C   0  0  0  0  0  0  0  0  0  0  0  0
   13.8033   42.2563    7.8483 C   0  0  0  0  0  0  0  0  0  0  0  0
   14.3051   42.7838    6.6679 C   0  0  0  0  0  0  0  0  0  0  0  0
   13.9623   44.2294    4.5909 C   0  0  0  0  0  0  0  0  0  0  0  0
   13.1468   44.4511    3.3843 C   0  0  0  0  0  0  0  0  0  0  0  0
   11.9506   43.7425    3.1981 C   0  0  0  0  0  0  0  0  0  0  0  0
   11.1764   43.9507    2.0529 C   0  0  0  0  0  0  0  0  0  0  0  0
   11.5928   44.8687    1.0852 C   0  0  0  0  0  0  0  0  0  0  0  0
   12.7835   45.5787    1.2623 C   0  0  0  0  0  0  0  0  0  0  0  0
   13.5578   45.3705    2.4075 C   0  0  0  0  0  0  0  0  0  0  0  0
   15.6685   42.5750    6.7215 C   0  0  0  0  0  0  0  0  0  0  0  0
   16.6930   42.8188    5.8082 C   0  0  0  0  0  0  0  0  0  0  0  0
   17.9981   42.4479    6.1780 C   0  0  0  0  0  0  0  0  0  0  0  0
   18.2446   41.8391    7.4275 C   0  0  0  0  0  0  0  0  0  0  0  0
   17.1883   41.5844    8.3204 C   0  0  0  0  0  0  0  0  0  0  0  0
   15.9061   41.9612    7.9281 C   0  0  0  0  0  0  0  0  0  0  0  0
   12.9731   40.1535   10.2070 O   0  0  0  0  0  0  0  0  0  0  0  0
   15.0235   44.8886    4.7609 O   0  0  0  0  0  0  0  0  0  0  0  0
   14.7873   41.7802    8.5904 O   0  0  0  0  0  0  0  0  0  0  0  0
   12.1119   42.8307    9.5529 N   0  0  0  0  0  0  0  0  0  0  0  0
   10.9399   44.8047   11.3267 N   0  0  0  0  0  0  0  0  0  0  0  0
   13.5163   43.3059    5.5912 N   0  0  0  0  0  0  0  0  0  0  0  0
  1 29  1  0
  2 29  1  0
  3  4  2  0
  5  6  2  0
  7  2  2  0
  8  3  1  0
  8 32  1  1
  8 14  1  0
  9 32  1  0
  9 10  1  0
 10 33  1  0
 11 33  1  0
 12 33  1  0
 12 13  1  0
 13 32  1  0
 14 31  1  0
 15 34  1  0
 15 23  1  0
 16 17  1  0
 18 19  2  0
 20 21  2  0
 22 17  2  0
 24 25  2  0
 26 27  2  0
 28 31  1  0
 28 23  2  0
 34 16  1  0
  2  3  1  0
  4  5  1  0
  6  7  1  0
 14 15  2  0
 16 30  2  0
 17 18  1  0
 19 20  1  0
 21 22  1  0
 23 24  1  0
 25 26  1  0
 27 28  1  0
M  END
>  <rmsd>  (10) 
0.156032979

$$$$
MolPort-002-626-017 2595778 LN00639015 PubChem-2047979 ZINC000002595778 ZINC02595778
     RDKit          3D

 22 24  0  0  0  0  0  0  0  0999 V2000
   12.7737   39.6648   11.7347 C   0  0  0  0  0  0  0  0  0  0  0  0
   13.7748   38.9491   10.8473 C   0  0  0  0  0  0  0  0  0  0  0  0
   13.9144   39.6688    9.5181 C   0  0  0  0  0  0  0  0  0  0  0  0
   14.7409   40.9332    9.6838 C   0  0  0  0  0  0  0  0  0  0  0  0
   14.3488   42.7016    6.6007 C   0  0  0  0  0  0  0  0  0  0  0  0
   13.9362   44.2702    4.6307 C   0  0  0  0  0  0  0  0  0  0  0  0
   13.0468   44.5849    3.4830 C   0  0  0  0  0  0  0  0  0  0  0  0
   15.7203   42.5007    6.5628 C   0  0  0  0  0  0  0  0  0  0  0  0
   16.7154   42.7714    5.6300 C   0  0  0  0  0  0  0  0  0  0  0  0
   18.0193   42.3528    5.9468 C   0  0  0  0  0  0  0  0  0  0  0  0
   19.0685   42.6052    5.0612 C   0  0  0  0  0  0  0  0  0  0  0  0
   20.3639   42.1869    5.3746 C   0  0  0  0  0  0  0  0  0  0  0  0
   20.6175   41.5134    6.5731 C   0  0  0  0  0  0  0  0  0  0  0  0
   19.5810   41.2485    7.4741 C   0  0  0  0  0  0  0  0  0  0  0  0
   19.8936   40.5255    8.7398 C   0  0  0  0  0  0  0  0  0  0  0  0
   18.2721   41.6634    7.1749 C   0  0  0  0  0  0  0  0  0  0  0  0
   15.9955   41.8295    7.7173 C   0  0  0  0  0  0  0  0  0  0  0  0
   14.8644   41.6193    8.4074 N   0  0  0  0  0  0  0  0  0  0  0  0
   13.8477   42.1426    7.7300 N   0  0  0  0  0  0  0  0  0  0  0  0
   13.5205   43.2994    5.5956 N   0  0  0  0  0  0  0  0  0  0  0  0
   17.2425   41.4053    8.0402 N   0  0  0  0  0  0  0  0  0  0  0  0
   15.0161   44.9022    4.7678 O   0  0  0  0  0  0  0  0  0  0  0  0
  1  2  1  0
  2  3  1  0
  3  4  1  0
  4 18  1  0
  5 20  1  0
  5  8  1  0
  7  6  1  0
  9 10  2  0
 11 12  2  0
 13 14  2  0
 15 14  1  0
 16 21  2  0
 16 10  1  0
 17 18  1  0
 17  8  2  0
 18 19  1  0
 20  6  1  0
  5 19  2  0
  6 22  2  0
  8  9  1  0
 10 11  1  0
 12 13  1  0
 14 16  1  0
 17 21  1  0
M  END
>  <rmsd>  (11) 
0.162369996

$$$$
MolPort-007-686-723 ChemDiv-D039-0033 MCULE-1928752154 PubChem-23605070 ZINC000006809952 ZINC06809952
     RDKit          3D

 23 24  0  0  0  0  0  0  0  0999 V2000
   12.7691   39.2245   11.8038 C   0  0  0  0  0  0  0  0  0  0  0  0
   13.9203   38.9182   10.8689 C   0  0  0  0  0  0  0  0  0  0  0  0
   15.0061   40.6859    9.5413 C   0  0  0  0  0  0  0  0  0  0  0  0
   14.9513   41.6403    8.4149 C   0  0  0  0  0  0  0  0  0  0  0  0
   15.9353   42.5387    8.0191 C   0  0  0  0  0  0  0  0  0  0  0  0
   17.2667   42.7226    8.6620 C   0  0  0  0  0  0  0  0  0  0  0  0
   14.3026   42.8140    6.6586 C   0  0  0  0  0  0  0  0  0  0  0  0
   13.9001   44.3352    4.6637 C   0  0  0  0  0  0  0  0  0  0  0  0
   13.2062   45.7303    2.6266 C   0  0  0  0  0  0  0  0  0  0  0  0
   14.4008   46.4637    2.5540 C   0  0  0  0  0  0  0  0  0  0  0  0
   14.5769   47.4319    1.5611 C   0  0  0  0  0  0  0  0  0  0  0  0
   13.5598   47.6737    0.6339 C   0  0  0  0  0  0  0  0  0  0  0  0
   13.7457   48.7026   -0.4219 C   0  0  0  0  0  0  0  0  0  0  0  0
   12.3677   46.9473    0.7002 C   0  0  0  0  0  0  0  0  0  0  0  0
   12.1931   45.9793    1.6938 C   0  0  0  0  0  0  0  0  0  0  0  0
   13.9031   41.8255    7.5318 C   0  0  0  0  0  0  0  0  0  0  0  0
   12.5937   41.1118    7.5100 C   0  0  0  0  0  0  0  0  0  0  0  0
   13.9189   39.8473    9.7953 O   0  0  0  0  0  0  0  0  0  0  0  0
   16.0326   40.6294   10.2722 O   0  0  0  0  0  0  0  0  0  0  0  0
   15.0325   44.8796    4.7668 O   0  0  0  0  0  0  0  0  0  0  0  0
   15.5429   43.2569    6.9472 N   0  0  0  0  0  0  0  0  0  0  0  0
   13.5020   43.3101    5.5794 N   0  0  0  0  0  0  0  0  0  0  0  0
   12.9885   44.7292    3.6304 N   0  0  0  0  0  0  0  0  0  0  0  0
  1  2  1  0
  2 18  1  0
  3 18  1  0
  3  4  1  0
  5 21  1  0
  6  5  1  0
  7 22  1  0
  8 23  1  0
 10 11  2  0
 12 14  2  0
 13 12  1  0
 15  9  2  0
 16  4  1  0
 17 16  1  0
 21  7  1  0
 22  8  1  0
 23  9  1  0
  3 19  2  0
  4  5  2  0
  7 16  2  0
  8 20  2  0
  9 10  1  0
 11 12  1  0
 14 15  1  0
M  END
>  <rmsd>  (12) 
0.205573291

$$$$
MolPort-003-082-970 4341985 CSSS03437139713 MCULE-6851591878 PubChem-7200170 ZINC000004341985
     RDKit          3D

 27 29  0  0  0  0  0  0  0  0999 V2000
   13.9098   42.1871    7.8341 C   0  0  0  0  0  0  0  0  0  0  0  0
   12.5243   42.1451    8.3216 C   0  0  0  0  0  0  0  0  0  0  0  0
   10.9772   41.3755   10.2292 C   0  0  0  0  0  0  0  0  0  0  0  0
    9.8157   41.8938    9.6339 C   0  0  0  0  0  0  0  0  0  0  0  0
    8.5760   41.7839   10.2638 C   0  0  0  0  0  0  0  0  0  0  0  0
    8.4807   41.1568   11.5043 C   0  0  0  0  0  0  0  0  0  0  0  0
    9.6241   40.6350   12.1100 C   0  0  0  0  0  0  0  0  0  0  0  0
   10.8751   40.7262   11.4879 C   0  0  0  0  0  0  0  0  0  0  0  0
   13.2490   39.9104   11.6128 C   0  0  0  0  0  0  0  0  0  0  0  0
   13.2032   38.6548   10.7626 C   0  0  0  0  0  0  0  0  0  0  0  0
   16.0137   41.8688    7.7887 C   0  0  0  0  0  0  0  0  0  0  0  0
   15.7185   42.5118    6.6112 C   0  0  0  0  0  0  0  0  0  0  0  0
   16.6955   42.7658    5.6495 C   0  0  0  0  0  0  0  0  0  0  0  0
   18.0142   42.3733    5.9397 C   0  0  0  0  0  0  0  0  0  0  0  0
   18.3206   41.7337    7.1601 C   0  0  0  0  0  0  0  0  0  0  0  0
   17.3108   41.4698    8.1028 C   0  0  0  0  0  0  0  0  0  0  0  0
   14.3563   42.7368    6.6348 C   0  0  0  0  0  0  0  0  0  0  0  0
   13.9405   44.2470    4.6206 C   0  0  0  0  0  0  0  0  0  0  0  0
   13.0460   44.5381    3.4685 C   0  0  0  0  0  0  0  0  0  0  0  0
   12.0347   45.5984    3.8562 C   0  0  0  0  0  0  0  0  0  0  0  0
   11.1270   45.8842    2.6789 C   0  0  0  0  0  0  0  0  0  0  0  0
   11.5958   42.6448    7.6314 O   0  0  0  0  0  0  0  0  0  0  0  0
   11.9668   40.1675   12.1735 O   0  0  0  0  0  0  0  0  0  0  0  0
   14.9305   41.6854    8.5069 O   0  0  0  0  0  0  0  0  0  0  0  0
   15.0103   44.8977    4.7541 O   0  0  0  0  0  0  0  0  0  0  0  0
   12.2526   41.5274    9.5870 N   0  0  0  0  0  0  0  0  0  0  0  0
   13.5267   43.2991    5.6090 N   0  0  0  0  0  0  0  0  0  0  0  0
  1  2  1  0
  1 24  1  0
  2 26  1  0
  4  5  2  0
  6  7  2  0
  8 23  1  0
  8  3  2  0
  9 23  1  0
  9 10  1  0
 11 24  1  0
 12 13  2  0
 12 17  1  0
 14 15  2  0
 16 11  2  0
 17 27  1  0
 19 18  1  0
 19 20  1  0
 20 21  1  0
 26  3  1  0
 27 18  1  0
  2 22  2  0
  3  4  1  0
  5  6  1  0
  7  8  1  0
 11 12  1  0
 13 14  1  0
 15 16  1  0
 17  1  2  0
 18 25  2  0
M  END
>  <rmsd>  (13) 
0.188125938

$$$$
Molport-051-896-426
     RDKit          3D

 37 41  0  0  0  0  0  0  0  0999 V2000
   13.3829   39.5621   11.9857 C   0  0  0  0  0  0  0  0  0  0  0  0
   13.5337   38.8855   10.6337 C   0  0  0  0  0  0  0  0  0  0  0  0
   14.7995   40.5982    9.3758 C   0  0  0  0  0  0  0  0  0  0  0  0
   14.8305   41.5844    8.2902 C   0  0  0  0  0  0  0  0  0  0  0  0
   15.8890   42.4131    7.9862 C   0  0  0  0  0  0  0  0  0  0  0  0
   14.2696   42.7724    6.6408 C   0  0  0  0  0  0  0  0  0  0  0  0
   13.9121   44.3349    4.6576 C   0  0  0  0  0  0  0  0  0  0  0  0
   13.0141   44.7527    3.5651 C   0  0  0  0  0  0  0  0  0  0  0  0
   13.4218   45.7183    2.6306 C   0  0  0  0  0  0  0  0  0  0  0  0
   12.5700   46.0936    1.5843 C   0  0  0  0  0  0  0  0  0  0  0  0
   11.3060   45.5050    1.4647 C   0  0  0  0  0  0  0  0  0  0  0  0
   10.4172   45.8737    0.3239 C   0  0  0  0  0  0  0  0  0  0  0  0
    8.1467   46.4365    0.1643 C   0  0  0  0  0  0  0  0  0  0  0  0
    7.4937   47.4944   -0.7311 C   0  0  0  0  0  0  0  0  0  0  0  0
    6.9668   49.7698   -0.9937 C   0  0  0  0  0  0  0  0  0  0  0  0
    5.4854   49.9510   -0.8421 C   0  0  0  0  0  0  0  0  0  0  0  0
    5.0093   50.8034    0.1643 C   0  0  0  0  0  0  0  0  0  0  0  0
    3.6357   51.0053    0.3365 C   0  0  0  0  0  0  0  0  0  0  0  0
    2.7212   50.3542   -0.4950 C   0  0  0  0  0  0  0  0  0  0  0  0
    3.1763   49.4967   -1.5010 C   0  0  0  0  0  0  0  0  0  0  0  0
    2.2542   48.8476   -2.3269 C   0  0  0  0  0  0  0  0  0  0  0  0
    2.7006   47.9928   -3.3400 C   0  0  0  0  0  0  0  0  0  0  0  0
    4.0709   47.7834   -3.5303 C   0  0  0  0  0  0  0  0  0  0  0  0
    5.0003   48.4268   -2.7065 C   0  0  0  0  0  0  0  0  0  0  0  0
    4.5672   49.2871   -1.6838 C   0  0  0  0  0  0  0  0  0  0  0  0
    8.8081   49.2287    0.3610 C   0  0  0  0  0  0  0  0  0  0  0  0
    9.8901   48.1503    0.1923 C   0  0  0  0  0  0  0  0  0  0  0  0
   10.8873   44.5526    2.4010 C   0  0  0  0  0  0  0  0  0  0  0  0
   11.7385   44.1781    3.4460 C   0  0  0  0  0  0  0  0  0  0  0  0
   13.6330   39.8616    9.6027 O   0  0  0  0  0  0  0  0  0  0  0  0
   15.8234   40.4159   10.0920 O   0  0  0  0  0  0  0  0  0  0  0  0
   15.0414   44.8788    4.7910 O   0  0  0  0  0  0  0  0  0  0  0  0
   15.5259   43.1700    6.9314 N   0  0  0  0  0  0  0  0  0  0  0  0
   13.4915   43.3064    5.5638 N   0  0  0  0  0  0  0  0  0  0  0  0
    9.4363   46.8673    0.7385 N   0  0  0  0  0  0  0  0  0  0  0  0
    7.4615   48.7853   -0.0402 N   0  0  0  0  0  0  0  0  0  0  0  0
   13.8033   41.8033    7.4491 N   0  0  0  0  0  0  0  0  0  0  0  0
  1  2  1  0
  2 30  1  0
  3 30  1  0
  3  4  1  0
  5 33  1  0
  6 34  1  0
  6 37  1  0
  7  8  1  0
  9 10  2  0
 11 28  2  0
 12 11  1  0
 12 35  1  0
 13 35  1  0
 13 14  1  0
 14 36  1  0
 15 36  1  0
 15 16  1  0
 17 18  2  0
 19 20  2  0
 21 22  2  0
 23 24  2  0
 25 16  2  0
 25 20  1  0
 26 36  1  0
 26 27  1  0
 27 35  1  0
 29  8  2  0
 34  7  1  0
 37  4  1  0
  3 31  2  0
  4  5  2  0
  6 33  2  0
  7 32  2  0
  8  9  1  0
 10 11  1  0
 16 17  1  0
 18 19  1  0
 20 21  1  0
 22 23  1  0
 24 25  1  0
 28 29  1  0
M  END
>  <rmsd>  (14) 
0.150456727

$$$$
MolPort-002-847-813 386794 CHEMBL1508199 CSSS00121629189 LN01247476 MCULE-3828966775 PubChem-851895 ZINC000000386794 ZINC00386794
     RDKit          3D

 21 22  0  0  0  0  0  0  0  0999 V2000
   12.2371   46.0772    1.8162 C   0  0  0  0  0  0  0  0  0  0  0  0
   13.3841   45.8293    2.7729 C   0  0  0  0  0  0  0  0  0  0  0  0
   13.9020   44.3569    4.6748 C   0  0  0  0  0  0  0  0  0  0  0  0
   14.2664   42.7621    6.6161 C   0  0  0  0  0  0  0  0  0  0  0  0
   16.0289   42.4716    7.9731 C   0  0  0  0  0  0  0  0  0  0  0  0
   17.3974   42.7619    8.4861 C   0  0  0  0  0  0  0  0  0  0  0  0
   15.1728   41.5078    8.5227 C   0  0  0  0  0  0  0  0  0  0  0  0
   15.4883   40.5725    9.6303 C   0  0  0  0  0  0  0  0  0  0  0  0
   14.4411   39.9139   10.4459 C   0  0  0  0  0  0  0  0  0  0  0  0
   13.1308   40.4144   10.4988 C   0  0  0  0  0  0  0  0  0  0  0  0
   12.1635   39.7944   11.2947 C   0  0  0  0  0  0  0  0  0  0  0  0
   12.4995   38.6703   12.0525 C   0  0  0  0  0  0  0  0  0  0  0  0
   13.8030   38.1698   12.0185 C   0  0  0  0  0  0  0  0  0  0  0  0
   14.7691   38.7909   11.2218 C   0  0  0  0  0  0  0  0  0  0  0  0
   13.0299   44.7947    3.6781 O   0  0  0  0  0  0  0  0  0  0  0  0
   15.0444   44.8784    4.7973 O   0  0  0  0  0  0  0  0  0  0  0  0
   16.6976   40.3203    9.8839 O   0  0  0  0  0  0  0  0  0  0  0  0
   13.4799   43.3093    5.5536 N   0  0  0  0  0  0  0  0  0  0  0  0
   15.5179   43.1669    6.9218 N   0  0  0  0  0  0  0  0  0  0  0  0
   13.7408   41.5320    7.6271 S   0  0  0  0  0  0  0  0  0  0  0  0
   11.2890   37.8929   13.0491 Cl  0  0  0  0  0  0  0  0  0  0  0  0
  1  2  1  0
  2 15  1  0
  3 15  1  0
  3 18  1  0
  4 20  1  0
  5 19  1  0
  6  5  1  0
  7 20  1  0
  7  8  1  0
  8  9  1  0
 10 11  2  0
 12 21  1  0
 12 13  2  0
 14  9  2  0
 18  4  1  0
  3 16  2  0
  4 19  2  0
  5  7  2  0
  8 17  2  0
  9 10  1  0
 11 12  1  0
 13 14  1  0
M  END
>  <rmsd>  (15) 
0.187652126

$$$$
MolPort-007-711-014 ChemDiv-D485-0051 MCULE-7455843918 PubChem-20899128
     RDKit          3D

 34 38  0  0  0  0  0  0  0  0999 V2000
   13.7847   42.3160    7.8872 C   0  0  0  0  0  0  0  0  0  0  0  0
   12.3272   42.2713    8.2541 C   0  0  1  0  0  0  0  0  0  0  0  0
   11.8157   40.8563    8.1312 C   0  0  0  0  0  0  0  0  0  0  0  0
   10.9906   40.5510    7.0423 C   0  0  0  0  0  0  0  0  0  0  0  0
   10.4901   39.2586    6.8725 C   0  0  0  0  0  0  0  0  0  0  0  0
   10.8114   38.2590    7.7925 C   0  0  0  0  0  0  0  0  0  0  0  0
   11.6342   38.5511    8.8820 C   0  0  0  0  0  0  0  0  0  0  0  0
   12.1450   39.8474    9.0636 C   0  0  0  0  0  0  0  0  0  0  0  0
   13.3353   39.1834   11.1332 C   0  0  0  0  0  0  0  0  0  0  0  0
   12.4877   44.2645    9.5647 C   0  0  0  0  0  0  0  0  0  0  0  0
   12.1904   44.9503   10.9071 C   0  0  0  0  0  0  0  0  0  0  0  0
   10.2978   43.5224   11.1850 C   0  0  0  0  0  0  0  0  0  0  0  0
   10.6298   42.8340    9.8501 C   0  0  0  0  0  0  0  0  0  0  0  0
   11.0595   44.8407   12.9636 C   0  0  0  0  0  0  0  0  0  0  0  0
   12.0948   44.7883   14.0719 C   0  0  0  0  0  0  0  0  0  0  0  0
   15.8900   42.0490    8.0051 C   0  0  0  0  0  0  0  0  0  0  0  0
   15.6624   42.6276    6.7788 C   0  0  0  0  0  0  0  0  0  0  0  0
   16.6978   42.8645    5.8760 C   0  0  0  0  0  0  0  0  0  0  0  0
   18.0025   42.5263    6.2767 C   0  0  0  0  0  0  0  0  0  0  0  0
   18.2381   41.9549    7.5459 C   0  0  0  0  0  0  0  0  0  0  0  0
   17.1714   41.7045    8.4278 C   0  0  0  0  0  0  0  0  0  0  0  0
   14.2972   42.8161    6.6991 C   0  0  0  0  0  0  0  0  0  0  0  0
   13.9615   44.2251    4.5971 C   0  0  0  0  0  0  0  0  0  0  0  0
   13.1336   44.4410    3.4056 C   0  0  0  0  0  0  0  0  0  0  0  0
   13.4217   45.3113    2.3750 C   0  0  0  0  0  0  0  0  0  0  0  0
   12.3650   45.1732    1.4910 C   0  0  0  0  0  0  0  0  0  0  0  0
   11.5090   44.2333    2.0397 C   0  0  0  0  0  0  0  0  0  0  0  0
   12.9658   40.1484   10.1572 O   0  0  0  0  0  0  0  0  0  0  0  0
   14.7636   41.8700    8.6552 O   0  0  0  0  0  0  0  0  0  0  0  0
   15.0241   44.8848    4.7515 O   0  0  0  0  0  0  0  0  0  0  0  0
   12.0029   43.8206    3.1821 O   0  0  0  0  0  0  0  0  0  0  0  0
   12.0744   42.8554    9.5828 N   0  0  0  0  0  0  0  0  0  0  0  0
   11.5037   44.0434   11.8325 N   0  0  0  0  0  0  0  0  0  0  0  0
   13.5185   43.3057    5.6000 N   0  0  0  0  0  0  0  0  0  0  0  0
  1 29  1  0
  2  1  1  0
  2  3  1  0
  2 32  1  1
  4  5  2  0
  6  7  2  0
  8 28  1  0
  8  3  2  0
  9 28  1  0
 10 32  1  0
 10 11  1  0
 11 33  1  0
 12 33  1  0
 12 13  1  0
 13 32  1  0
 14 33  1  0
 14 15  1  0
 16 29  1  0
 17 18  2  0
 17 22  1  0
 19 20  2  0
 21 16  2  0
 22 34  1  0
 23 24  1  0
 24 31  1  0
 25 26  1  0
 27 31  1  0
 34 23  1  0
  3  4  1  0
  5  6  1  0
  7  8  1  0
 16 17  1  0
 18 19  1  0
 20 21  1  0
 22  1  2  0
 23 30  2  0
 24 25  2  0
 26 27  2  0
M  END
>  <rmsd>  (16) 
0.187959239

$$$$
MolPort-005-127-121 14980547 CHEMBL1502375 CSSS00159539851 PubChem-24817414 ZINC000014980547
     RDKit          3D

 27 29  0  0  0  0  0  0  0  0999 V2000
    8.8823   45.7111    0.6324 C   0  0  0  0  0  0  0  0  0  0  0  0
   11.0820   45.7613    1.7623 C   0  0  0  0  0  0  0  0  0  0  0  0
   10.7312   44.7223    2.6389 C   0  0  0  0  0  0  0  0  0  0  0  0
   11.6442   44.2684    3.5945 C   0  0  0  0  0  0  0  0  0  0  0  0
   12.9184   44.8451    3.6876 C   0  0  0  0  0  0  0  0  0  0  0  0
   13.2659   45.8828    2.8108 C   0  0  0  0  0  0  0  0  0  0  0  0
   12.3529   46.3370    1.8549 C   0  0  0  0  0  0  0  0  0  0  0  0
   13.8804   44.3657    4.6956 C   0  0  0  0  0  0  0  0  0  0  0  0
   14.3412   42.7413    6.6080 C   0  0  0  0  0  0  0  0  0  0  0  0
   15.6349   43.1168    6.9182 C   0  0  0  0  0  0  0  0  0  0  0  0
   15.9727   42.2692    7.9684 C   0  0  0  0  0  0  0  0  0  0  0  0
   12.6528   41.0846    7.3997 C   0  0  0  0  0  0  0  0  0  0  0  0
   11.9556   41.2638    8.7388 C   0  0  0  0  0  0  0  0  0  0  0  0
   10.5973   40.5647    8.7219 C   0  0  0  0  0  0  0  0  0  0  0  0
   10.9933   38.2355    9.4339 C   0  0  0  0  0  0  0  0  0  0  0  0
   12.3930   38.3461    9.9694 C   0  0  0  0  0  0  0  0  0  0  0  0
   13.4525   37.4428    9.4196 C   0  0  0  0  0  0  0  0  0  0  0  0
   12.6293   39.1435   11.0182 C   0  0  0  0  0  0  0  0  0  0  0  0
   13.9731   39.2672   11.6621 C   0  0  0  0  0  0  0  0  0  0  0  0
   11.4661   38.9044    7.1002 C   0  0  0  0  0  0  0  0  0  0  0  0
   12.8260   39.6018    7.1111 C   0  0  0  0  0  0  0  0  0  0  0  0
   10.1920   46.2378    0.7960 O   0  0  0  0  0  0  0  0  0  0  0  0
   15.0243   44.8918    4.7708 O   0  0  0  0  0  0  0  0  0  0  0  0
   13.5093   43.3036    5.5850 N   0  0  0  0  0  0  0  0  0  0  0  0
   14.9345   41.4526    8.2478 N   0  0  0  0  0  0  0  0  0  0  0  0
   13.9507   41.7476    7.4170 N   0  0  0  0  0  0  0  0  0  0  0  0
   10.6870   39.1512    8.3240 N   0  0  0  0  0  0  0  0  0  0  0  0
  1 22  1  0
  2 22  1  0
  3  4  2  0
  5  6  2  0
  5  8  1  0
  7  2  2  0
  8 24  1  0
 10 11  1  0
 12 26  1  0
 12 13  1  0
 13 14  1  0
 14 27  1  0
 15 27  1  0
 15 16  1  0
 17 16  1  0
 19 18  1  0
 20 27  1  0
 20 21  1  0
 21 12  1  0
 24  9  1  0
 26 25  1  0
 26  9  1  0
  2  3  1  0
  4  5  1  0
  6  7  1  0
  8 23  2  0
  9 10  2  0
 11 25  2  0
 16 18  2  0
M  END
>  <rmsd>  (17) 
0.167569205

$$$$
MolPort-007-723-372 ChemDiv-E157-4884 MCULE-8593298101 PubChem-22517958
     RDKit          3D

 24 26  0  0  0  0  0  0  0  0999 V2000
   12.1083   39.0428   11.2661 C   0  0  0  0  0  0  0  0  0  0  0  0
   13.4666   39.6674   11.0279 C   0  0  0  0  0  0  0  0  0  0  0  0
   14.4703   39.0470   11.9813 C   0  0  0  0  0  0  0  0  0  0  0  0
   13.8852   39.4210    9.5878 C   0  0  0  0  0  0  0  0  0  0  0  0
   14.9308   40.3969    9.1584 C   0  0  0  0  0  0  0  0  0  0  0  0
   15.9329   41.9278    8.1278 C   0  0  0  0  0  0  0  0  0  0  0  0
   14.3094   42.6925    6.5780 C   0  0  0  0  0  0  0  0  0  0  0  0
   13.8874   44.3765    4.7005 C   0  0  0  0  0  0  0  0  0  0  0  0
   12.9087   44.8796    3.6937 C   0  0  1  0  0  0  0  0  0  0  0  0
   12.4480   46.2792    4.0522 C   0  0  0  0  0  0  0  0  0  0  0  0
   13.0658   44.0297    1.3747 C   0  0  0  0  0  0  0  0  0  0  0  0
   12.0219   43.1101    1.5710 C   0  0  0  0  0  0  0  0  0  0  0  0
   11.6166   42.2715    0.5285 C   0  0  0  0  0  0  0  0  0  0  0  0
   12.2509   42.3462   -0.7146 C   0  0  0  0  0  0  0  0  0  0  0  0
   13.2902   43.2592   -0.9152 C   0  0  0  0  0  0  0  0  0  0  0  0
   13.6957   44.0980    0.1274 C   0  0  0  0  0  0  0  0  0  0  0  0
   16.1905   40.4842    9.6656 N   0  0  0  0  0  0  0  0  0  0  0  0
   16.8318   41.4610    9.0108 N   0  0  0  0  0  0  0  0  0  0  0  0
   13.4994   43.3056    5.5680 N   0  0  0  0  0  0  0  0  0  0  0  0
   13.8350   41.6795    7.3575 N   0  0  0  0  0  0  0  0  0  0  0  0
   14.7883   41.3061    8.1948 N   0  0  0  0  0  0  0  0  0  0  0  0
   15.9490   43.1151    6.9477 S   0  0  0  0  0  0  0  0  0  0  0  0
   15.0307   44.9009    4.7815 O   0  0  0  0  0  0  0  0  0  0  0  0
   13.4945   44.8805    2.3974 O   0  0  0  0  0  0  0  0  0  0  0  0
  1  2  1  0
  2  3  1  0
  2  4  1  0
  4  5  1  0
  6 22  1  0
  7 22  1  0
  7 19  1  0
  9  8  1  0
  9 10  1  1
  9 24  1  0
 11 24  1  0
 12 13  2  0
 14 15  2  0
 16 11  2  0
 17 18  1  0
 19  8  1  0
 21 20  1  0
 21  5  1  0
 21  6  1  0
  5 17  2  0
  6 18  2  0
  7 20  2  0
  8 23  2  0
 11 12  1  0
 13 14  1  0
 15 16  1  0
M  END
>  <rmsd>  (18) 
0.184018701

$$$$
Molport-047-885-480 PubChem-165941088
     RDKit          3D

 27 28  0  0  0  0  0  0  0  0999 V2000
   12.8187   39.2429   11.8089 C   0  0  0  0  0  0  0  0  0  0  0  0
   13.9778   38.9473   10.8803 C   0  0  0  0  0  0  0  0  0  0  0  0
   15.0414   40.7213    9.5423 C   0  0  0  0  0  0  0  0  0  0  0  0
   14.9710   41.6689    8.4086 C   0  0  0  0  0  0  0  0  0  0  0  0
   15.9378   42.5844    7.9872 C   0  0  0  0  0  0  0  0  0  0  0  0
   14.2916   42.8182    6.6499 C   0  0  0  0  0  0  0  0  0  0  0  0
   13.9098   41.8324    7.5317 C   0  0  0  0  0  0  0  0  0  0  0  0
   12.6528   41.1288    7.5258 C   0  0  0  0  0  0  0  0  0  0  0  0
   13.9050   44.3345    4.6622 C   0  0  0  0  0  0  0  0  0  0  0  0
   13.3824   45.7410    2.7119 C   0  0  0  0  0  0  0  0  0  0  0  0
   12.2630   45.9434    1.7537 C   0  0  0  0  0  0  0  0  0  0  0  0
   11.2503   46.8638    2.0447 C   0  0  0  0  0  0  0  0  0  0  0  0
   10.1850   47.0363    1.1555 C   0  0  0  0  0  0  0  0  0  0  0  0
   10.1285   46.2843   -0.0222 C   0  0  0  0  0  0  0  0  0  0  0  0
   11.1358   45.3581   -0.3097 C   0  0  0  0  0  0  0  0  0  0  0  0
   12.2013   45.1853    0.5794 C   0  0  0  0  0  0  0  0  0  0  0  0
   17.2889   42.8235    8.5910 C   0  0  0  0  0  0  0  0  0  0  0  0
   13.9660   39.8685    9.8001 O   0  0  0  0  0  0  0  0  0  0  0  0
   16.0661   40.6812   10.2756 O   0  0  0  0  0  0  0  0  0  0  0  0
   15.4969   43.2485    6.9396 O   0  0  0  0  0  0  0  0  0  0  0  0
   15.0391   44.8757    4.7782 O   0  0  0  0  0  0  0  0  0  0  0  0
   13.0352   44.7289    3.6460 O   0  0  0  0  0  0  0  0  0  0  0  0
   11.6428   40.5640    7.5207 N   0  0  0  0  0  0  0  0  0  0  0  0
   13.4921   43.3089    5.5690 N   0  0  0  0  0  0  0  0  0  0  0  0
   17.1506   43.2354    9.9035 F   0  0  0  0  0  0  0  0  0  0  0  0
   17.9516   43.8090    7.8822 F   0  0  0  0  0  0  0  0  0  0  0  0
   18.0368   41.6617    8.5441 F   0  0  0  0  0  0  0  0  0  0  0  0
  1  2  1  0
  2 18  1  0
  3 18  1  0
  3  4  1  0
  5 20  1  0
  6 20  1  0
  6 24  1  0
  7  8  1  0
  7  4  1  0
  9 22  1  0
 10 22  1  0
 10 11  1  0
 12 13  2  0
 14 15  2  0
 16 11  2  0
 17  5  1  0
 17 25  1  0
 17 26  1  0
 17 27  1  0
 24  9  1  0
  3 19  2  0
  4  5  2  0
  6  7  2  0
  9 21  2  0
 11 12  1  0
 13 14  1  0
 15 16  1  0
  8 23  3  0
M  END
>  <rmsd>  (19) 
0.20491989

$$$$
MolPort-002-996-116 6138554 CSSS00132429919 MCULE-9708141520 PubChem-4017425 ZINC000006138554 ZINC06138554
     RDKit          3D

 23 24  0  0  0  0  0  0  0  0999 V2000
   13.1731   38.6380   11.0293 C   0  0  0  0  0  0  0  0  0  0  0  0
   13.8238   39.9270   11.4953 C   0  0  0  0  0  0  0  0  0  0  0  0
   13.8141   40.9584   10.3815 C   0  0  0  0  0  0  0  0  0  0  0  0
   14.8722   40.6272    9.3422 C   0  0  0  0  0  0  0  0  0  0  0  0
   14.2634   42.7708    6.6343 C   0  0  0  0  0  0  0  0  0  0  0  0
   13.9133   44.3406    4.6723 C   0  0  0  0  0  0  0  0  0  0  0  0
   13.0171   44.7715    3.5625 C   0  0  0  0  0  0  0  0  0  0  0  0
   13.1686   42.8714    1.9674 C   0  0  0  0  0  0  0  0  0  0  0  0
   13.6897   42.3785    0.7695 C   0  0  0  0  0  0  0  0  0  0  0  0
   13.4392   41.0623    0.3713 C   0  0  0  0  0  0  0  0  0  0  0  0
   14.0198   40.5847   -0.9156 C   0  0  0  0  0  0  0  0  0  0  0  0
   12.6543   40.2190    1.1803 C   0  0  0  0  0  0  0  0  0  0  0  0
   12.1261   40.7152    2.3868 C   0  0  0  0  0  0  0  0  0  0  0  0
   11.2893   39.8634    3.2787 C   0  0  0  0  0  0  0  0  0  0  0  0
   12.3836   42.0331    2.7715 C   0  0  0  0  0  0  0  0  0  0  0  0
   14.8453   41.6104    8.2729 N   0  0  0  0  0  0  0  0  0  0  0  0
   15.8498   42.4203    7.9863 N   0  0  0  0  0  0  0  0  0  0  0  0
   15.5116   43.1722    6.9511 N   0  0  0  0  0  0  0  0  0  0  0  0
   13.4834   43.3043    5.5605 N   0  0  0  0  0  0  0  0  0  0  0  0
   13.8288   41.7914    7.4472 N   0  0  0  0  0  0  0  0  0  0  0  0
   15.0466   44.8760    4.7986 O   0  0  0  0  0  0  0  0  0  0  0  0
   13.4421   44.1947    2.3315 O   0  0  0  0  0  0  0  0  0  0  0  0
   12.3347   38.5545    0.6858 Cl  0  0  0  0  0  0  0  0  0  0  0  0
  1  2  1  0
  2  3  1  0
  3  4  1  0
  4 16  1  0
  5 18  1  0
  5 19  1  0
  7  6  1  0
  7 22  1  0
  8 22  1  0
  9 10  2  0
 11 10  1  0
 12 23  1  0
 12 13  2  0
 14 13  1  0
 15  8  2  0
 16 17  1  0
 16 20  1  0
 19  6  1  0
  5 20  2  0
  6 21  2  0
  8  9  1  0
 10 12  1  0
 13 15  1  0
 17 18  2  0
M  END
>  <rmsd>  (20) 
0.160010487

$$$$
MolPort-008-317-398 36357030 CSSS00160790402 LN00864406 MCULE-2146435263 PubChem-45491985 ZINC000036357030
     RDKit          3D

 31 35  0  0  0  0  0  0  0  0999 V2000
   11.3723   40.2680    9.9506 C   0  0  0  0  0  0  0  0  0  0  0  0
   12.3319   39.6916    8.9635 C   0  0  0  0  0  0  0  0  0  0  0  0
   14.4054   39.5613   10.4283 C   0  0  0  0  0  0  0  0  0  0  0  0
   13.5186   38.6670   11.2913 C   0  0  0  0  0  0  0  0  0  0  0  0
   12.5318   39.4937   12.1115 C   0  0  0  0  0  0  0  0  0  0  0  0
   10.4473   40.8318   11.7816 C   0  0  0  0  0  0  0  0  0  0  0  0
    9.7194   41.3245   10.7375 C   0  0  0  0  0  0  0  0  0  0  0  0
    8.5642   42.0769   10.9339 C   0  0  0  0  0  0  0  0  0  0  0  0
    8.1644   42.3163   12.2620 C   0  0  0  0  0  0  0  0  0  0  0  0
    8.9182   41.8065   13.3428 C   0  0  0  0  0  0  0  0  0  0  0  0
   10.0817   41.0501   13.1100 C   0  0  0  0  0  0  0  0  0  0  0  0
   14.3141   41.1629    8.4868 C   0  0  0  0  0  0  0  0  0  0  0  0
   15.6154   41.6034    8.7799 C   0  0  0  0  0  0  0  0  0  0  0  0
   16.2165   42.6046    8.0138 C   0  0  0  0  0  0  0  0  0  0  0  0
   15.5230   43.1772    6.9460 C   0  0  0  0  0  0  0  0  0  0  0  0
   14.2233   42.7530    6.6366 C   0  0  0  0  0  0  0  0  0  0  0  0
   13.6296   41.7493    7.4083 C   0  0  0  0  0  0  0  0  0  0  0  0
   13.9151   44.3499    4.6556 C   0  0  0  0  0  0  0  0  0  0  0  0
   13.0154   44.7910    3.5526 C   0  0  0  0  0  0  0  0  0  0  0  0
   13.7914   43.3941    1.6488 C   0  0  0  0  0  0  0  0  0  0  0  0
   14.9875   44.1169    1.5058 C   0  0  0  0  0  0  0  0  0  0  0  0
   15.9224   43.7476    0.5344 C   0  0  0  0  0  0  0  0  0  0  0  0
   15.6681   42.6559   -0.3002 C   0  0  0  0  0  0  0  0  0  0  0  0
   14.4789   41.9342   -0.1637 C   0  0  0  0  0  0  0  0  0  0  0  0
   13.5438   42.3035    0.8080 C   0  0  0  0  0  0  0  0  0  0  0  0
   13.6913   40.1313    9.2784 N   0  0  0  0  0  0  0  0  0  0  0  0
   11.4989   40.1523   11.3029 N   0  0  0  0  0  0  0  0  0  0  0  0
   10.2830   40.9826    9.5652 N   0  0  0  0  0  0  0  0  0  0  0  0
   13.4796   43.3153    5.5472 N   0  0  0  0  0  0  0  0  0  0  0  0
   12.8345   43.7386    2.6100 O   0  0  0  0  0  0  0  0  0  0  0  0
   15.0462   44.8888    4.7815 O   0  0  0  0  0  0  0  0  0  0  0  0
  2  1  1  0
  2 26  1  0
  3 26  1  0
  3  4  1  0
  4  5  1  0
  5 27  1  0
  7  8  2  0
  7 28  1  0
  9 10  2  0
 11  6  2  0
 13 14  2  0
 15 16  2  0
 16 29  1  0
 17 12  2  0
 19 18  1  0
 19 30  1  0
 20 30  1  0
 21 22  2  0
 23 24  2  0
 25 20  2  0
 26 12  1  0
 27  6  1  0
 27  1  1  0
 29 18  1  0
  1 28  2  0
  6  7  1  0
  8  9  1  0
 10 11  1  0
 12 13  1  0
 14 15  1  0
 16 17  1  0
 18 31  2  0
 20 21  1  0
 22 23  1  0
 24 25  1  0
M  END
>  <rmsd>  (21) 
0.23363927

$$$$
MolPort-003-112-226 8959242 CSSS03437111492 IFPSXIOGDDLVEH-UHFFFAOYSA-N MCULE-9135975262 PubChem-40887138 ZINC000008959242 ZINC08959242
     RDKit          3D

 34 36  0  0  0  0  0  0  0  0999 V2000
    9.1055   43.0819    3.2224 C   0  0  0  0  0  0  0  0  0  0  0  0
   10.8203   44.7146    2.4843 C   0  0  0  0  0  0  0  0  0  0  0  0
   11.7102   44.2758    3.4777 C   0  0  0  0  0  0  0  0  0  0  0  0
   12.9785   44.8440    3.6161 C   0  0  0  0  0  0  0  0  0  0  0  0
   13.3629   45.8673    2.7469 C   0  0  0  0  0  0  0  0  0  0  0  0
   12.4946   46.3254    1.7456 C   0  0  0  0  0  0  0  0  0  0  0  0
   14.1508   47.9840    0.9433 C   0  0  0  0  0  0  0  0  0  0  0  0
   11.2180   45.7545    1.6057 C   0  0  0  0  0  0  0  0  0  0  0  0
    9.0810   45.8040    0.2954 C   0  0  0  0  0  0  0  0  0  0  0  0
   13.8975   44.3695    4.6657 C   0  0  0  0  0  0  0  0  0  0  0  0
   14.2488   42.7372    6.6156 C   0  0  0  0  0  0  0  0  0  0  0  0
   15.5529   43.1546    6.9054 C   0  0  0  0  0  0  0  0  0  0  0  0
   16.2886   42.5749    7.9448 C   0  0  0  0  0  0  0  0  0  0  0  0
   15.6890   41.5652    8.7430 C   0  0  0  0  0  0  0  0  0  0  0  0
   14.3892   41.1409    8.4261 C   0  0  0  0  0  0  0  0  0  0  0  0
   13.6777   41.7173    7.3745 C   0  0  0  0  0  0  0  0  0  0  0  0
   16.1920   39.5581   10.1670 C   0  0  0  0  0  0  0  0  0  0  0  0
   15.3415   39.3080   11.4104 C   0  0  0  0  0  0  0  0  0  0  0  0
   13.8678   39.5668   11.1491 C   0  0  0  0  0  0  0  0  0  0  0  0
   13.2658   38.4146   10.3678 C   0  0  0  0  0  0  0  0  0  0  0  0
   13.1422   39.7038   12.4705 C   0  0  0  0  0  0  0  0  0  0  0  0
   17.0731   41.8069   10.8184 C   0  0  0  0  0  0  0  0  0  0  0  0
   18.2981   42.5688   10.4008 C   0  0  0  0  0  0  0  0  0  0  0  0
   18.1307   44.0473   10.7160 C   0  0  0  0  0  0  0  0  0  0  0  0
   19.4939   42.0458   11.1738 C   0  0  0  0  0  0  0  0  0  0  0  0
   18.5852   42.3790    8.9184 C   0  0  0  0  0  0  0  0  0  0  0  0
    9.5554   44.1264    2.3693 O   0  0  0  0  0  0  0  0  0  0  0  0
   12.8801   47.3509    0.8745 O   0  0  0  0  0  0  0  0  0  0  0  0
   10.3955   46.2583    0.5838 O   0  0  0  0  0  0  0  0  0  0  0  0
   15.0398   44.8918    4.7795 O   0  0  0  0  0  0  0  0  0  0  0  0
   16.7030   41.8502   12.0241 O   0  0  0  0  0  0  0  0  0  0  0  0
   17.6066   43.0171    8.1071 O   0  0  0  0  0  0  0  0  0  0  0  0
   13.4838   43.3163    5.5500 N   0  0  0  0  0  0  0  0  0  0  0  0
   16.3471   40.9875    9.8872 N   0  0  0  0  0  0  0  0  0  0  0  0
  1 27  1  0
  2 27  1  0
  3  4  2  0
  4 10  1  0
  5  6  2  0
  6 28  1  0
  7 28  1  0
  8 29  1  0
  8  2  2  0
  9 29  1  0
 10 33  1  0
 12 13  2  0
 13 32  1  0
 14 15  2  0
 14 34  1  0
 16 11  2  0
 17 34  1  0
 17 18  1  0
 18 19  1  0
 19 20  1  0
 19 21  1  0
 23 22  1  0
 23 24  1  0
 23 25  1  0
 23 26  1  0
 26 32  1  0
 33 11  1  0
 34 22  1  0
  2  3  1  0
  4  5  1  0
  6  8  1  0
 10 30  2  0
 11 12  1  0
 13 14  1  0
 15 16  1  0
 22 31  2  0
M  END
>  <rmsd>  (22) 
0.231041625

$$$$
MolPort-027-838-698 94993282 BDVCSFQDCLSZMF-UHFFFAOYSA-N CSSS00160854351 LN01937735 MCULE-8355571149 PubChem-75366575 ZINC000094993282 ZINC94993282
     RDKit          3D

 21 22  0  0  0  0  0  0  0  0999 V2000
   13.4500   39.6217   11.9686 C   0  0  0  0  0  0  0  0  0  0  0  0
   13.6329   38.9050   10.6431 C   0  0  0  0  0  0  0  0  0  0  0  0
   14.8406   40.6562    9.3779 C   0  0  0  0  0  0  0  0  0  0  0  0
   14.8389   41.6309    8.2825 C   0  0  0  0  0  0  0  0  0  0  0  0
   15.8737   42.4912    7.9670 C   0  0  0  0  0  0  0  0  0  0  0  0
   14.2540   42.7785    6.6281 C   0  0  0  0  0  0  0  0  0  0  0  0
   13.9198   44.3420    4.6674 C   0  0  0  0  0  0  0  0  0  0  0  0
   13.0142   44.8213    3.5895 C   0  0  0  0  0  0  0  0  0  0  0  0
   12.1101   45.9178    4.1260 C   0  0  0  0  0  0  0  0  0  0  0  0
   11.1877   46.4048    3.0613 C   0  0  0  0  0  0  0  0  0  0  0  0
   10.1908   45.5667    2.5443 C   0  0  0  0  0  0  0  0  0  0  0  0
    9.3204   46.0395    1.5573 C   0  0  0  0  0  0  0  0  0  0  0  0
    9.4412   47.3512    1.0889 C   0  0  0  0  0  0  0  0  0  0  0  0
   10.4309   48.1912    1.6086 C   0  0  0  0  0  0  0  0  0  0  0  0
   11.3017   47.7191    2.5956 C   0  0  0  0  0  0  0  0  0  0  0  0
   13.7195   39.8452    9.5788 O   0  0  0  0  0  0  0  0  0  0  0  0
   15.8511   40.5513   10.1258 O   0  0  0  0  0  0  0  0  0  0  0  0
   15.4650   43.1855    6.9317 O   0  0  0  0  0  0  0  0  0  0  0  0
   15.0536   44.8730    4.8076 O   0  0  0  0  0  0  0  0  0  0  0  0
   13.4774   43.3058    5.5493 N   0  0  0  0  0  0  0  0  0  0  0  0
   13.8041   41.8040    7.4386 N   0  0  0  0  0  0  0  0  0  0  0  0
  1  2  1  0
  2 16  1  0
  3 16  1  0
  3  4  1  0
  4 21  1  0
  5 18  1  0
  6 18  1  0
  6 20  1  0
  8  7  1  0
  8  9  1  0
  9 10  1  0
 11 12  2  0
 13 14  2  0
 15 10  2  0
 20  7  1  0
  3 17  2  0
  4  5  2  0
  6 21  2  0
  7 19  2  0
 10 11  1  0
 12 13  1  0
 14 15  1  0
M  END
>  <rmsd>  (23) 
0.174594134

$$$$
MolPort-004-979-229 CSSS00159754183 MCULE-9377558138 PubChem-45159487
     RDKit          3D

 28 30  0  0  0  0  0  0  0  0999 V2000
   18.0942   47.6971   12.0366 C   0  0  0  0  0  0  0  0  0  0  0  0
   17.3497   46.7915   11.0761 C   0  0  0  0  0  0  0  0  0  0  0  0
   17.9096   46.9345    9.6674 C   0  0  1  0  0  0  0  0  0  0  0  0
   19.2606   46.2482    9.5336 C   0  0  0  0  0  0  0  0  0  0  0  0
   16.5090   45.0647    8.5762 C   0  0  0  0  0  0  0  0  0  0  0  0
   16.9375   44.0667    9.4856 C   0  0  0  0  0  0  0  0  0  0  0  0
   15.6290   42.4681    8.3735 C   0  0  0  0  0  0  0  0  0  0  0  0
   15.2098   40.0891    9.0099 C   0  0  0  0  0  0  0  0  0  0  0  0
   14.3257   40.1928   10.2441 C   0  0  2  0  0  0  0  0  0  0  0  0
   14.5654   39.0116   11.1432 C   0  0  0  0  0  0  0  0  0  0  0  0
   13.2416   38.8247   11.8151 C   0  0  0  0  0  0  0  0  0  0  0  0
   12.2819   39.6499   10.9801 C   0  0  0  0  0  0  0  0  0  0  0  0
   14.2151   41.4322    7.1064 C   0  0  0  0  0  0  0  0  0  0  0  0
   13.3481   40.3738    6.5444 C   0  0  0  0  0  0  0  0  0  0  0  0
   12.6146   38.0236    6.5277 C   0  0  0  0  0  0  0  0  0  0  0  0
   14.3026   42.7458    6.6355 C   0  0  0  0  0  0  0  0  0  0  0  0
   13.8527   44.4458    4.7855 C   0  0  0  0  0  0  0  0  0  0  0  0
   12.8214   45.0676    3.9158 C   0  0  0  0  0  0  0  0  0  0  0  0
   15.1981   43.3971    7.4667 C   0  0  0  0  0  0  0  0  0  0  0  0
   15.6098   44.7233    7.5523 C   0  0  0  0  0  0  0  0  0  0  0  0
   16.9667   46.4198    8.6764 N   0  0  0  0  0  0  0  0  0  0  0  0
   16.4855   42.7825    9.3776 N   0  0  0  0  0  0  0  0  0  0  0  0
   15.0497   41.2708    8.1683 N   0  0  0  0  0  0  0  0  0  0  0  0
   13.5087   43.3082    5.5808 N   0  0  0  0  0  0  0  0  0  0  0  0
   12.9716   40.1911    9.8781 O   0  0  0  0  0  0  0  0  0  0  0  0
   12.5312   40.6516    5.6249 O   0  0  0  0  0  0  0  0  0  0  0  0
   13.4353   39.0680    7.0287 O   0  0  0  0  0  0  0  0  0  0  0  0
   15.0300   44.8910    4.7632 O   0  0  0  0  0  0  0  0  0  0  0  0
  1  2  1  0
  3  2  1  0
  3  4  1  1
  3 21  1  0
  6 22  2  0
  7 23  1  0
  8 23  1  0
  9  8  1  6
  9 10  1  0
  9 25  1  0
 10 11  1  0
 11 12  1  0
 12 25  1  0
 13 14  1  0
 14 27  1  0
 15 27  1  0
 16 24  1  0
 16 19  1  0
 18 17  1  0
 19  7  2  0
 20  5  2  0
 21  5  1  0
 23 13  1  0
 24 17  1  0
  5  6  1  0
  7 22  1  0
 13 16  2  0
 14 26  2  0
 17 28  2  0
 19 20  1  0
M  END
>  <rmsd>  (24) 
0.155582905

$$$$
MolPort-007-711-013 ChemDiv-D485-0047 MCULE-7198466673 PubChem-46269987
     RDKit          3D

 32 36  0  0  0  0  0  0  0  0999 V2000
   13.3434   39.2161   11.2121 C   0  0  0  0  0  0  0  0  0  0  0  0
   12.1700   39.8119    9.1128 C   0  0  0  0  0  0  0  0  0  0  0  0
   11.8424   40.7914    8.1496 C   0  0  0  0  0  0  0  0  0  0  0  0
   11.0453   40.4446    7.0525 C   0  0  0  0  0  0  0  0  0  0  0  0
   10.5643   39.1418    6.9085 C   0  0  0  0  0  0  0  0  0  0  0  0
   10.8809   38.1720    7.8606 C   0  0  0  0  0  0  0  0  0  0  0  0
   11.6798   38.5044    8.9564 C   0  0  0  0  0  0  0  0  0  0  0  0
   12.3468   42.2117    8.2329 C   0  0  2  0  0  0  0  0  0  0  0  0
   12.5561   44.2259    9.5166 C   0  0  0  0  0  0  0  0  0  0  0  0
   12.1327   44.9729   10.7928 C   0  0  0  0  0  0  0  0  0  0  0  0
   10.3303   43.6368   11.0820 C   0  0  0  0  0  0  0  0  0  0  0  0
   10.6581   42.8238    9.8182 C   0  0  0  0  0  0  0  0  0  0  0  0
   13.8001   42.2519    7.8478 C   0  0  0  0  0  0  0  0  0  0  0  0
   14.3030   42.7814    6.6686 C   0  0  0  0  0  0  0  0  0  0  0  0
   13.9635   44.2307    4.5961 C   0  0  0  0  0  0  0  0  0  0  0  0
   13.1443   44.4518    3.4004 C   0  0  0  0  0  0  0  0  0  0  0  0
   13.4394   45.3262    2.3757 C   0  0  0  0  0  0  0  0  0  0  0  0
   12.3910   45.1903    1.4826 C   0  0  0  0  0  0  0  0  0  0  0  0
   11.5323   44.2468    2.0206 C   0  0  0  0  0  0  0  0  0  0  0  0
   15.6668   42.5744    6.7240 C   0  0  0  0  0  0  0  0  0  0  0  0
   16.6924   42.8209    5.8129 C   0  0  0  0  0  0  0  0  0  0  0  0
   17.9973   42.4512    6.1842 C   0  0  0  0  0  0  0  0  0  0  0  0
   18.2426   41.8408    7.4332 C   0  0  0  0  0  0  0  0  0  0  0  0
   17.1852   41.5834    8.3240 C   0  0  0  0  0  0  0  0  0  0  0  0
   15.9032   41.9592    7.9302 C   0  0  0  0  0  0  0  0  0  0  0  0
   12.9728   40.1510   10.2084 O   0  0  0  0  0  0  0  0  0  0  0  0
   11.5042   44.1031   11.7046 O   0  0  0  0  0  0  0  0  0  0  0  0
   15.0248   44.8896    4.7604 O   0  0  0  0  0  0  0  0  0  0  0  0
   12.0171   43.8302    3.1653 O   0  0  0  0  0  0  0  0  0  0  0  0
   14.7836   41.7760    8.5906 O   0  0  0  0  0  0  0  0  0  0  0  0
   12.1042   42.8265    9.5496 N   0  0  0  0  0  0  0  0  0  0  0  0
   13.5156   43.3059    5.5919 N   0  0  0  0  0  0  0  0  0  0  0  0
  1 26  1  0
  2 26  1  0
  3  4  2  0
  5  6  2  0
  7  2  2  0
  8  3  1  0
  8 31  1  1
  8 13  1  0
  9 31  1  0
  9 10  1  0
 10 27  1  0
 11 27  1  0
 11 12  1  0
 12 31  1  0
 13 30  1  0
 14 32  1  0
 14 20  1  0
 15 16  1  0
 16 29  1  0
 17 18  1  0
 19 29  1  0
 21 22  2  0
 23 24  2  0
 25 30  1  0
 25 20  2  0
 32 15  1  0
  2  3  1  0
  4  5  1  0
  6  7  1  0
 13 14  2  0
 15 28  2  0
 16 17  2  0
 18 19  2  0
 20 21  1  0
 22 23  1  0
 24 25  1  0
M  END
>  <rmsd>  (25) 
0.15492186

$$$$
MolPort-002-278-585 1077129 CHEMBL1366508 CSSS00160326221 ChemDiv-D039-0089 MCULE-8992737878 PubChem-1264627 ZINC000001077129 ZINC01077129
     RDKit          3D

 30 32  0  0  0  0  0  0  0  0999 V2000
   12.7798   39.2599   11.8276 C   0  0  0  0  0  0  0  0  0  0  0  0
   13.9091   38.9262   10.8756 C   0  0  0  0  0  0  0  0  0  0  0  0
   15.0115   40.6664    9.5252 C   0  0  0  0  0  0  0  0  0  0  0  0
   14.9591   41.6184    8.3969 C   0  0  0  0  0  0  0  0  0  0  0  0
   15.9558   42.4943    7.9826 C   0  0  0  0  0  0  0  0  0  0  0  0
   17.3011   42.6513    8.6035 C   0  0  0  0  0  0  0  0  0  0  0  0
   14.3079   42.8006    6.6473 C   0  0  0  0  0  0  0  0  0  0  0  0
   13.9060   44.3271    4.6569 C   0  0  0  0  0  0  0  0  0  0  0  0
   13.3059   45.5508    2.4992 C   0  0  0  0  0  0  0  0  0  0  0  0
   12.4019   46.2597    1.7359 C   0  0  0  0  0  0  0  0  0  0  0  0
   10.9403   46.3927    2.0049 C   0  0  0  0  0  0  0  0  0  0  0  0
   12.4500   47.7197   -0.2807 C   0  0  0  0  0  0  0  0  0  0  0  0
   14.5168   45.7074    1.8480 C   0  0  0  0  0  0  0  0  0  0  0  0
   15.3731   46.8965   -0.1728 C   0  0  0  0  0  0  0  0  0  0  0  0
   16.7076   47.0221    0.2470 C   0  0  0  0  0  0  0  0  0  0  0  0
   17.7067   47.3935   -0.6571 C   0  0  0  0  0  0  0  0  0  0  0  0
   17.3827   47.6405   -1.9931 C   0  0  0  0  0  0  0  0  0  0  0  0
   16.0603   47.5143   -2.4246 C   0  0  0  0  0  0  0  0  0  0  0  0
   15.0622   47.1427   -1.5194 C   0  0  0  0  0  0  0  0  0  0  0  0
   13.9013   41.8234    7.5298 C   0  0  0  0  0  0  0  0  0  0  0  0
   12.5770   41.1374    7.5306 C   0  0  0  0  0  0  0  0  0  0  0  0
   13.9107   39.8519    9.7991 O   0  0  0  0  0  0  0  0  0  0  0  0
   16.0480   40.5900   10.2400 O   0  0  0  0  0  0  0  0  0  0  0  0
   15.0319   44.8820    4.7695 O   0  0  0  0  0  0  0  0  0  0  0  0
   15.6039   45.1524    2.1609 O   0  0  0  0  0  0  0  0  0  0  0  0
   15.5620   43.2173    6.9145 N   0  0  0  0  0  0  0  0  0  0  0  0
   13.5021   43.3091    5.5777 N   0  0  0  0  0  0  0  0  0  0  0  0
   12.9895   44.7418    3.6400 N   0  0  0  0  0  0  0  0  0  0  0  0
   13.0575   46.8299    0.7015 N   0  0  0  0  0  0  0  0  0  0  0  0
   14.3470   46.4993    0.7635 N   0  0  0  0  0  0  0  0  0  0  0  0
  1  2  1  0
  2 22  1  0
  3 22  1  0
  3  4  1  0
  5 26  1  0
  6  5  1  0
  7 27  1  0
  8 28  1  0
 10 29  1  0
 11 10  1  0
 12 29  1  0
 13  9  1  0
 15 16  2  0
 17 18  2  0
 19 14  2  0
 20  4  1  0
 21 20  1  0
 26  7  1  0
 27  8  1  0
 28  9  1  0
 29 30  1  0
 30 13  1  0
 30 14  1  0
  3 23  2  0
  4  5  2  0
  7 20  2  0
  8 24  2  0
  9 10  2  0
 13 25  2  0
 14 15  1  0
 16 17  1  0
 18 19  1  0
M  END
>  <rmsd>  (26) 
0.197364062

$$$$
MolPort-003-022-299 CSSS01006092655 LN01393284 MCULE-4198873419 PubChem-4094527
     RDKit          3D

 32 36  0  0  0  0  0  0  0  0999 V2000
   15.0516   44.8744    4.8058 O   0  0  0  0  0  0  0  0  0  0  0  0
   16.6741   40.0131    9.5336 O   0  0  0  0  0  0  0  0  0  0  0  0
   14.3997   44.8481    1.6819 O   0  0  0  0  0  0  0  0  0  0  0  0
   13.0203   46.3311    3.5689 O   0  0  0  0  0  0  0  0  0  0  0  0
   13.8927   44.3882    4.7002 C   0  0  0  0  0  0  0  0  0  0  0  0
   14.2428   42.7639    6.6150 C   0  0  0  0  0  0  0  0  0  0  0  0
   15.9517   42.5508    8.0656 C   0  0  0  0  0  0  0  0  0  0  0  0
   15.1425   41.4853    8.5024 C   0  0  0  0  0  0  0  0  0  0  0  0
   15.4872   40.4375    9.4875 C   0  0  0  0  0  0  0  0  0  0  0  0
   14.4749   39.8473   10.3923 C   0  0  0  0  0  0  0  0  0  0  0  0
   14.7805   38.6868   11.1205 C   0  0  0  0  0  0  0  0  0  0  0  0
   13.8429   38.1294   11.9947 C   0  0  0  0  0  0  0  0  0  0  0  0
   12.5929   38.7319   12.1549 C   0  0  0  0  0  0  0  0  0  0  0  0
   12.2809   39.8920   11.4415 C   0  0  0  0  0  0  0  0  0  0  0  0
   13.2187   40.4484   10.5669 C   0  0  0  0  0  0  0  0  0  0  0  0
   17.2308   42.9659    8.6811 C   0  0  0  0  0  0  0  0  0  0  0  0
   18.1794   43.6514    7.9086 C   0  0  0  0  0  0  0  0  0  0  0  0
   19.3791   44.0855    8.4797 C   0  0  0  0  0  0  0  0  0  0  0  0
   19.6359   43.8467    9.8322 C   0  0  0  0  0  0  0  0  0  0  0  0
   18.6908   43.1796   10.6146 C   0  0  0  0  0  0  0  0  0  0  0  0
   17.4916   42.7466   10.0425 C   0  0  0  0  0  0  0  0  0  0  0  0
   12.9545   44.9020    3.6539 C   0  0  2  0  0  0  0  0  0  0  0  0
   13.2529   44.2545    2.2944 C   0  0  0  0  0  0  0  0  0  0  0  0
   14.6363   46.2210    1.7758 C   0  0  0  0  0  0  0  0  0  0  0  0
   15.5749   46.8405    0.9466 C   0  0  0  0  0  0  0  0  0  0  0  0
   15.7835   48.2205    1.0429 C   0  0  0  0  0  0  0  0  0  0  0  0
   15.0560   48.9782    1.9685 C   0  0  0  0  0  0  0  0  0  0  0  0
   14.1249   48.3559    2.8070 C   0  0  0  0  0  0  0  0  0  0  0  0
   13.9228   46.9759    2.7172 C   0  0  0  0  0  0  0  0  0  0  0  0
   13.4714   43.3108    5.5420 N   0  0  0  0  0  0  0  0  0  0  0  0
   15.4365   43.2496    7.0154 N   0  0  0  0  0  0  0  0  0  0  0  0
   13.7632   41.4470    7.5310 S   0  0  0  0  0  0  0  0  0  0  0  0
  5 30  1  0
  6 32  1  0
  7 31  1  0
  7 16  1  0
  8 32  1  0
  8  9  1  0
  9 10  1  0
 11 12  2  0
 13 14  2  0
 15 10  2  0
 17 18  2  0
 19 20  2  0
 21 16  2  0
 22  5  1  1
 22 23  1  0
 22  4  1  0
 23  3  1  0
 24  3  1  0
 25 26  2  0
 27 28  2  0
 29  4  1  0
 29 24  2  0
 30  6  1  0
  5  1  2  0
  6 31  2  0
  7  8  2  0
  9  2  2  0
 10 11  1  0
 12 13  1  0
 14 15  1  0
 16 17  1  0
 18 19  1  0
 20 21  1  0
 24 25  1  0
 26 27  1  0
 28 29  1  0
M  END
>  <rmsd>  (27) 
0.194342539

$$$$
MolPort-002-787-956 36617993 CSSS00133001352 MCULE-7283028708 PubChem-44824205 ZINC000036617993
     RDKit          3D

 30 33  0  0  0  0  0  0  0  0999 V2000
   12.0695   46.5428    2.1633 C   0  0  0  0  0  0  0  0  0  0  0  0
   13.6998   47.3439    3.3293 C   0  0  0  0  0  0  0  0  0  0  0  0
   14.7664   47.6004    4.3342 C   0  0  0  0  0  0  0  0  0  0  0  0
   12.9640   46.1826    3.1331 C   0  0  0  0  0  0  0  0  0  0  0  0
   12.9331   44.8926    3.6951 C   0  0  0  0  0  0  0  0  0  0  0  0
   13.8812   44.3957    4.7120 C   0  0  0  0  0  0  0  0  0  0  0  0
   14.2996   42.7117    6.5827 C   0  0  0  0  0  0  0  0  0  0  0  0
   14.7634   40.3464    9.1821 C   0  0  0  0  0  0  0  0  0  0  0  0
   14.1093   40.8996   10.4371 C   0  0  0  0  0  0  0  0  0  0  0  0
   14.0059   39.8211   11.5002 C   0  0  0  0  0  0  0  0  0  0  0  0
   12.8868   38.8529   11.1654 C   0  0  0  0  0  0  0  0  0  0  0  0
   15.8853   42.2214    7.9617 C   0  0  0  0  0  0  0  0  0  0  0  0
   15.5854   43.1024    6.9399 C   0  0  0  0  0  0  0  0  0  0  0  0
   17.1640   42.2001    8.7263 C   0  0  0  0  0  0  0  0  0  0  0  0
   11.9326   44.0235    3.2153 C   0  0  0  0  0  0  0  0  0  0  0  0
   11.0282   44.4409    2.2107 C   0  0  0  0  0  0  0  0  0  0  0  0
    9.9921   43.5231    1.7149 C   0  0  0  0  0  0  0  0  0  0  0  0
    9.7851   42.2201    2.1461 C   0  0  0  0  0  0  0  0  0  0  0  0
    8.7077   41.7869    1.3900 C   0  0  0  0  0  0  0  0  0  0  0  0
    7.2233   42.7514   -0.3541 C   0  0  0  0  0  0  0  0  0  0  0  0
    5.9787   43.3136    0.3052 C   0  0  0  0  0  0  0  0  0  0  0  0
   12.2603   47.7838    1.7999 O   0  0  0  0  0  0  0  0  0  0  0  0
   15.0372   44.8862    4.8007 O   0  0  0  0  0  0  0  0  0  0  0  0
   13.2398   48.3015    2.4895 N   0  0  0  0  0  0  0  0  0  0  0  0
   13.4926   43.3053    5.5592 N   0  0  0  0  0  0  0  0  0  0  0  0
   13.8701   41.6821    7.3360 N   0  0  0  0  0  0  0  0  0  0  0  0
   14.8502   41.3872    8.1694 N   0  0  0  0  0  0  0  0  0  0  0  0
   11.1155   45.7034    1.6950 N   0  0  0  0  0  0  0  0  0  0  0  0
    8.3378   42.7921    0.5766 N   0  0  0  0  0  0  0  0  0  0  0  0
    9.1001   43.8526    0.7646 N   0  0  0  0  0  0  0  0  0  0  0  0
  1 22  1  0
  1 28  2  0
  2  4  1  0
  3  2  1  0
  4  5  2  0
  5  6  1  0
  6 25  1  0
  8 27  1  0
  8  9  1  0
  9 10  1  0
 10 11  1  0
 13  7  1  0
 14 12  1  0
 15 16  2  0
 16 17  1  0
 17 18  1  0
 19 29  1  0
 20 29  1  0
 20 21  1  0
 22 24  1  0
 25  7  1  0
 27 26  1  0
 27 12  1  0
 29 30  1  0
  2 24  2  0
  4  1  1  0
  5 15  1  0
  6 23  2  0
  7 26  2  0
 12 13  2  0
 16 28  1  0
 17 30  2  0
 18 19  2  0
M  END
>  <rmsd>  (28) 
0.150939867

$$$$
MolPort-021-753-313 72410854 CSSS00159812936 MCULE-3609066862 PubChem-70723644 ZINC000072410854
     RDKit          3D

 27 29  0  0  0  0  0  0  0  0999 V2000
   11.5721   43.6887    1.9736 C   0  0  0  0  0  0  0  0  0  0  0  0
   10.8217   44.7862    3.8832 C   0  0  0  0  0  0  0  0  0  0  0  0
   13.1101   44.6768    3.4201 C   0  0  0  0  0  0  0  0  0  0  0  0
   13.9414   44.2997    4.6069 C   0  0  0  0  0  0  0  0  0  0  0  0
   14.2753   42.7315    6.5811 C   0  0  0  0  0  0  0  0  0  0  0  0
   15.5635   42.2037    6.3421 C   0  0  0  0  0  0  0  0  0  0  0  0
   16.1652   42.1668    4.9788 C   0  0  0  0  0  0  0  0  0  0  0  0
   16.2829   41.6282    7.3937 C   0  0  0  0  0  0  0  0  0  0  0  0
   15.7346   41.5480    8.6809 C   0  0  0  0  0  0  0  0  0  0  0  0
   14.4507   42.0615    8.9069 C   0  0  0  0  0  0  0  0  0  0  0  0
   13.7247   42.6367    7.8626 C   0  0  0  0  0  0  0  0  0  0  0  0
   17.8354   41.1501    9.9079 C   0  0  0  0  0  0  0  0  0  0  0  0
   18.2013   40.5723   11.1087 C   0  0  0  0  0  0  0  0  0  0  0  0
   16.0908   40.3228   10.8597 C   0  0  0  0  0  0  0  0  0  0  0  0
   14.7207   39.8195   11.0964 C   0  0  0  0  0  0  0  0  0  0  0  0
   14.1652   39.8242   12.3899 C   0  0  0  0  0  0  0  0  0  0  0  0
   12.8817   39.3060   12.6040 C   0  0  0  0  0  0  0  0  0  0  0  0
   12.1552   38.7690   11.5385 C   0  0  0  0  0  0  0  0  0  0  0  0
   12.7079   38.7454   10.2568 C   0  0  0  0  0  0  0  0  0  0  0  0
   13.9866   39.2630   10.0389 C   0  0  0  0  0  0  0  0  0  0  0  0
   11.8693   43.9176    3.3755 N   0  0  0  0  0  0  0  0  0  0  0  0
   13.4790   43.3174    5.5433 N   0  0  0  0  0  0  0  0  0  0  0  0
   16.5072   40.9913    9.7588 N   0  0  0  0  0  0  0  0  0  0  0  0
   17.1067   40.0554   11.7028 N   0  0  0  0  0  0  0  0  0  0  0  0
   15.0394   44.8887    4.7914 O   0  0  0  0  0  0  0  0  0  0  0  0
   14.8544   40.3465   13.4364 F   0  0  0  0  0  0  0  0  0  0  0  0
   12.3385   39.3215   13.8456 F   0  0  0  0  0  0  0  0  0  0  0  0
  1 21  1  0
  2 21  1  0
  3 21  1  0
  3  4  1  0
  4 22  1  0
  6  8  2  0
  7  6  1  0
  9 10  2  0
  9 23  1  0
 11  5  2  0
 13 24  1  0
 14 15  1  0
 14 23  1  0
 16 26  1  0
 16 17  2  0
 17 27  1  0
 18 19  2  0
 20 15  2  0
 22  5  1  0
 23 12  1  0
  4 25  2  0
  5  6  1  0
  8  9  1  0
 10 11  1  0
 12 13  2  0
 14 24  2  0
 15 16  1  0
 17 18  1  0
 19 20  1  0
M  END
>  <rmsd>  (29) 
0.233127519

$$$$
MolPort-007-595-937 CSSS00025689140 MCULE-2591272368 PubChem-22423742
     RDKit          3D

 19 20  0  0  0  0  0  0  0  0999 V2000
   13.4834   39.4307   11.2674 C   0  0  0  0  0  0  0  0  0  0  0  0
   13.4482   40.4342   10.1346 C   0  0  1  0  0  0  0  0  0  0  0  0
   14.5656   40.1222    9.1528 C   0  0  0  0  0  0  0  0  0  0  0  0
   14.7981   41.2655    8.2227 C   0  0  0  0  0  0  0  0  0  0  0  0
   14.2765   42.6932    6.5690 C   0  0  0  0  0  0  0  0  0  0  0  0
   13.8775   44.4057    4.7129 C   0  0  0  0  0  0  0  0  0  0  0  0
   12.9490   44.9596    3.6975 C   0  0  0  0  0  0  0  0  0  0  0  0
   11.5401   44.7989    3.7487 C   0  0  0  0  0  0  0  0  0  0  0  0
   10.7413   45.3462    2.7386 C   0  0  0  0  0  0  0  0  0  0  0  0
   11.3143   46.0519    1.6805 C   0  0  0  0  0  0  0  0  0  0  0  0
   12.6963   46.2235    1.6273 C   0  0  0  0  0  0  0  0  0  0  0  0
   13.5042   45.6831    2.6290 C   0  0  0  0  0  0  0  0  0  0  0  0
   12.2124   40.3571    9.4914 O   0  0  0  0  0  0  0  0  0  0  0  0
   15.0400   44.8856    4.8088 O   0  0  0  0  0  0  0  0  0  0  0  0
   15.9758   41.9502    8.2365 N   0  0  0  0  0  0  0  0  0  0  0  0
   13.4842   43.3085    5.5470 N   0  0  0  0  0  0  0  0  0  0  0  0
   13.8501   41.6533    7.3122 N   0  0  0  0  0  0  0  0  0  0  0  0
   15.8139   43.1053    7.0530 S   0  0  0  0  0  0  0  0  0  0  0  0
   10.7008   43.9895    5.0651 Cl  0  0  0  0  0  0  0  0  0  0  0  0
  2  1  1  1
  2 13  1  0
  2  3  1  0
  3  4  1  0
  4 17  1  0
  5 18  1  0
  5 16  1  0
  6  7  1  0
  8 19  1  0
  8  9  2  0
 10 11  2  0
 12  7  2  0
 15 18  1  0
 16  6  1  0
  4 15  2  0
  5 17  2  0
  6 14  2  0
  7  8  1  0
  9 10  1  0
 11 12  1  0
M  END
>  <rmsd>  (30) 
0.203366101

$$$$
MolPort-008-194-644 40745923 CSSS03437773503 MCULE-1851492700 PubChem-51999182 ZINC000040745923 ZINC40745923
     RDKit          3D

 23 24  0  0  0  0  0  0  0  0999 V2000
   11.3015   39.6010    7.9347 C   0  0  0  0  0  0  0  0  0  0  0  0
   11.3003   38.9676    9.3104 C   0  0  0  0  0  0  0  0  0  0  0  0
   12.5590   38.4052   11.0366 C   0  0  0  0  0  0  0  0  0  0  0  0
   13.8265   38.9445   11.6812 C   0  0  0  0  0  0  0  0  0  0  0  0
   13.7674   40.4600   11.8348 C   0  0  0  0  0  0  0  0  0  0  0  0
   14.9950   41.0985    9.7056 C   0  0  0  0  0  0  0  0  0  0  0  0
   14.9501   41.7041    8.3707 C   0  0  0  0  0  0  0  0  0  0  0  0
   16.4090   42.3997    5.2176 C   0  0  0  0  0  0  0  0  0  0  0  0
   14.3086   42.6965    6.5656 C   0  0  0  0  0  0  0  0  0  0  0  0
   13.9484   44.2847    4.6124 C   0  0  0  0  0  0  0  0  0  0  0  0
   13.1150   44.6138    3.4506 C   0  0  0  0  0  0  0  0  0  0  0  0
   13.4174   45.5536    2.4773 C   0  0  0  0  0  0  0  0  0  0  0  0
   12.4291   45.6458    1.4863 C   0  0  0  0  0  0  0  0  0  0  0  0
   11.3480   44.7859    1.6683 C   0  0  0  0  0  0  0  0  0  0  0  0
   13.8343   42.3056    7.8021 C   0  0  0  0  0  0  0  0  0  0  0  0
   12.6019   38.6071    9.6562 O   0  0  0  0  0  0  0  0  0  0  0  0
   16.0582   40.5571   10.1128 O   0  0  0  0  0  0  0  0  0  0  0  0
   15.0336   44.8987    4.7982 O   0  0  0  0  0  0  0  0  0  0  0  0
   13.8319   41.1221   10.5381 N   0  0  0  0  0  0  0  0  0  0  0  0
   15.9950   41.7111    7.5184 N   0  0  0  0  0  0  0  0  0  0  0  0
   15.5947   42.3205    6.4186 N   0  0  0  0  0  0  0  0  0  0  0  0
   13.4968   43.3074    5.5556 N   0  0  0  0  0  0  0  0  0  0  0  0
   11.6390   43.9118    3.0758 S   0  0  0  0  0  0  0  0  0  0  0  0
  1  2  1  0
  2 16  1  0
  3 16  1  0
  3  4  1  0
  4  5  1  0
  5 19  1  0
  6  7  1  0
  8 21  1  0
  9 22  1  0
 10 11  1  0
 11 23  1  0
 12 13  1  0
 14 23  1  0
 15  7  1  0
 19  6  1  0
 21 20  1  0
 21  9  1  0
 22 10  1  0
  6 17  2  0
  7 20  2  0
  9 15  2  0
 10 18  2  0
 11 12  2  0
 13 14  2  0
M  END
>  <rmsd>  (31) 
0.198990181

$$$$
MolPort-003-112-225 8959241 CSSS03437106790 LVVIUDCDISTWIS-UHFFFAOYSA-N MCULE-2700354348 PubChem-40887137 ZINC000008959241 ZINC08959241
     RDKit          3D

 32 34  0  0  0  0  0  0  0  0999 V2000
   12.0959   47.8630   -0.1453 C   0  0  0  0  0  0  0  0  0  0  0  0
   12.4925   46.3156    1.7430 C   0  0  0  0  0  0  0  0  0  0  0  0
   13.3628   45.8611    2.7382 C   0  0  0  0  0  0  0  0  0  0  0  0
   12.9742   44.8412    3.6182 C   0  0  0  0  0  0  0  0  0  0  0  0
   11.6982   44.2764    3.4906 C   0  0  0  0  0  0  0  0  0  0  0  0
   10.8144   44.7225    2.4959 C   0  0  0  0  0  0  0  0  0  0  0  0
    9.0466   43.1379    3.1898 C   0  0  0  0  0  0  0  0  0  0  0  0
   11.2171   45.7407    1.6276 C   0  0  0  0  0  0  0  0  0  0  0  0
   13.8961   44.3678    4.6655 C   0  0  0  0  0  0  0  0  0  0  0  0
   14.2462   42.7516    6.6289 C   0  0  0  0  0  0  0  0  0  0  0  0
   15.5369   43.1960    6.9383 C   0  0  0  0  0  0  0  0  0  0  0  0
   16.2679   42.6330    7.9902 C   0  0  0  0  0  0  0  0  0  0  0  0
   15.6767   41.6124    8.7805 C   0  0  0  0  0  0  0  0  0  0  0  0
   14.3909   41.1614    8.4442 C   0  0  0  0  0  0  0  0  0  0  0  0
   13.6842   41.7218    7.3809 C   0  0  0  0  0  0  0  0  0  0  0  0
   16.2024   39.6181   10.2148 C   0  0  0  0  0  0  0  0  0  0  0  0
   15.3296   39.3489   11.4385 C   0  0  0  0  0  0  0  0  0  0  0  0
   13.8551   39.5533   11.1374 C   0  0  0  0  0  0  0  0  0  0  0  0
   13.0905   39.6696   12.4384 C   0  0  0  0  0  0  0  0  0  0  0  0
   13.3155   38.3772   10.3463 C   0  0  0  0  0  0  0  0  0  0  0  0
   17.0184   41.8868   10.8791 C   0  0  0  0  0  0  0  0  0  0  0  0
   18.2303   42.6793   10.4816 C   0  0  0  0  0  0  0  0  0  0  0  0
   19.4246   42.1916   11.2797 C   0  0  0  0  0  0  0  0  0  0  0  0
   18.0175   44.1541   10.7874 C   0  0  0  0  0  0  0  0  0  0  0  0
   18.5508   42.4910    9.0058 C   0  0  0  0  0  0  0  0  0  0  0  0
   12.9173   47.3356    0.8874 O   0  0  0  0  0  0  0  0  0  0  0  0
    9.5373   44.1740    2.3501 O   0  0  0  0  0  0  0  0  0  0  0  0
   15.0392   44.8897    4.7747 O   0  0  0  0  0  0  0  0  0  0  0  0
   16.6268   41.9209   12.0782 O   0  0  0  0  0  0  0  0  0  0  0  0
   17.5737   43.1030    8.1726 O   0  0  0  0  0  0  0  0  0  0  0  0
   13.4849   43.3164    5.5529 N   0  0  0  0  0  0  0  0  0  0  0  0
   16.3284   41.0503    9.9361 N   0  0  0  0  0  0  0  0  0  0  0  0
  1 26  1  0
  2 26  1  0
  3  4  2  0
  4  9  1  0
  5  6  2  0
  6 27  1  0
  7 27  1  0
  8  2  2  0
  9 31  1  0
 11 12  2  0
 12 30  1  0
 13 14  2  0
 13 32  1  0
 15 10  2  0
 16 32  1  0
 16 17  1  0
 17 18  1  0
 18 19  1  0
 18 20  1  0
 22 21  1  0
 22 23  1  0
 22 24  1  0
 22 25  1  0
 25 30  1  0
 31 10  1  0
 32 21  1  0
  2  3  1  0
  4  5  1  0
  6  8  1  0
  9 28  2  0
 10 11  1  0
 12 13  1  0
 14 15  1  0
 21 29  2  0
M  END
>  <rmsd>  (32) 
0.234201491

$$$$
MolPort-007-710-792 ChemDiv-D481-2666 MCULE-2167951705 PubChem-46269945 ZINC000033019594 ZINC33019594
     RDKit          3D

 32 35  0  0  0  0  0  0  0  0999 V2000
   12.9197   44.9102    3.6946 C   0  0  0  0  0  0  0  0  0  0  0  0
   13.8838   44.3911    4.6999 C   0  0  0  0  0  0  0  0  0  0  0  0
   14.2514   42.7524    6.6355 C   0  0  0  0  0  0  0  0  0  0  0  0
   15.4692   43.3104    7.0529 C   0  0  0  0  0  0  0  0  0  0  0  0
   16.1823   42.7377    8.1098 C   0  0  0  0  0  0  0  0  0  0  0  0
   15.6876   41.6048    8.7703 C   0  0  0  0  0  0  0  0  0  0  0  0
   14.4828   41.0378    8.3342 C   0  0  0  0  0  0  0  0  0  0  0  0
   13.7672   41.6112    7.2799 C   0  0  0  0  0  0  0  0  0  0  0  0
   16.4755   40.9983    9.8661 C   0  0  0  0  0  0  0  0  0  0  0  0
   17.1267   39.8331   11.5104 C   0  0  0  0  0  0  0  0  0  0  0  0
   16.6125   40.0708   14.0645 C   0  0  0  0  0  0  0  0  0  0  0  0
   17.7748   40.6918   14.7593 C   0  0  0  0  0  0  0  0  0  0  0  0
   18.9170   41.1051   17.0166 C   0  0  0  0  0  0  0  0  0  0  0  0
   20.0061   41.8157   16.4853 C   0  0  0  0  0  0  0  0  0  0  0  0
   21.0037   42.3148   17.3281 C   0  0  0  0  0  0  0  0  0  0  0  0
   20.9209   42.1055   18.7078 C   0  0  0  0  0  0  0  0  0  0  0  0
   19.8410   41.3976   19.2432 C   0  0  0  0  0  0  0  0  0  0  0  0
   18.8433   40.8996   18.3990 C   0  0  0  0  0  0  0  0  0  0  0  0
   14.6917   39.6390   11.0248 C   0  0  0  0  0  0  0  0  0  0  0  0
   14.4123   38.2654   11.0499 C   0  0  0  0  0  0  0  0  0  0  0  0
   13.1173   37.8152   11.3225 C   0  0  0  0  0  0  0  0  0  0  0  0
   12.0974   38.7362   11.5781 C   0  0  0  0  0  0  0  0  0  0  0  0
   12.3721   40.1070   11.5642 C   0  0  0  0  0  0  0  0  0  0  0  0
   13.6665   40.5576   11.2912 C   0  0  0  0  0  0  0  0  0  0  0  0
   15.0379   44.8936    4.7682 O   0  0  0  0  0  0  0  0  0  0  0  0
   18.6370   41.3263   14.0926 O   0  0  0  0  0  0  0  0  0  0  0  0
   13.4878   43.3149    5.5599 N   0  0  0  0  0  0  0  0  0  0  0  0
   17.7894   41.2491   10.0437 N   0  0  0  0  0  0  0  0  0  0  0  0
   18.1961   40.5221   11.0739 N   0  0  0  0  0  0  0  0  0  0  0  0
   17.8767   40.5742   16.1842 N   0  0  0  0  0  0  0  0  0  0  0  0
   16.0278   40.1009   10.7763 N   0  0  0  0  0  0  0  0  0  0  0  0
   17.1677   38.7521   12.9413 S   0  0  0  0  0  0  0  0  0  0  0  0
  1  2  1  0
  2 27  1  0
  4  5  2  0
  6  7  2  0
  6  9  1  0
  8  3  2  0
 10 32  1  0
 10 31  1  0
 11 32  1  0
 11 12  1  0
 12 30  1  0
 14 15  2  0
 16 17  2  0
 18 13  2  0
 20 21  2  0
 22 23  2  0
 24 19  2  0
 27  3  1  0
 28 29  1  0
 30 13  1  0
 31 19  1  0
 31  9  1  0
  2 25  2  0
  3  4  1  0
  5  6  1  0
  7  8  1  0
  9 28  2  0
 10 29  2  0
 12 26  2  0
 13 14  1  0
 15 16  1  0
 17 18  1  0
 19 20  1  0
 21 22  1  0
 23 24  1  0
M  END
>  <rmsd>  (33) 
0.236140847

$$$$
MolPort-047-592-959 211499115 MCULE-4439733513 PubChem-76847709 ZINC000211499115
     RDKit          3D

 24 25  0  0  0  0  0  0  0  0999 V2000
   13.6810   41.6933   10.2664 B   0  0  0  0  0  0  0  0  0  0  0  0
   14.2810   40.7405   11.1852 O   0  0  0  0  0  0  0  0  0  0  0  0
   12.2298   41.7040   10.3436 O   0  0  0  0  0  0  0  0  0  0  0  0
   16.2082   42.4411    5.1619 O   0  0  0  0  0  0  0  0  0  0  0  0
   15.0414   44.8924    4.7842 O   0  0  0  0  0  0  0  0  0  0  0  0
   13.3007   39.7375   11.2289 C   0  0  0  0  0  0  0  0  0  0  0  0
   11.9578   40.3668   10.6694 C   0  0  0  0  0  0  0  0  0  0  0  0
   11.4226   39.6623    9.4207 C   0  0  0  0  0  0  0  0  0  0  0  0
   10.8189   40.3635   11.6853 C   0  0  0  0  0  0  0  0  0  0  0  0
   13.1904   39.2670   12.6765 C   0  0  0  0  0  0  0  0  0  0  0  0
   13.7987   38.5364   10.4224 C   0  0  0  0  0  0  0  0  0  0  0  0
   14.3622   41.9295    8.8761 C   0  0  0  0  0  0  0  0  0  0  0  0
   13.6480   42.5117    7.8283 C   0  0  0  0  0  0  0  0  0  0  0  0
   14.2594   42.7340    6.5929 C   0  0  0  0  0  0  0  0  0  0  0  0
   15.5933   42.3158    6.4100 C   0  0  0  0  0  0  0  0  0  0  0  0
   15.6922   41.5630    8.6677 C   0  0  0  0  0  0  0  0  0  0  0  0
   17.5458   42.0236    4.9331 C   0  0  0  0  0  0  0  0  0  0  0  0
   13.9655   44.2674    4.5800 C   0  0  0  0  0  0  0  0  0  0  0  0
   13.1269   44.6051    3.3894 C   0  0  0  0  0  0  0  0  0  0  0  0
   16.2708   41.7569    7.4534 N   0  0  0  0  0  0  0  0  0  0  0  0
   13.4830   43.3202    5.5401 N   0  0  0  0  0  0  0  0  0  0  0  0
   12.4153   43.4915    2.9817 F   0  0  0  0  0  0  0  0  0  0  0  0
   12.2424   45.6132    3.7231 F   0  0  0  0  0  0  0  0  0  0  0  0
   13.9303   45.0304    2.3466 F   0  0  0  0  0  0  0  0  0  0  0  0
  1  2  1  0
  1 12  1  0
  1  3  1  0
  6  2  1  0
  6  7  1  0
  6 10  1  0
  6 11  1  0
  7  3  1  0
  7  8  1  0
  7  9  1  0
 13 14  2  0
 14 21  1  0
 15 20  2  0
 15  4  1  0
 16 12  2  0
 17  4  1  0
 19 18  1  0
 19 22  1  0
 19 23  1  0
 19 24  1  0
 21 18  1  0
 12 13  1  0
 14 15  1  0
 16 20  1  0
 18  5  2  0
M  END
>  <rmsd>  (34) 
0.239751592

$$$$
MolPort-006-464-456 ChemDiv-V027-9265 MCULE-3401747041 PubChem-24717982 ZINC000035806637 ZINC35806637
     RDKit          3D

 32 36  0  0  0  0  0  0  0  0999 V2000
   20.5790   40.5433   10.4706 C   0  0  0  0  0  0  0  0  0  0  0  0
   18.1844   40.0863   10.7430 C   0  0  0  0  0  0  0  0  0  0  0  0
   16.0936   39.9646   10.6656 C   0  0  0  0  0  0  0  0  0  0  0  0
   14.7092   39.6058   11.0046 C   0  0  0  0  0  0  0  0  0  0  0  0
   13.7569   40.6098   11.2888 C   0  0  0  0  0  0  0  0  0  0  0  0
   12.4744   40.2010   11.6416 C   0  0  0  0  0  0  0  0  0  0  0  0
   12.1338   38.8890   11.7241 C   0  0  0  0  0  0  0  0  0  0  0  0
   10.2797   40.1059   12.2412 C   0  0  0  0  0  0  0  0  0  0  0  0
   13.0431   37.8697   11.4684 C   0  0  0  0  0  0  0  0  0  0  0  0
   14.3508   38.2422   11.1114 C   0  0  0  0  0  0  0  0  0  0  0  0
   15.7025   41.5007    8.6912 C   0  0  0  0  0  0  0  0  0  0  0  0
   14.4079   41.0679    8.3689 C   0  0  0  0  0  0  0  0  0  0  0  0
   13.6891   41.6766    7.3383 C   0  0  0  0  0  0  0  0  0  0  0  0
   14.2573   42.7192    6.5990 C   0  0  0  0  0  0  0  0  0  0  0  0
   13.8913   44.3813    4.6751 C   0  0  0  0  0  0  0  0  0  0  0  0
   12.9547   44.8821    3.6536 C   0  0  0  0  0  0  0  0  0  0  0  0
   11.6885   44.2964    3.5086 C   0  0  0  0  0  0  0  0  0  0  0  0
   10.7915   44.7756    2.5521 C   0  0  0  0  0  0  0  0  0  0  0  0
   11.1551   45.8433    1.7295 C   0  0  0  0  0  0  0  0  0  0  0  0
   10.1988   46.3556    0.7162 C   0  0  0  0  0  0  0  0  0  0  0  0
   12.4151   46.4321    1.8644 C   0  0  0  0  0  0  0  0  0  0  0  0
   13.3127   45.9525    2.8220 C   0  0  0  0  0  0  0  0  0  0  0  0
   15.5570   43.1462    6.9036 C   0  0  0  0  0  0  0  0  0  0  0  0
   16.2740   42.5387    7.9379 C   0  0  0  0  0  0  0  0  0  0  0  0
   19.5099   39.8740   11.1162 O   0  0  0  0  0  0  0  0  0  0  0  0
   10.8060   38.7812   12.0812 O   0  0  0  0  0  0  0  0  0  0  0  0
   11.3772   40.9811   11.9474 O   0  0  0  0  0  0  0  0  0  0  0  0
   15.0384   44.8964    4.7809 O   0  0  0  0  0  0  0  0  0  0  0  0
   17.8023   40.9242    9.7616 N   0  0  0  0  0  0  0  0  0  0  0  0
   16.4832   40.8434    9.7098 N   0  0  0  0  0  0  0  0  0  0  0  0
   17.1497   39.4609   11.3363 N   0  0  0  0  0  0  0  0  0  0  0  0
   13.4859   43.3162    5.5483 N   0  0  0  0  0  0  0  0  0  0  0  0
  1 25  1  0
  2 25  1  0
  2 31  1  0
  3  4  1  0
  5  6  2  0
  6 27  1  0
  7 26  1  0
  7  9  2  0
  8 26  1  0
  8 27  1  0
 10  4  2  0
 12 13  2  0
 14 32  1  0
 14 23  2  0
 15 16  1  0
 17 18  2  0
 19 21  2  0
 20 19  1  0
 22 16  2  0
 24 11  2  0
 30 29  1  0
 30  3  1  0
 30 11  1  0
 32 15  1  0
  2 29  2  0
  3 31  2  0
  4  5  1  0
  6  7  1  0
  9 10  1  0
 11 12  1  0
 13 14  1  0
 15 28  2  0
 16 17  1  0
 18 19  1  0
 21 22  1  0
 23 24  1  0
M  END
>  <rmsd>  (35) 
0.231805936

$$$$
MolPort-023-256-740 77378919 CSSS00160048253 MCULE-7439721206 PubChem-136239114 ZINC000077378919 ZINC77378919
     RDKit          3D

 27 29  0  0  0  0  0  0  0  0999 V2000
   12.9501   44.5649    1.2002 C   0  0  0  0  0  0  0  0  0  0  0  0
   13.1264   44.5865    3.3987 C   0  0  0  0  0  0  0  0  0  0  0  0
   13.9549   44.2741    4.5945 C   0  0  0  0  0  0  0  0  0  0  0  0
   14.2598   42.7696    6.6183 C   0  0  0  0  0  0  0  0  0  0  0  0
   15.5589   42.2501    6.4219 C   0  0  0  0  0  0  0  0  0  0  0  0
   16.1913   42.1833    5.0738 C   0  0  0  0  0  0  0  0  0  0  0  0
   16.2611   41.7116    7.5043 C   0  0  0  0  0  0  0  0  0  0  0  0
   15.6842   41.6594    8.7800 C   0  0  0  0  0  0  0  0  0  0  0  0
   14.3912   42.1654    8.9653 C   0  0  0  0  0  0  0  0  0  0  0  0
   13.6823   42.7040    7.8900 C   0  0  0  0  0  0  0  0  0  0  0  0
   17.7394   41.4102   10.1121 C   0  0  0  0  0  0  0  0  0  0  0  0
   18.0852   40.8533   11.3286 C   0  0  0  0  0  0  0  0  0  0  0  0
   16.0187   40.4334   10.9617 C   0  0  0  0  0  0  0  0  0  0  0  0
   14.6838   39.8231   11.1292 C   0  0  0  0  0  0  0  0  0  0  0  0
   14.1691   39.6292   12.4175 C   0  0  0  0  0  0  0  0  0  0  0  0
   12.9221   39.0112   12.6082 C   0  0  0  0  0  0  0  0  0  0  0  0
   13.0672   39.2368   15.0689 C   0  0  0  0  0  0  0  0  0  0  0  0
   12.1957   38.5734   11.4922 C   0  0  0  0  0  0  0  0  0  0  0  0
   12.7138   38.7450   10.2060 C   0  0  0  0  0  0  0  0  0  0  0  0
   13.9544   39.3605   10.0261 C   0  0  0  0  0  0  0  0  0  0  0  0
   13.8248   44.2503    2.2391 O   0  0  0  0  0  0  0  0  0  0  0  0
   15.0411   44.8857    4.7801 O   0  0  0  0  0  0  0  0  0  0  0  0
   12.3924   38.8221   13.8891 O   0  0  0  0  0  0  0  0  0  0  0  0
   10.9589   37.9624   11.6566 O   0  0  0  0  0  0  0  0  0  0  0  0
   13.4803   43.3188    5.5478 N   0  0  0  0  0  0  0  0  0  0  0  0
   16.4390   41.1454    9.8896 N   0  0  0  0  0  0  0  0  0  0  0  0
   17.0052   40.2445   11.8595 N   0  0  0  0  0  0  0  0  0  0  0  0
  1 21  1  0
  2 21  1  0
  2  3  1  0
  3 25  1  0
  5  7  2  0
  6  5  1  0
  8  9  2  0
  8 26  1  0
 10  4  2  0
 12 27  1  0
 13 14  1  0
 13 26  1  0
 15 16  2  0
 16 23  1  0
 17 23  1  0
 18 24  1  0
 18 19  2  0
 20 14  2  0
 25  4  1  0
 26 11  1  0
  3 22  2  0
  4  5  1  0
  7  8  1  0
  9 10  1  0
 11 12  2  0
 13 27  2  0
 14 15  1  0
 16 18  1  0
 19 20  1  0
M  END
>  <rmsd>  (36) 
0.239197001

$$$$
MolPort-039-210-479 CSSS03437018559 MCULE-2838403596 PubChem-119099794
     RDKit          3D

 24 26  0  0  0  0  0  0  0  0999 V2000
    9.8508   46.4448    1.0293 F   0  0  0  0  0  0  0  0  0  0  0  0
   10.7297   46.0726    1.9922 C   0  0  0  0  0  0  0  0  0  0  0  0
   10.4500   44.9843    2.8302 C   0  0  0  0  0  0  0  0  0  0  0  0
   11.3662   44.6129    3.8187 C   0  0  0  0  0  0  0  0  0  0  0  0
   12.5622   45.3222    3.9724 C   0  0  0  0  0  0  0  0  0  0  0  0
   12.8379   46.4100    3.1372 C   0  0  0  0  0  0  0  0  0  0  0  0
   11.9234   46.7837    2.1482 C   0  0  0  0  0  0  0  0  0  0  0  0
   14.2169   42.5404    6.6522 C   0  0  0  0  0  0  0  0  0  0  0  0
   14.0555   41.2306    7.0401 C   0  0  0  0  0  0  0  0  0  0  0  0
   15.1601   39.7730    8.7205 C   0  0  0  0  0  0  0  0  0  0  0  0
   14.5423   39.8634   10.1069 C   0  0  1  0  0  0  0  0  0  0  0  0
   13.0060   39.8629   10.0126 C   0  0  0  0  0  0  0  0  0  0  0  0
   12.3751   38.9477   11.0651 C   0  0  0  0  0  0  0  0  0  0  0  0
   13.1054   39.0443   12.4070 C   0  0  0  0  0  0  0  0  0  0  0  0
   14.6305   39.1063   12.2217 C   0  0  0  0  0  0  0  0  0  0  0  0
   15.2410   43.0859    7.4033 C   0  0  0  0  0  0  0  0  0  0  0  0
    8.9588   44.0790    2.6550 Cl  0  0  0  0  0  0  0  0  0  0  0  0
   13.7053   44.8603    5.2192 S   0  0  0  0  0  0  0  0  0  0  0  0
   15.1051   45.0209    4.6959 O   0  0  0  0  0  0  0  0  0  0  0  0
   13.5034   45.7349    6.4243 O   0  0  0  0  0  0  0  0  0  0  0  0
   15.0034   38.7974   10.9004 O   0  0  0  0  0  0  0  0  0  0  0  0
   13.4463   43.2028    5.6496 N   0  0  0  0  0  0  0  0  0  0  0  0
   14.9756   41.0214    7.9980 N   0  0  0  0  0  0  0  0  0  0  0  0
   15.6849   42.1160    8.2266 N   0  0  0  0  0  0  0  0  0  0  0  0
  2  1  1  0
  3 17  1  0
  3  4  2  0
  5  6  2  0
  7  2  2  0
  9 23  1  0
 10 23  1  0
 11 10  1  6
 11 12  1  0
 11 21  1  0
 12 13  1  0
 13 14  1  0
 14 15  1  0
 15 21  1  0
 16  8  1  0
 18  5  1  0
 18 22  1  0
 22  8  1  0
 23 24  1  0
  2  3  1  0
  4  5  1  0
  6  7  1  0
  8  9  2  0
 16 24  2  0
 18 19  2  0
 18 20  2  0
M  END
>  <rmsd>  (37) 
0.226950809

$$$$
MolPort-020-269-162 19749433 MCULE-2171737813 PubChem-92634681 ZINC000019749433 ZINC19749433
     RDKit          3D

 27 29  0  0  0  0  0  0  0  0999 V2000
   13.3147   39.1277   11.4261 C   0  0  0  0  0  0  0  0  0  0  0  0
   14.6866   39.0340   10.8618 C   0  0  0  0  0  0  0  0  0  0  0  0
   15.6978   39.9493   11.0787 C   0  0  0  0  0  0  0  0  0  0  0  0
   16.7334   39.4093   10.3411 C   0  0  0  0  0  0  0  0  0  0  0  0
   18.1024   39.9951   10.2406 C   0  0  0  0  0  0  0  0  0  0  0  0
   19.2961   39.0521    8.2578 C   0  0  0  0  0  0  0  0  0  0  0  0
   18.1363   41.2656    8.0575 C   0  0  0  0  0  0  0  0  0  0  0  0
   17.2631   42.3411    8.6227 C   0  0  0  0  0  0  0  0  0  0  0  0
   15.6136   43.1237    6.9400 C   0  0  0  0  0  0  0  0  0  0  0  0
   14.3251   42.7561    6.6106 C   0  0  0  0  0  0  0  0  0  0  0  0
   13.9468   41.7360    7.4587 C   0  0  0  0  0  0  0  0  0  0  0  0
   13.8864   44.3648    4.6850 C   0  0  0  0  0  0  0  0  0  0  0  0
   12.9386   44.8384    3.6609 C   0  0  0  0  0  0  0  0  0  0  0  0
   11.6647   44.2612    3.5532 C   0  0  0  0  0  0  0  0  0  0  0  0
   10.7649   44.7098    2.5820 C   0  0  0  0  0  0  0  0  0  0  0  0
   11.1323   45.7391    1.7112 C   0  0  0  0  0  0  0  0  0  0  0  0
   12.3993   46.3200    1.8113 C   0  0  0  0  0  0  0  0  0  0  0  0
   13.2992   45.8713    2.7824 C   0  0  0  0  0  0  0  0  0  0  0  0
   16.3611   38.2588    9.7505 N   0  0  0  0  0  0  0  0  0  0  0  0
   15.0990   38.0303   10.0680 N   0  0  0  0  0  0  0  0  0  0  0  0
   18.5069   40.1233    8.8458 N   0  0  0  0  0  0  0  0  0  0  0  0
   15.9656   42.3310    7.9668 N   0  0  0  0  0  0  0  0  0  0  0  0
   14.9866   41.4972    8.2813 N   0  0  0  0  0  0  0  0  0  0  0  0
   13.5038   43.3079    5.5760 N   0  0  0  0  0  0  0  0  0  0  0  0
   18.5428   41.3730    6.8689 O   0  0  0  0  0  0  0  0  0  0  0  0
   15.0295   44.8912    4.7725 O   0  0  0  0  0  0  0  0  0  0  0  0
   10.2604   46.1737    0.7703 F   0  0  0  0  0  0  0  0  0  0  0  0
  1  2  1  0
  3  4  1  0
  5  4  1  0
  5 21  1  0
  6 21  1  0
  8  7  1  0
  8 22  1  0
 10 11  1  0
 10 24  1  0
 12 13  1  0
 14 15  2  0
 16 17  2  0
 16 27  1  0
 18 13  2  0
 20 19  1  0
 20  2  1  0
 21  7  1  0
 22  9  1  0
 22 23  1  0
 24 12  1  0
  2  3  2  0
  4 19  2  0
  7 25  2  0
  9 10  2  0
 11 23  2  0
 12 26  2  0
 13 14  1  0
 15 16  1  0
 17 18  1  0
M  END
>  <rmsd>  (38) 
0.193952873

$$$$
MolPort-003-082-986 CSSS03437203362 MCULE-5949923303 PubChem-16817414
     RDKit          3D

 27 29  0  0  0  0  0  0  0  0999 V2000
   13.7211   38.6774   11.3348 C   0  0  0  0  0  0  0  0  0  0  0  0
   13.1464   40.0513   11.6089 C   0  0  0  0  0  0  0  0  0  0  0  0
   10.7039   40.5099   11.2630 C   0  0  0  0  0  0  0  0  0  0  0  0
    9.4319   40.3665   11.8304 C   0  0  0  0  0  0  0  0  0  0  0  0
    8.3037   40.9072   11.2130 C   0  0  0  0  0  0  0  0  0  0  0  0
    8.4342   41.6009   10.0120 C   0  0  0  0  0  0  0  0  0  0  0  0
    9.6924   41.7506    9.4291 C   0  0  0  0  0  0  0  0  0  0  0  0
   10.8393   41.2132   10.0358 C   0  0  0  0  0  0  0  0  0  0  0  0
   12.4295   42.0391    8.1877 C   0  0  0  0  0  0  0  0  0  0  0  0
   13.8203   42.0621    7.7143 C   0  0  0  0  0  0  0  0  0  0  0  0
   14.2961   42.6624    6.5512 C   0  0  0  0  0  0  0  0  0  0  0  0
   15.6501   42.3933    6.5252 C   0  0  0  0  0  0  0  0  0  0  0  0
   16.6434   42.6670    5.5859 C   0  0  0  0  0  0  0  0  0  0  0  0
   17.9457   42.2147    5.8633 C   0  0  0  0  0  0  0  0  0  0  0  0
   18.2196   41.4988    7.0486 C   0  0  0  0  0  0  0  0  0  0  0  0
   17.1932   41.2175    7.9680 C   0  0  0  0  0  0  0  0  0  0  0  0
   15.9130   41.6767    7.6671 C   0  0  0  0  0  0  0  0  0  0  0  0
   13.9502   44.2928    4.6179 C   0  0  0  0  0  0  0  0  0  0  0  0
   13.1004   44.6616    3.4492 C   0  0  2  0  0  0  0  0  0  0  0  0
   11.8000   45.2854    3.9172 C   0  0  0  0  0  0  0  0  0  0  0  0
   11.7757   39.9314   11.9626 O   0  0  0  0  0  0  0  0  0  0  0  0
   11.5253   42.6103    7.5209 O   0  0  0  0  0  0  0  0  0  0  0  0
   14.8176   41.4900    8.3658 O   0  0  0  0  0  0  0  0  0  0  0  0
   15.0359   44.9028    4.8026 O   0  0  0  0  0  0  0  0  0  0  0  0
   12.1253   41.3614    9.4142 N   0  0  0  0  0  0  0  0  0  0  0  0
   13.4954   43.3055    5.5508 N   0  0  0  0  0  0  0  0  0  0  0  0
   12.7594   43.2272    2.4507 Cl  0  0  0  0  0  0  0  0  0  0  0  0
  1  2  1  0
  2 21  1  0
  3 21  1  0
  4  5  2  0
  6  7  2  0
  8 25  1  0
  8  3  2  0
  9 10  1  0
 10 23  1  0
 11 12  1  0
 11 26  1  0
 13 14  2  0
 15 16  2  0
 17 23  1  0
 17 12  2  0
 19 18  1  0
 19 20  1  1
 19 27  1  0
 25  9  1  0
 26 18  1  0
  3  4  1  0
  5  6  1  0
  7  8  1  0
  9 22  2  0
 10 11  2  0
 12 13  1  0
 14 15  1  0
 16 17  1  0
 18 24  2  0
M  END
>  <rmsd>  (39) 
0.200472757

$$$$
MolPort-007-710-789 ChemDiv-D481-2657 MCULE-7503160676 PubChem-46269942 ZINC000033019581 ZINC33019581
     RDKit          3D

 32 35  0  0  0  0  0  0  0  0999 V2000
   17.1883   45.6979   12.6868 C   0  0  0  0  0  0  0  0  0  0  0  0
   16.7553   44.9686   13.9468 C   0  0  0  0  0  0  0  0  0  0  0  0
   17.9634   44.4460   14.7326 C   0  0  0  0  0  0  0  0  0  0  0  0
   18.6199   43.2549   14.0317 C   0  0  0  0  0  0  0  0  0  0  0  0
   16.4548   42.6779   12.9274 C   0  0  0  0  0  0  0  0  0  0  0  0
   15.7623   43.8462   13.6249 C   0  0  0  0  0  0  0  0  0  0  0  0
   17.7090   40.9179   14.2344 C   0  0  0  0  0  0  0  0  0  0  0  0
   16.6414   39.9075   13.9595 C   0  0  0  0  0  0  0  0  0  0  0  0
   17.1809   39.6966   11.3839 C   0  0  0  0  0  0  0  0  0  0  0  0
   16.5164   40.8938    9.7697 C   0  0  0  0  0  0  0  0  0  0  0  0
   14.7197   39.6221   11.0019 C   0  0  0  0  0  0  0  0  0  0  0  0
   13.7386   40.6009   11.2180 C   0  0  0  0  0  0  0  0  0  0  0  0
   12.4307   40.2284   11.5429 C   0  0  0  0  0  0  0  0  0  0  0  0
   12.0984   38.8760   11.6609 C   0  0  0  0  0  0  0  0  0  0  0  0
   13.0740   37.8957   11.4571 C   0  0  0  0  0  0  0  0  0  0  0  0
   14.3819   38.2676   11.1310 C   0  0  0  0  0  0  0  0  0  0  0  0
   15.7157   41.5271    8.6984 C   0  0  0  0  0  0  0  0  0  0  0  0
   16.1921   42.6895    8.0756 C   0  0  0  0  0  0  0  0  0  0  0  0
   15.4682   43.2855    7.0389 C   0  0  0  0  0  0  0  0  0  0  0  0
   14.2597   42.7214    6.6028 C   0  0  0  0  0  0  0  0  0  0  0  0
   13.8801   44.4065    4.7132 C   0  0  0  0  0  0  0  0  0  0  0  0
   12.9124   44.9537    3.7277 C   0  0  0  0  0  0  0  0  0  0  0  0
   13.7881   41.5557    7.2164 C   0  0  0  0  0  0  0  0  0  0  0  0
   14.5135   40.9581    8.2514 C   0  0  0  0  0  0  0  0  0  0  0  0
   17.6045   42.2541   13.7204 N   0  0  0  0  0  0  0  0  0  0  0  0
   18.2571   40.3568   10.9185 N   0  0  0  0  0  0  0  0  0  0  0  0
   17.8420   41.1037    9.9068 N   0  0  0  0  0  0  0  0  0  0  0  0
   16.0677   40.0047   10.6879 N   0  0  0  0  0  0  0  0  0  0  0  0
   13.4846   43.3137    5.5520 N   0  0  0  0  0  0  0  0  0  0  0  0
   18.7072   40.5822   14.9270 O   0  0  0  0  0  0  0  0  0  0  0  0
   15.0389   44.8956    4.7783 O   0  0  0  0  0  0  0  0  0  0  0  0
   17.2362   38.6181   12.8181 S   0  0  0  0  0  0  0  0  0  0  0  0
  1  2  1  0
  2  3  1  0
  3  4  1  0
  4 25  1  0
  5 25  1  0
  5  6  1  0
  6  2  1  0
  8  7  1  0
  8 32  1  0
  9 32  1  0
 10 28  1  0
 10 17  1  0
 12 13  2  0
 14 15  2  0
 16 11  2  0
 18 19  2  0
 20 29  1  0
 20 23  2  0
 22 21  1  0
 24 17  2  0
 25  7  1  0
 26 27  1  0
 28 11  1  0
 28  9  1  0
 29 21  1  0
  7 30  2  0
  9 26  2  0
 10 27  2  0
 11 12  1  0
 13 14  1  0
 15 16  1  0
 17 18  1  0
 19 20  1  0
 21 31  2  0
 23 24  1  0
M  END
>  <rmsd>  (40) 
0.23071529

$$$$
MolPort-003-077-942 9599913 CSSS03437082921 MCULE-2999142374 PubChem-18561104 ZINC000009599913 ZINC09599913
     RDKit          3D

 31 35  0  0  0  0  0  0  0  0999 V2000
   12.7494   37.1067    9.4310 F   0  0  0  0  0  0  0  0  0  0  0  0
   13.0740   38.0982   10.2929 C   0  0  0  0  0  0  0  0  0  0  0  0
   14.0741   37.8902   11.2485 C   0  0  0  0  0  0  0  0  0  0  0  0
   14.4112   38.9124   12.1384 C   0  0  0  0  0  0  0  0  0  0  0  0
   13.7427   40.1418   12.0802 C   0  0  0  0  0  0  0  0  0  0  0  0
   14.1420   41.2454   13.0010 C   0  0  0  0  0  0  0  0  0  0  0  0
   15.1886   42.9521   11.4577 C   0  0  0  0  0  0  0  0  0  0  0  0
   16.4090   43.4386   10.7581 C   0  0  0  0  0  0  0  0  0  0  0  0
   15.7789   42.2884    8.4677 C   0  0  0  0  0  0  0  0  0  0  0  0
   14.2640   42.8226    6.6913 C   0  0  0  0  0  0  0  0  0  0  0  0
   13.9079   44.3249    4.6492 C   0  0  0  0  0  0  0  0  0  0  0  0
   12.9431   44.7922    3.5922 C   0  0  1  0  0  0  0  0  0  0  0  0
   12.0344   45.8809    4.1904 C   0  0  0  0  0  0  0  0  0  0  0  0
   11.0336   46.3798    3.1350 C   0  0  2  0  0  0  0  0  0  0  0  0
   10.1693   45.2012    2.6594 C   0  0  0  0  0  0  0  0  0  0  0  0
   11.0613   44.1120    2.0446 C   0  0  1  0  0  0  0  0  0  0  0  0
   11.8308   44.7015    0.8510 C   0  0  0  0  0  0  0  0  0  0  0  0
   12.7023   45.8770    1.3185 C   0  0  1  0  0  0  0  0  0  0  0  0
   11.8043   46.9590    1.9382 C   0  0  0  0  0  0  0  0  0  0  0  0
   13.6973   45.3788    2.3793 C   0  0  0  0  0  0  0  0  0  0  0  0
   12.0664   43.6216    3.1000 C   0  0  0  0  0  0  0  0  0  0  0  0
   12.7460   40.3512   11.1205 C   0  0  0  0  0  0  0  0  0  0  0  0
   12.4098   39.3278   10.2284 C   0  0  0  0  0  0  0  0  0  0  0  0
   15.3009   41.9428   12.4616 N   0  0  0  0  0  0  0  0  0  0  0  0
   14.6439   41.5570    8.4981 N   0  0  0  0  0  0  0  0  0  0  0  0
   13.8007   41.8558    7.5120 N   0  0  0  0  0  0  0  0  0  0  0  0
   13.5029   43.3115    5.5817 N   0  0  0  0  0  0  0  0  0  0  0  0
   14.0639   43.4252   11.1462 O   0  0  0  0  0  0  0  0  0  0  0  0
   15.0351   44.8799    4.7580 O   0  0  0  0  0  0  0  0  0  0  0  0
   17.0892   42.1366    9.6785 S   0  0  0  0  0  0  0  0  0  0  0  0
   15.7868   43.3688    7.1777 S   0  0  0  0  0  0  0  0  0  0  0  0
  2  1  1  0
  3  4  2  0
  5 22  2  0
  6  5  1  0
  6 24  1  0
  8  7  1  0
  8 30  1  0
  9 30  1  0
  9 31  1  0
 10 27  1  0
 10 31  1  0
 12 11  1  1
 12 13  1  0
 14 13  1  1
 14 15  1  0
 16 15  1  1
 16 17  1  0
 16 21  1  0
 18 17  1  1
 18 19  1  0
 18 20  1  0
 19 14  1  0
 20 12  1  0
 21 12  1  0
 23  2  2  0
 24  7  1  0
 25 26  1  0
 27 11  1  0
  2  3  1  0
  4  5  1  0
  7 28  2  0
  9 25  2  0
 10 26  2  0
 11 29  2  0
 22 23  1  0
M  END
>  <rmsd>  (41) 
0.214492649

$$$$
MolPort-002-470-510 CSC000733563 CSSS00000733563 MCULE-4803620098 PubChem-7131767 Z139720794 ZINC04219081
     RDKit          3D

 19 19  0  0  0  0  0  0  0  0999 V2000
   12.6789   39.0046   11.7127 C   0  0  0  0  0  0  0  0  0  0  0  0
   14.0778   39.2908   11.2100 C   0  0  0  0  0  0  0  0  0  0  0  0
   15.1526   40.5971    9.4215 C   0  0  0  0  0  0  0  0  0  0  0  0
   15.0337   41.5185    8.2738 C   0  0  0  0  0  0  0  0  0  0  0  0
   15.9887   42.4402    7.8624 C   0  0  0  0  0  0  0  0  0  0  0  0
   17.3439   42.6355    8.4501 C   0  0  0  0  0  0  0  0  0  0  0  0
   14.3065   42.7596    6.6006 C   0  0  0  0  0  0  0  0  0  0  0  0
   13.8949   44.3680    4.6911 C   0  0  0  0  0  0  0  0  0  0  0  0
   12.9644   44.8414    3.6324 C   0  0  0  0  0  0  0  0  0  0  0  0
   13.9347   41.7256    7.4436 C   0  0  0  0  0  0  0  0  0  0  0  0
   12.6671   40.9709    7.3761 C   0  0  0  0  0  0  0  0  0  0  0  0
   14.0088   40.1646   10.0936 O   0  0  0  0  0  0  0  0  0  0  0  0
   16.2940   40.2342    9.8177 O   0  0  0  0  0  0  0  0  0  0  0  0
   15.5265   43.1622    6.8691 O   0  0  0  0  0  0  0  0  0  0  0  0
   15.0390   44.8860    4.7889 O   0  0  0  0  0  0  0  0  0  0  0  0
   11.6442   41.5029    6.8701 O   0  0  0  0  0  0  0  0  0  0  0  0
   13.4895   43.3075    5.5609 N   0  0  0  0  0  0  0  0  0  0  0  0
   12.5963   39.6210    7.8212 N   0  0  0  0  0  0  0  0  0  0  0  0
   13.1437   43.8307    2.1790 Cl  0  0  0  0  0  0  0  0  0  0  0  0
  1  2  1  0
  2 12  1  0
  3 12  1  0
  3  4  1  0
  5 14  1  0
  6  5  1  0
  7 14  1  0
  7 17  1  0
  9  8  1  0
  9 19  1  0
 10 11  1  0
 10  4  1  0
 11 18  1  0
 17  8  1  0
  3 13  2  0
  4  5  2  0
  7 10  2  0
  8 15  2  0
 11 16  2  0
M  END
>  <rmsd>  (42) 
0.198279634

$$$$
Molport-053-366-839
     RDKit          3D

 20 22  0  0  0  0  0  0  0  0999 V2000
   11.1245   45.3056   -0.1955 O   0  0  0  0  0  0  0  0  0  0  0  0
   15.0504   44.8679    4.8089 O   0  0  0  0  0  0  0  0  0  0  0  0
   11.8302   45.0548    0.9766 C   0  0  0  0  0  0  0  0  0  0  0  0
   12.7267   46.0050    1.4669 C   0  0  0  0  0  0  0  0  0  0  0  0
   13.4277   45.7414    2.6448 C   0  0  0  0  0  0  0  0  0  0  0  0
   13.2252   44.5342    3.3349 C   0  0  0  0  0  0  0  0  0  0  0  0
   12.3190   43.6037    2.7954 C   0  0  0  0  0  0  0  0  0  0  0  0
   13.9735   44.2507    4.5836 C   0  0  0  0  0  0  0  0  0  0  0  0
   14.2626   42.7998    6.6333 C   0  0  0  0  0  0  0  0  0  0  0  0
   14.9217   41.7341    8.4090 C   0  0  0  0  0  0  0  0  0  0  0  0
   14.8756   40.9163    9.5356 C   0  0  0  0  0  0  0  0  0  0  0  0
   13.6417   40.3151    9.8553 C   0  0  0  0  0  0  0  0  0  0  0  0
   12.5019   40.5459    9.0474 C   0  0  0  0  0  0  0  0  0  0  0  0
   12.5849   41.3785    7.9148 C   0  0  0  0  0  0  0  0  0  0  0  0
   13.8208   41.9559    7.6311 C   0  0  0  0  0  0  0  0  0  0  0  0
   11.6512   43.8838    1.6444 N   0  0  0  0  0  0  0  0  0  0  0  0
   13.4733   43.3088    5.5481 N   0  0  0  0  0  0  0  0  0  0  0  0
   15.5802   43.0575    6.8197 N   0  0  0  0  0  0  0  0  0  0  0  0
   15.9735   42.4043    7.9083 N   0  0  0  0  0  0  0  0  0  0  0  0
   13.5183   39.2745   11.2615 Cl  0  0  0  0  0  0  0  0  0  0  0  0
  3  1  1  0
  3 16  2  0
  4  5  2  0
  6  7  2  0
  6  8  1  0
  8 17  1  0
 11 12  2  0
 12 20  1  0
 13 14  2  0
 15  9  1  0
 15 10  2  0
 17  9  1  0
 19 18  1  0
 19 10  1  0
  3  4  1  0
  5  6  1  0
  7 16  1  0
  8  2  2  0
  9 18  2  0
 10 11  1  0
 12 13  1  0
 14 15  1  0
M  END
>  <rmsd>  (43) 
0.193207785

$$$$
Molport-052-053-362
     RDKit          3D

 26 28  0  0  0  0  0  0  0  0999 V2000
   12.3353   42.0625   10.3224 C   0  0  0  0  0  0  0  0  0  0  0  0
   13.6463   41.3000   10.0563 C   0  0  2  0  0  0  0  0  0  0  0  0
   13.4064   39.2126   11.3617 C   0  0  0  0  0  0  0  0  0  0  0  0
   12.5268   39.2867    9.0137 C   0  0  0  0  0  0  0  0  0  0  0  0
   11.2150   38.7868    9.5929 C   0  0  0  0  0  0  0  0  0  0  0  0
    9.1136   39.3665   10.5614 C   0  0  0  0  0  0  0  0  0  0  0  0
    8.7754   38.0240   10.7063 C   0  0  0  0  0  0  0  0  0  0  0  0
    9.6719   37.0450   10.2815 C   0  0  0  0  0  0  0  0  0  0  0  0
   10.9084   37.4071    9.7223 C   0  0  0  0  0  0  0  0  0  0  0  0
   11.8387   36.3251    9.2384 C   0  0  0  0  0  0  0  0  0  0  0  0
   14.3412   41.7692    8.8021 C   0  0  0  0  0  0  0  0  0  0  0  0
   16.3376   41.9399    7.5384 C   0  0  0  0  0  0  0  0  0  0  0  0
   17.8103   41.7064    7.4234 C   0  0  0  0  0  0  0  0  0  0  0  0
   15.6281   42.5163    6.4809 C   0  0  0  0  0  0  0  0  0  0  0  0
   14.2485   42.7200    6.6275 C   0  0  0  0  0  0  0  0  0  0  0  0
   13.9147   44.2503    4.6292 C   0  0  0  0  0  0  0  0  0  0  0  0
   15.2378   45.8370    3.7534 C   0  0  0  0  0  0  0  0  0  0  0  0
   14.2009   45.8705    2.8279 C   0  0  0  0  0  0  0  0  0  0  0  0
   14.0857   46.8179    1.6813 C   0  0  0  0  0  0  0  0  0  0  0  0
   13.4788   39.8250   10.0229 N   0  0  0  0  0  0  0  0  0  0  0  0
   10.3075   39.7105   10.0148 N   0  0  0  0  0  0  0  0  0  0  0  0
   15.6807   41.5778    8.6714 N   0  0  0  0  0  0  0  0  0  0  0  0
   13.4492   43.2764    5.5726 N   0  0  0  0  0  0  0  0  0  0  0  0
   15.0741   44.9343    4.7565 N   0  0  0  0  0  0  0  0  0  0  0  0
   13.6388   42.3216    7.7751 N   0  0  0  0  0  0  0  0  0  0  0  0
   13.0266   44.7589    3.2936 S   0  0  0  0  0  0  0  0  0  0  0  0
  2  1  1  6
  2 20  1  0
  2 11  1  0
  3 20  1  0
  4 20  1  0
  4  5  1  0
  6 21  2  0
  7  8  2  0
  9  5  2  0
 10  9  1  0
 11 25  2  0
 12 22  2  0
 13 12  1  0
 14 15  2  0
 15 23  1  0
 16 26  1  0
 17 24  1  0
 18 26  1  0
 19 18  1  0
 23 16  1  0
  5 21  1  0
  6  7  1  0
  8  9  1  0
 11 22  1  0
 12 14  1  0
 15 25  1  0
 16 24  2  0
 17 18  2  0
M  END
>  <rmsd>  (44) 
0.240405455

$$$$
MolPort-007-789-507 ChemDiv-F223-0585 MCULE-9315983738 PubChem-46289723 ZINC000032959596 ZINC32959596
     RDKit          3D

 28 30  0  0  0  0  0  0  0  0999 V2000
   10.7550   41.6729   10.6248 C   0  0  0  0  0  0  0  0  0  0  0  0
   12.2853   39.7399   10.8231 C   0  0  0  0  0  0  0  0  0  0  0  0
   12.6663   38.4801   10.3560 C   0  0  0  0  0  0  0  0  0  0  0  0
   13.7546   37.7971   10.9122 C   0  0  0  0  0  0  0  0  0  0  0  0
   14.7235   35.5036   11.1103 C   0  0  0  0  0  0  0  0  0  0  0  0
   14.5051   38.4229   11.9426 C   0  0  0  0  0  0  0  0  0  0  0  0
   15.7488   37.8345   12.5331 C   0  0  0  0  0  0  0  0  0  0  0  0
   17.5474   38.8416   11.0158 C   0  0  0  0  0  0  0  0  0  0  0  0
   17.2232   40.2477   11.4124 C   0  0  0  0  0  0  0  0  0  0  0  0
   16.7916   41.0495   10.2289 C   0  0  0  0  0  0  0  0  0  0  0  0
   17.6707   42.0000    9.6713 C   0  0  0  0  0  0  0  0  0  0  0  0
   17.2873   42.7611    8.5539 C   0  0  0  0  0  0  0  0  0  0  0  0
   16.0199   42.5533    8.0092 C   0  0  0  0  0  0  0  0  0  0  0  0
   14.2733   42.7991    6.6446 C   0  0  0  0  0  0  0  0  0  0  0  0
   13.9105   44.3391    4.6599 C   0  0  0  0  0  0  0  0  0  0  0  0
   12.9978   44.7714    3.5701 C   0  0  0  0  0  0  0  0  0  0  0  0
   15.1641   41.6131    8.5610 C   0  0  0  0  0  0  0  0  0  0  0  0
   15.5206   40.8473    9.6649 C   0  0  0  0  0  0  0  0  0  0  0  0
   14.1055   39.6754   12.4217 C   0  0  0  0  0  0  0  0  0  0  0  0
   13.0034   40.3298   11.8714 C   0  0  0  0  0  0  0  0  0  0  0  0
   11.1934   40.3799   10.2306 O   0  0  0  0  0  0  0  0  0  0  0  0
   14.0348   36.5223   10.3995 O   0  0  0  0  0  0  0  0  0  0  0  0
   18.4945   38.6278   10.2141 O   0  0  0  0  0  0  0  0  0  0  0  0
   15.0408   44.8831    4.7736 O   0  0  0  0  0  0  0  0  0  0  0  0
   16.8113   37.7316   11.5376 N   0  0  0  0  0  0  0  0  0  0  0  0
   15.5294   43.2209    6.9352 N   0  0  0  0  0  0  0  0  0  0  0  0
   13.4890   43.3129    5.5636 N   0  0  0  0  0  0  0  0  0  0  0  0
   13.7265   41.5914    7.6965 S   0  0  0  0  0  0  0  0  0  0  0  0
  1 21  1  0
  2 21  1  0
  3  4  2  0
  4 22  1  0
  5 22  1  0
  6 19  2  0
  7  6  1  0
  7 25  1  0
  9  8  1  0
  9 10  1  0
 11 12  2  0
 13 26  1  0
 14 27  1  0
 14 28  1  0
 16 15  1  0
 17 28  1  0
 17 13  2  0
 18 10  2  0
 20  2  2  0
 25  8  1  0
 27 15  1  0
  2  3  1  0
  4  6  1  0
  8 23  2  0
 10 11  1  0
 12 13  1  0
 14 26  2  0
 15 24  2  0
 17 18  1  0
 19 20  1  0
M  END
>  <rmsd>  (45) 
0.2187251

$$$$
MolPort-008-359-969 CSSS00159442944 MCULE-9166582463 PubChem-46982465
     RDKit          3D

 24 25  0  0  0  0  0  0  0  0999 V2000
   14.8431   40.1442   13.8430 C   0  0  0  0  0  0  0  0  0  0  0  0
   14.4847   41.1168   12.7298 C   0  0  0  0  0  0  0  0  0  0  0  0
   14.4449   40.4596   11.3481 C   0  0  2  0  0  0  0  0  0  0  0  0
   13.4766   39.2873   11.2761 C   0  0  0  0  0  0  0  0  0  0  0  0
   16.5407   39.0394   11.5085 C   0  0  0  0  0  0  0  0  0  0  0  0
   16.7555   37.8938   10.5762 C   0  0  0  0  0  0  0  0  0  0  0  0
   15.7615   36.9258   10.4125 C   0  0  0  0  0  0  0  0  0  0  0  0
   15.9744   35.8728    9.5202 C   0  0  0  0  0  0  0  0  0  0  0  0
   18.1162   36.7325    8.9608 C   0  0  0  0  0  0  0  0  0  0  0  0
   17.9412   37.8008    9.8433 C   0  0  0  0  0  0  0  0  0  0  0  0
   16.4133   40.9121    9.8457 C   0  0  0  0  0  0  0  0  0  0  0  0
   15.6464   41.5473    8.7498 C   0  0  0  0  0  0  0  0  0  0  0  0
   16.2337   42.5656    7.9853 C   0  0  0  0  0  0  0  0  0  0  0  0
   15.5313   43.1558    6.9312 C   0  0  0  0  0  0  0  0  0  0  0  0
   14.2314   42.7318    6.6202 C   0  0  0  0  0  0  0  0  0  0  0  0
   13.6486   41.7085    7.3735 C   0  0  0  0  0  0  0  0  0  0  0  0
   14.3511   41.1182    8.4275 C   0  0  0  0  0  0  0  0  0  0  0  0
   13.9059   44.3646    4.6715 C   0  0  0  0  0  0  0  0  0  0  0  0
   12.9861   44.8434    3.6074 C   0  0  0  0  0  0  0  0  0  0  0  0
   15.7777   40.1026   10.8535 N   0  0  0  0  0  0  0  0  0  0  0  0
   17.1378   35.7979    8.8187 N   0  0  0  0  0  0  0  0  0  0  0  0
   13.4786   43.3135    5.5470 N   0  0  0  0  0  0  0  0  0  0  0  0
   17.6639   41.0762    9.8886 O   0  0  0  0  0  0  0  0  0  0  0  0
   15.0443   44.8906    4.7859 O   0  0  0  0  0  0  0  0  0  0  0  0
  1  2  1  0
  3  2  1  0
  3  4  1  1
  3 20  1  0
  5 20  1  0
  5  6  1  0
  7  8  2  0
  9 21  2  0
 10  6  2  0
 11 12  1  0
 13 14  2  0
 15 16  2  0
 15 22  1  0
 17 12  2  0
 19 18  1  0
 20 11  1  0
 22 18  1  0
  6  7  1  0
  8 21  1  0
  9 10  1  0
 11 23  2  0
 12 13  1  0
 14 15  1  0
 16 17  1  0
 18 24  2  0
M  END
>  <rmsd>  (46) 
0.231393605

$$$$
MolPort-005-291-984 12422538 CSSS03437107179 MCULE-1450102348 PubChem-16880185 ZINC000012422538
     RDKit          3D

 26 29  0  0  0  0  0  0  0  0999 V2000
   16.4605   41.0473    9.7685 N   0  0  0  0  0  0  0  0  0  0  0  0
   13.4778   43.3141    5.5392 N   0  0  0  0  0  0  0  0  0  0  0  0
   10.9506   45.5186    3.0204 N   0  0  0  0  0  0  0  0  0  0  0  0
   16.4843   39.7282   10.3881 C   0  0  0  0  0  0  0  0  0  0  0  0
   15.3767   39.5972   11.4230 C   0  0  0  0  0  0  0  0  0  0  0  0
   14.0283   39.4476   10.7457 C   0  0  0  0  0  0  0  0  0  0  0  0
   12.9440   39.3488   11.7971 C   0  0  0  0  0  0  0  0  0  0  0  0
   15.7050   41.4417    8.6195 C   0  0  0  0  0  0  0  0  0  0  0  0
   15.0366   40.6477    7.6875 C   0  0  0  0  0  0  0  0  0  0  0  0
   14.3102   41.3041    6.6674 C   0  0  0  0  0  0  0  0  0  0  0  0
   14.2569   42.7206    6.5860 C   0  0  0  0  0  0  0  0  0  0  0  0
   14.9126   43.4925    7.5793 C   0  0  0  0  0  0  0  0  0  0  0  0
   14.8571   44.8951    7.7125 C   0  0  0  0  0  0  0  0  0  0  0  0
   15.5175   45.5330    8.7945 C   0  0  0  0  0  0  0  0  0  0  0  0
   16.2257   44.7817    9.7614 C   0  0  0  0  0  0  0  0  0  0  0  0
   16.2607   43.3975    9.5975 C   0  0  0  0  0  0  0  0  0  0  0  0
   15.6252   42.8033    8.5470 C   0  0  0  0  0  0  0  0  0  0  0  0
   16.7921   42.2958   10.3972 C   0  0  0  0  0  0  0  0  0  0  0  0
   13.8533   44.4689    4.7809 C   0  0  0  0  0  0  0  0  0  0  0  0
   12.8563   45.1330    3.9364 C   0  0  0  0  0  0  0  0  0  0  0  0
   13.0786   46.2405    3.1369 C   0  0  0  0  0  0  0  0  0  0  0  0
   11.8289   46.4371    2.5804 C   0  0  0  0  0  0  0  0  0  0  0  0
   11.4811   47.5165    1.6196 C   0  0  0  0  0  0  0  0  0  0  0  0
   17.4073   42.4032   11.4905 O   0  0  0  0  0  0  0  0  0  0  0  0
   15.0415   44.8903    4.8010 O   0  0  0  0  0  0  0  0  0  0  0  0
   11.6058   44.7498    3.8359 O   0  0  0  0  0  0  0  0  0  0  0  0
  1  8  1  0
  2 19  1  0
  3 26  1  0
  4  1  1  0
  4  5  1  0
  5  6  1  0
  6  7  1  0
  9 10  2  0
 11 12  2  0
 11  2  1  0
 13 14  2  0
 15 16  2  0
 16 18  1  0
 17  8  2  0
 17 12  1  0
 18  1  1  0
 19 20  1  0
 20 26  1  0
 21 22  1  0
 23 22  1  0
  8  9  1  0
 10 11  1  0
 12 13  1  0
 14 15  1  0
 16 17  1  0
 18 24  2  0
 19 25  2  0
 20 21  2  0
 22  3  2  0
M  END
>  <rmsd>  (47) 
0.244289249

$$$$
MolPort-020-286-832 MCULE-8425089913 PubChem-110260869
     RDKit          3D

 33 36  0  0  0  0  0  0  0  0999 V2000
   11.3836   37.8609    9.7897 C   0  0  0  0  0  0  0  0  0  0  0  0
   12.4306   38.6023   10.5495 C   0  0  0  0  0  0  0  0  0  0  0  0
   12.0902   39.5681   11.5072 C   0  0  0  0  0  0  0  0  0  0  0  0
   10.6560   39.8494   11.8736 C   0  0  0  0  0  0  0  0  0  0  0  0
   10.4638   41.3134   12.2614 C   0  0  0  0  0  0  0  0  0  0  0  0
   11.4715   41.7010   13.2970 C   0  0  0  0  0  0  0  0  0  0  0  0
   13.1293   40.2187   12.1958 C   0  0  0  0  0  0  0  0  0  0  0  0
   14.7310   38.9716   10.9735 C   0  0  0  0  0  0  0  0  0  0  0  0
   16.1633   38.6832   10.6222 C   0  0  2  0  0  0  0  0  0  0  0  0
   17.1018   38.6475   11.8042 C   0  0  0  0  0  0  0  0  0  0  0  0
   18.4547   38.8939   11.1834 C   0  0  0  0  0  0  0  0  0  0  0  0
   18.1819   39.4161    9.7769 C   0  0  0  0  0  0  0  0  0  0  0  0
   16.4461   40.9731    9.8740 C   0  0  0  0  0  0  0  0  0  0  0  0
   15.6838   41.5739    8.7418 C   0  0  0  0  0  0  0  0  0  0  0  0
   16.2603   42.5989    7.9870 C   0  0  0  0  0  0  0  0  0  0  0  0
   15.5466   43.1791    6.9344 C   0  0  0  0  0  0  0  0  0  0  0  0
   14.2481   42.7414    6.6306 C   0  0  0  0  0  0  0  0  0  0  0  0
   13.6745   41.7191    7.3944 C   0  0  0  0  0  0  0  0  0  0  0  0
   14.3871   41.1381    8.4468 C   0  0  0  0  0  0  0  0  0  0  0  0
   13.9016   44.3600    4.6736 C   0  0  0  0  0  0  0  0  0  0  0  0
   12.9718   44.8284    3.6137 C   0  0  0  0  0  0  0  0  0  0  0  0
   13.8623   41.7509   14.0609 C   0  0  0  0  0  0  0  0  0  0  0  0
   14.3032   40.7113   15.0861 C   0  0  0  0  0  0  0  0  0  0  0  0
   13.2369   40.4847   16.1449 C   0  0  0  0  0  0  0  0  0  0  0  0
   13.9022   40.0758   17.4418 C   0  0  0  0  0  0  0  0  0  0  0  0
   12.2938   39.3811   15.7062 C   0  0  0  0  0  0  0  0  0  0  0  0
   11.1281   42.4423   14.2561 O   0  0  0  0  0  0  0  0  0  0  0  0
   15.0386   44.8913    4.7762 O   0  0  0  0  0  0  0  0  0  0  0  0
   12.8211   41.2204   13.1836 N   0  0  0  0  0  0  0  0  0  0  0  0
   14.4217   39.9089   11.9091 N   0  0  0  0  0  0  0  0  0  0  0  0
   13.7385   38.3349   10.2993 N   0  0  0  0  0  0  0  0  0  0  0  0
   16.7407   39.5649    9.6002 N   0  0  0  0  0  0  0  0  0  0  0  0
   13.4855   43.3122    5.5585 N   0  0  0  0  0  0  0  0  0  0  0  0
  1  2  1  0
  2 31  2  0
  4  3  1  0
  4  5  1  0
  5  6  1  0
  6 29  1  0
  7  3  2  0
  8 30  2  0
  9  8  1  1
  9 10  1  0
  9 32  1  0
 10 11  1  0
 11 12  1  0
 12 32  1  0
 13 32  1  0
 13 14  1  0
 15 16  2  0
 17 18  2  0
 17 33  1  0
 19 14  2  0
 21 20  1  0
 22 29  1  0
 22 23  1  0
 23 24  1  0
 24 25  1  0
 24 26  1  0
 29  7  1  0
 33 20  1  0
  2  3  1  0
  6 27  2  0
  7 30  1  0
  8 31  1  0
 14 15  1  0
 16 17  1  0
 18 19  1  0
 20 28  2  0
M  END
>  <rmsd>  (48) 
0.232597828

$$$$
MolPort-003-112-255 8959290 CSSS03436950445 MCULE-6540110749 PubChem-40887186 VZHRHASBLZJDLJ-UHFFFAOYSA-N ZINC000008959290 ZINC08959290
     RDKit          3D

 23 24  0  0  0  0  0  0  0  0999 V2000
   13.2558   39.6132   12.5997 C   0  0  0  0  0  0  0  0  0  0  0  0
   13.9011   39.5289   11.2332 C   0  0  0  0  0  0  0  0  0  0  0  0
   13.2172   38.4421   10.4260 C   0  0  0  0  0  0  0  0  0  0  0  0
   15.3780   39.2100   11.3944 C   0  0  0  0  0  0  0  0  0  0  0  0
   16.1601   39.5072   10.1176 C   0  0  0  0  0  0  0  0  0  0  0  0
   15.6529   41.5368    8.7377 C   0  0  0  0  0  0  0  0  0  0  0  0
   16.2618   42.5499    7.9515 C   0  0  0  0  0  0  0  0  0  0  0  0
   18.5480   42.3331    8.9386 C   0  0  0  0  0  0  0  0  0  0  0  0
   18.2559   42.5134   10.4209 C   0  0  0  0  0  0  0  0  0  0  0  0
   19.4485   41.9865   11.1962 C   0  0  0  0  0  0  0  0  0  0  0  0
   18.0852   43.9897   10.7458 C   0  0  0  0  0  0  0  0  0  0  0  0
   17.0288   41.7473   10.8263 C   0  0  0  0  0  0  0  0  0  0  0  0
   15.5365   43.1390    6.9102 C   0  0  0  0  0  0  0  0  0  0  0  0
   14.2328   42.7282    6.6080 C   0  0  0  0  0  0  0  0  0  0  0  0
   13.9066   44.3709    4.6681 C   0  0  0  0  0  0  0  0  0  0  0  0
   12.9863   44.8558    3.6073 C   0  0  0  0  0  0  0  0  0  0  0  0
   13.6515   41.7067    7.3573 C   0  0  0  0  0  0  0  0  0  0  0  0
   14.3529   41.1206    8.4104 C   0  0  0  0  0  0  0  0  0  0  0  0
   16.2987   40.9459    9.8817 N   0  0  0  0  0  0  0  0  0  0  0  0
   13.4784   43.3171    5.5398 N   0  0  0  0  0  0  0  0  0  0  0  0
   17.5780   42.9898    8.1323 O   0  0  0  0  0  0  0  0  0  0  0  0
   16.6572   41.7748   12.0319 O   0  0  0  0  0  0  0  0  0  0  0  0
   15.0460   44.8945    4.7834 O   0  0  0  0  0  0  0  0  0  0  0  0
  1  2  1  0
  2  3  1  0
  2  4  1  0
  4  5  1  0
  5 19  1  0
  7 21  1  0
  7 13  2  0
  8 21  1  0
  8  9  1  0
  9 10  1  0
  9 11  1  0
  9 12  1  0
 12 19  1  0
 14 20  1  0
 14 17  2  0
 16 15  1  0
 18  6  2  0
 19  6  1  0
 20 15  1  0
  6  7  1  0
 12 22  2  0
 13 14  1  0
 15 23  2  0
 17 18  1  0
M  END
>  <rmsd>  (49) 
0.23906444

$$$$
MolPort-028-600-042 90408699 CHEMBL3183131 CSSS00025701770 MCULE-2835404757 PubChem-59437537 ZINC000090408699
     RDKit          3D

 26 28  0  0  0  0  0  0  0  0999 V2000
   13.6167   39.9166   12.1691 C   0  0  0  0  0  0  0  0  0  0  0  0
   13.7929   39.1164   10.8922 C   0  0  0  0  0  0  0  0  0  0  0  0
   12.6296   38.1588   10.7455 C   0  0  0  0  0  0  0  0  0  0  0  0
   14.9261   40.8818    9.4469 C   0  0  0  0  0  0  0  0  0  0  0  0
   16.0950   40.8925   10.2289 C   0  0  0  0  0  0  0  0  0  0  0  0
   17.1592   41.7587    9.8926 C   0  0  0  0  0  0  0  0  0  0  0  0
   18.3859   41.8123   10.7558 C   0  0  0  0  0  0  0  0  0  0  0  0
   17.0316   42.6291    8.7920 C   0  0  0  0  0  0  0  0  0  0  0  0
   15.8522   42.5695    8.0561 C   0  0  0  0  0  0  0  0  0  0  0  0
   14.3031   42.8388    6.6851 C   0  0  0  0  0  0  0  0  0  0  0  0
   13.9042   44.3203    4.6575 C   0  0  0  0  0  0  0  0  0  0  0  0
   12.9894   44.7135    3.5717 C   0  0  0  0  0  0  0  0  0  0  0  0
   11.7343   44.1070    3.4409 C   0  0  0  0  0  0  0  0  0  0  0  0
   10.8755   44.4872    2.4085 C   0  0  0  0  0  0  0  0  0  0  0  0
   11.2841   45.4763    1.5122 C   0  0  0  0  0  0  0  0  0  0  0  0
   13.3567   45.7017    2.6485 C   0  0  0  0  0  0  0  0  0  0  0  0
   13.8280   40.0105    9.7428 N   0  0  0  0  0  0  0  0  0  0  0  0
   15.5465   43.3074    6.9743 N   0  0  0  0  0  0  0  0  0  0  0  0
   13.5080   43.3068    5.5911 N   0  0  0  0  0  0  0  0  0  0  0  0
   12.5056   46.0583    1.6492 N   0  0  0  0  0  0  0  0  0  0  0  0
   13.8729   41.8775    7.5346 N   0  0  0  0  0  0  0  0  0  0  0  0
   14.8671   41.7271    8.3870 N   0  0  0  0  0  0  0  0  0  0  0  0
   19.4910   42.1698   10.0029 F   0  0  0  0  0  0  0  0  0  0  0  0
   18.6258   40.5763   11.3312 F   0  0  0  0  0  0  0  0  0  0  0  0
   18.1994   42.7475   11.7565 F   0  0  0  0  0  0  0  0  0  0  0  0
   15.0313   44.8774    4.7601 O   0  0  0  0  0  0  0  0  0  0  0  0
  1  2  1  0
  2  3  1  0
  2 17  1  0
  5  6  1  0
  7  6  1  0
  7 23  1  0
  7 24  1  0
  7 25  1  0
  8  9  1  0
 10 18  1  0
 10 19  1  0
 11 12  1  0
 13 14  2  0
 15 20  2  0
 16 12  2  0
 17  4  1  0
 19 11  1  0
 22 21  1  0
 22  4  1  0
 22  9  1  0
  4  5  2  0
  6  8  2  0
  9 18  2  0
 10 21  2  0
 11 26  2  0
 12 13  1  0
 14 15  1  0
 16 20  1  0
M  END
>  <rmsd>  (50) 
0.207670122

$$$$
MolPort-007-711-038 ChemDiv-D485-0332 MCULE-4903669703 PubChem-46270011
     RDKit          3D

 34 38  0  0  0  0  0  0  0  0999 V2000
    9.2560   37.5879    5.4808 C   0  0  0  0  0  0  0  0  0  0  0  0
   10.5715   39.1700    6.8537 C   0  0  0  0  0  0  0  0  0  0  0  0
   11.0518   40.4703    7.0258 C   0  0  0  0  0  0  0  0  0  0  0  0
   11.8400   40.8043    8.1328 C   0  0  0  0  0  0  0  0  0  0  0  0
   12.3403   42.2243    8.2373 C   0  0  2  0  0  0  0  0  0  0  0  0
   12.5344   44.2240    9.5456 C   0  0  0  0  0  0  0  0  0  0  0  0
   12.1000   44.9550   10.8272 C   0  0  0  0  0  0  0  0  0  0  0  0
   10.2999   43.6100   11.0888 C   0  0  0  0  0  0  0  0  0  0  0  0
   10.6390   42.8126    9.8180 C   0  0  0  0  0  0  0  0  0  0  0  0
   13.7958   42.2725    7.8624 C   0  0  0  0  0  0  0  0  0  0  0  0
   14.3030   42.7977    6.6831 C   0  0  0  0  0  0  0  0  0  0  0  0
   13.9665   44.2226    4.5919 C   0  0  0  0  0  0  0  0  0  0  0  0
   13.1588   44.4321    3.3864 C   0  0  0  0  0  0  0  0  0  0  0  0
   11.9733   43.7908    3.0957 C   0  0  0  0  0  0  0  0  0  0  0  0
   11.5851   44.3046    1.8707 C   0  0  0  0  0  0  0  0  0  0  0  0
   12.5556   45.2197    1.4996 C   0  0  0  0  0  0  0  0  0  0  0  0
   15.6675   42.5987    6.7484 C   0  0  0  0  0  0  0  0  0  0  0  0
   16.6974   42.8449    5.8418 C   0  0  0  0  0  0  0  0  0  0  0  0
   18.0020   42.4847    6.2234 C   0  0  0  0  0  0  0  0  0  0  0  0
   18.2430   41.8837    7.4778 C   0  0  0  0  0  0  0  0  0  0  0  0
   17.1816   41.6261    8.3638 C   0  0  0  0  0  0  0  0  0  0  0  0
   15.8999   41.9923    7.9598 C   0  0  0  0  0  0  0  0  0  0  0  0
   12.1644   39.8136    9.0844 C   0  0  0  0  0  0  0  0  0  0  0  0
   13.3265   39.1936   11.1832 C   0  0  0  0  0  0  0  0  0  0  0  0
   11.6797   38.5078    8.9077 C   0  0  0  0  0  0  0  0  0  0  0  0
   10.8894   38.1880    7.8025 C   0  0  0  0  0  0  0  0  0  0  0  0
    9.7850   38.8821    5.7350 O   0  0  0  0  0  0  0  0  0  0  0  0
   11.4680   44.0729   11.7246 O   0  0  0  0  0  0  0  0  0  0  0  0
   15.0231   44.8887    4.7535 O   0  0  0  0  0  0  0  0  0  0  0  0
   13.4777   45.2669    2.4305 O   0  0  0  0  0  0  0  0  0  0  0  0
   14.7773   41.8066    8.6142 O   0  0  0  0  0  0  0  0  0  0  0  0
   12.9592   40.1407   10.1896 O   0  0  0  0  0  0  0  0  0  0  0  0
   12.0868   42.8228    9.5593 N   0  0  0  0  0  0  0  0  0  0  0  0
   13.5186   43.3066    5.5969 N   0  0  0  0  0  0  0  0  0  0  0  0
  1 27  1  0
  2 27  1  0
  3  4  2  0
  5  4  1  0
  5 33  1  1
  5 10  1  0
  6 33  1  0
  6  7  1  0
  7 28  1  0
  8 28  1  0
  8  9  1  0
  9 33  1  0
 10 31  1  0
 11 34  1  0
 11 17  1  0
 12 13  1  0
 13 30  1  0
 14 15  1  0
 16 30  1  0
 18 19  2  0
 20 21  2  0
 22 31  1  0
 22 17  2  0
 23 32  1  0
 23 25  2  0
 24 32  1  0
 26  2  2  0
 34 12  1  0
  2  3  1  0
  4 23  1  0
 10 11  2  0
 12 29  2  0
 13 14  2  0
 15 16  2  0
 17 18  1  0
 19 20  1  0
 21 22  1  0
 25 26  1  0
M  END
>  <rmsd>  (51) 
0.167379826

$$$$
MolPort-008-338-731 36353994 CSSS00160717244 LN00877548 MCULE-5276027582 PubChem-45491328 ZINC000036353994 ZINC36353994
     RDKit          3D

 29 31  0  0  0  0  0  0  0  0999 V2000
   17.9551   41.1294    9.8298 C   0  0  0  0  0  0  0  0  0  0  0  0
   15.8066   41.5120    8.6550 C   0  0  0  0  0  0  0  0  0  0  0  0
   16.4223   42.3507    7.7106 C   0  0  0  0  0  0  0  0  0  0  0  0
   15.6753   42.9482    6.6954 C   0  0  0  0  0  0  0  0  0  0  0  0
   14.2973   42.7224    6.6078 C   0  0  0  0  0  0  0  0  0  0  0  0
   13.9099   44.3234    4.6461 C   0  0  0  0  0  0  0  0  0  0  0  0
   13.0121   44.7143    3.5538 C   0  0  0  0  0  0  0  0  0  0  0  0
   12.5621   46.1525    1.5312 C   0  0  0  0  0  0  0  0  0  0  0  0
   13.1337   47.3572    0.8701 C   0  0  0  0  0  0  0  0  0  0  0  0
   14.3275   47.2744    0.1471 C   0  0  0  0  0  0  0  0  0  0  0  0
   14.8456   48.4146   -0.4702 C   0  0  0  0  0  0  0  0  0  0  0  0
   14.1566   49.6248   -0.3571 C   0  0  0  0  0  0  0  0  0  0  0  0
   12.4738   48.5858    0.9584 C   0  0  0  0  0  0  0  0  0  0  0  0
   13.6823   41.8812    7.5384 C   0  0  0  0  0  0  0  0  0  0  0  0
   14.4177   41.2662    8.5642 C   0  0  0  0  0  0  0  0  0  0  0  0
   14.3599   39.1619    9.9597 C   0  0  0  0  0  0  0  0  0  0  0  0
   14.2083   38.9467   11.4758 C   0  0  0  0  0  0  0  0  0  0  0  0
   12.9793   39.5947   12.1371 C   0  0  0  0  0  0  0  0  0  0  0  0
   11.7384   39.5645   11.2573 C   0  0  0  0  0  0  0  0  0  0  0  0
   16.5530   40.9403    9.6925 O   0  0  0  0  0  0  0  0  0  0  0  0
   15.0256   44.8965    4.7700 O   0  0  0  0  0  0  0  0  0  0  0  0
   11.9191   44.1062    3.3927 O   0  0  0  0  0  0  0  0  0  0  0  0
   11.2233   40.1702    8.6802 O   0  0  0  0  0  0  0  0  0  0  0  0
   11.7627   42.0320   10.2051 O   0  0  0  0  0  0  0  0  0  0  0  0
   13.4977   43.3088    5.5732 N   0  0  0  0  0  0  0  0  0  0  0  0
   13.3777   45.7816    2.6773 N   0  0  0  0  0  0  0  0  0  0  0  0
   12.9947   49.6851    0.3486 N   0  0  0  0  0  0  0  0  0  0  0  0
   13.7445   40.4050    9.5029 N   0  0  0  0  0  0  0  0  0  0  0  0
   12.0582   40.6002    9.8529 S   0  0  0  0  0  0  0  0  0  0  0  0
  1 20  1  0
  2 20  1  0
  3  4  2  0
  5 25  1  0
  5 14  2  0
  6  7  1  0
  7 26  1  0
  8 26  1  0
  8  9  1  0
 10 11  2  0
 12 27  2  0
 13  9  2  0
 15 28  1  0
 15  2  2  0
 16 28  1  0
 16 17  1  0
 17 18  1  0
 18 19  1  0
 19 29  1  0
 25  6  1  0
 29 28  1  0
  2  3  1  0
  4  5  1  0
  6 21  2  0
  7 22  2  0
  9 10  1  0
 11 12  1  0
 13 27  1  0
 14 15  1  0
 29 23  2  0
 29 24  2  0
M  END
>  <rmsd>  (52) 
0.247010559

$$$$
Molport-051-662-103 MCULE-9837835430
     RDKit          3D

 29 32  0  0  0  0  0  0  0  0999 V2000
   12.2638   46.4377    1.9828 C   0  0  0  0  0  0  0  0  0  0  0  0
   12.6590   47.5473    1.0639 C   0  0  0  0  0  0  0  0  0  0  0  0
   13.4822   46.1176   -2.0846 C   0  0  0  0  0  0  0  0  0  0  0  0
   14.7645   46.2619   -1.5735 C   0  0  0  0  0  0  0  0  0  0  0  0
   14.5909   46.8311   -0.3242 C   0  0  0  0  0  0  0  0  0  0  0  0
   13.1997   45.9485    2.8999 C   0  0  0  0  0  0  0  0  0  0  0  0
   12.8734   44.8906    3.7589 C   0  0  0  0  0  0  0  0  0  0  0  0
   11.5960   44.3210    3.6873 C   0  0  0  0  0  0  0  0  0  0  0  0
   10.6597   44.7998    2.7684 C   0  0  0  0  0  0  0  0  0  0  0  0
   10.9857   45.8587    1.9058 C   0  0  0  0  0  0  0  0  0  0  0  0
    8.7529   45.8047    0.8341 C   0  0  0  0  0  0  0  0  0  0  0  0
   13.8640   44.3805    4.7233 C   0  0  0  0  0  0  0  0  0  0  0  0
   14.3608   42.6874    6.5779 C   0  0  0  0  0  0  0  0  0  0  0  0
   16.1382   41.9430    8.1312 C   0  0  0  0  0  0  0  0  0  0  0  0
   14.9247   41.2597    8.2087 C   0  0  0  0  0  0  0  0  0  0  0  0
   14.6903   40.1718    9.1992 C   0  0  0  0  0  0  0  0  0  0  0  0
   14.6704   39.9774   11.5905 C   0  0  0  0  0  0  0  0  0  0  0  0
   14.1380   38.5417   11.6434 C   0  0  0  0  0  0  0  0  0  0  0  0
   12.6182   38.5567   11.6594 C   0  0  0  0  0  0  0  0  0  0  0  0
   12.1071   39.2964   10.4338 C   0  0  0  0  0  0  0  0  0  0  0  0
   12.6818   40.7159   10.4105 C   0  0  0  0  0  0  0  0  0  0  0  0
   13.2739   47.0082   -0.1383 N   0  0  0  0  0  0  0  0  0  0  0  0
   12.5946   46.5784   -1.1844 N   0  0  0  0  0  0  0  0  0  0  0  0
   13.5138   43.2978    5.5969 N   0  0  0  0  0  0  0  0  0  0  0  0
   14.1530   40.7291   10.4382 N   0  0  0  0  0  0  0  0  0  0  0  0
   13.9445   41.6732    7.3601 N   0  0  0  0  0  0  0  0  0  0  0  0
   10.0605   46.3434    0.9731 O   0  0  0  0  0  0  0  0  0  0  0  0
   15.0125   44.8983    4.7718 O   0  0  0  0  0  0  0  0  0  0  0  0
   15.9518   43.1031    6.9238 S   0  0  0  0  0  0  0  0  0  0  0  0
  2  1  1  0
  2 22  1  0
  3  4  1  0
  5 22  1  0
  6  7  2  0
  7 12  1  0
  8  9  2  0
 10 27  1  0
 10  1  2  0
 11 27  1  0
 12 24  1  0
 13 29  1  0
 14 29  1  0
 15 26  1  0
 16 15  1  0
 16 25  1  0
 17 25  1  0
 17 18  1  0
 18 19  1  0
 19 20  1  0
 20 21  1  0
 21 25  1  0
 22 23  1  0
 24 13  1  0
  1  6  1  0
  3 23  2  0
  4  5  2  0
  7  8  1  0
  9 10  1  0
 12 28  2  0
 13 26  2  0
 14 15  2  0
M  END
>  <rmsd>  (53) 
0.240929678

$$$$
MolPort-019-935-278 67896675 CSSS00159302457 MCULE-6991765842 PubChem-56774740 ZINC000067896675 ZINC67896675
     RDKit          3D

 35 38  0  0  0  0  0  0  0  0999 V2000
   13.4672   39.2270   11.3990 C   0  0  0  0  0  0  0  0  0  0  0  0
   14.2937   36.9116   10.9876 C   0  0  0  0  0  0  0  0  0  0  0  0
   15.5622   37.0376   11.6115 C   0  0  0  0  0  0  0  0  0  0  0  0
   16.2061   38.3642   11.8850 C   0  0  0  0  0  0  0  0  0  0  0  0
   16.5959   39.3729    9.5964 C   0  0  2  0  0  0  0  0  0  0  0  0
   17.5210   39.1373    8.3832 C   0  0  0  0  0  0  0  0  0  0  0  0
   19.1177   37.9671    9.4612 C   0  0  0  0  0  0  0  0  0  0  0  0
   18.4461   38.1551   10.7845 C   0  0  0  0  0  0  0  0  0  0  0  0
   16.4433   40.8867    9.8110 C   0  0  1  0  0  0  0  0  0  0  0  0
   15.6639   41.5225    8.7013 C   0  0  0  0  0  0  0  0  0  0  0  0
   16.2782   42.4879    7.8984 C   0  0  0  0  0  0  0  0  0  0  0  0
   15.5677   43.0873    6.8547 C   0  0  0  0  0  0  0  0  0  0  0  0
   14.2340   42.7288    6.6043 C   0  0  0  0  0  0  0  0  0  0  0  0
   13.9100   44.3596    4.6486 C   0  0  0  0  0  0  0  0  0  0  0  0
   13.0162   44.8172    3.5692 C   0  0  0  0  0  0  0  0  0  0  0  0
   13.4240   45.8368    2.6954 C   0  0  0  0  0  0  0  0  0  0  0  0
   12.5784   46.2674    1.6696 C   0  0  0  0  0  0  0  0  0  0  0  0
   11.3180   45.6812    1.5082 C   0  0  0  0  0  0  0  0  0  0  0  0
   10.9038   44.6640    2.3732 C   0  0  0  0  0  0  0  0  0  0  0  0
   11.7502   44.2332    3.3991 C   0  0  0  0  0  0  0  0  0  0  0  0
   10.4485   46.1334    0.4600 C   0  0  0  0  0  0  0  0  0  0  0  0
   13.6235   41.7604    7.4085 C   0  0  0  0  0  0  0  0  0  0  0  0
   14.3317   41.1601    8.4535 C   0  0  0  0  0  0  0  0  0  0  0  0
   16.3055   35.8850   11.8980 C   0  0  0  0  0  0  0  0  0  0  0  0
   15.8172   34.6203   11.5652 C   0  0  0  0  0  0  0  0  0  0  0  0
   14.5830   34.4964   10.9288 C   0  0  0  0  0  0  0  0  0  0  0  0
   13.8299   35.6359   10.6413 C   0  0  0  0  0  0  0  0  0  0  0  0
   13.4591   37.9972   10.6887 O   0  0  0  0  0  0  0  0  0  0  0  0
   18.1404   37.8772    8.4527 O   0  0  0  0  0  0  0  0  0  0  0  0
   19.0211   37.8045   11.8496 O   0  0  0  0  0  0  0  0  0  0  0  0
   15.8314   41.1711   11.0338 O   0  0  0  0  0  0  0  0  0  0  0  0
   15.0452   44.8927    4.7882 O   0  0  0  0  0  0  0  0  0  0  0  0
   17.1254   38.7178   10.8051 N   0  0  0  0  0  0  0  0  0  0  0  0
   13.4768   43.3183    5.5383 N   0  0  0  0  0  0  0  0  0  0  0  0
    9.7498   46.5029   -0.3862 N   0  0  0  0  0  0  0  0  0  0  0  0
  1 28  1  0
  2 28  1  0
  3 24  2  0
  4  3  1  0
  4 33  1  0
  5 33  1  0
  5  6  1  6
  5  9  1  0
  6 29  1  0
  7 29  1  0
  7  8  1  0
  8 33  1  0
  9 31  1  1
  9 10  1  0
 11 12  2  0
 13 34  1  0
 13 22  2  0
 14 15  1  0
 16 17  2  0
 18 19  2  0
 18 21  1  0
 20 15  2  0
 23 10  2  0
 25 26  2  0
 27  2  2  0
 34 14  1  0
  2  3  1  0
  8 30  2  0
 10 11  1  0
 12 13  1  0
 14 32  2  0
 15 16  1  0
 17 18  1  0
 19 20  1  0
 22 23  1  0
 24 25  1  0
 26 27  1  0
 21 35  3  0
M  END
>  <rmsd>  (54) 
0.234799191

$$$$
MolPort-007-776-367 ChemDiv-E957-1576 MCULE-1285197482 PubChem-20926064 ZINC000009265415
     RDKit          3D

 33 36  0  0  0  0  0  0  0  0999 V2000
   14.2704   41.4301    7.0952 C   0  0  0  0  0  0  0  0  0  0  0  0
   13.4365   40.3429    6.5384 C   0  0  0  0  0  0  0  0  0  0  0  0
   13.6344   38.8919    8.6112 C   0  0  0  0  0  0  0  0  0  0  0  0
   12.6004   39.6158    9.4822 C   0  0  0  0  0  0  0  0  0  0  0  0
   12.9360   38.1506   11.3428 C   0  0  0  0  0  0  0  0  0  0  0  0
   14.1848   40.1455   11.1923 C   0  0  0  0  0  0  0  0  0  0  0  0
   12.7998   37.9082    6.4831 C   0  0  0  0  0  0  0  0  0  0  0  0
   13.8088   37.4131    5.5028 C   0  0  0  0  0  0  0  0  0  0  0  0
   14.8368   36.5449    5.7939 C   0  0  0  0  0  0  0  0  0  0  0  0
   15.5181   36.3964    4.5981 C   0  0  0  0  0  0  0  0  0  0  0  0
   14.8624   37.1845    3.6670 C   0  0  0  0  0  0  0  0  0  0  0  0
   15.6575   42.4420    8.3569 C   0  0  0  0  0  0  0  0  0  0  0  0
   15.2166   43.3917    7.4692 C   0  0  0  0  0  0  0  0  0  0  0  0
   15.6244   44.7221    7.5558 C   0  0  0  0  0  0  0  0  0  0  0  0
   16.5410   45.0587    8.5678 C   0  0  0  0  0  0  0  0  0  0  0  0
   17.0122   44.0760    9.4649 C   0  0  0  0  0  0  0  0  0  0  0  0
   16.5659   42.7459    9.3680 C   0  0  0  0  0  0  0  0  0  0  0  0
   14.3285   42.7439    6.6341 C   0  0  0  0  0  0  0  0  0  0  0  0
   13.8391   44.4517    4.7998 C   0  0  0  0  0  0  0  0  0  0  0  0
   12.7969   45.0898    3.9771 C   0  0  0  0  0  0  0  0  0  0  0  0
   13.1041   46.2005    3.1768 C   0  0  0  0  0  0  0  0  0  0  0  0
   12.1138   46.8058    2.3975 C   0  0  0  0  0  0  0  0  0  0  0  0
   10.8091   46.3053    2.4132 C   0  0  0  0  0  0  0  0  0  0  0  0
   10.4944   45.1999    3.2080 C   0  0  0  0  0  0  0  0  0  0  0  0
   11.4846   44.5945    3.9872 C   0  0  0  0  0  0  0  0  0  0  0  0
    9.7564   46.9488    1.5849 C   0  0  0  0  0  0  0  0  0  0  0  0
   12.8278   40.5343    5.4506 O   0  0  0  0  0  0  0  0  0  0  0  0
   13.8475   37.7774    4.2477 O   0  0  0  0  0  0  0  0  0  0  0  0
   15.0921   41.2820    8.1199 O   0  0  0  0  0  0  0  0  0  0  0  0
   15.0213   44.8882    4.7641 O   0  0  0  0  0  0  0  0  0  0  0  0
   13.3163   39.0674    7.2002 N   0  0  0  0  0  0  0  0  0  0  0  0
   12.8886   39.5422   10.9184 N   0  0  0  0  0  0  0  0  0  0  0  0
   13.5159   43.3036    5.5936 N   0  0  0  0  0  0  0  0  0  0  0  0
  1  2  1  0
  1 29  1  0
  2 31  1  0
  3 31  1  0
  3  4  1  0
  4 32  1  0
  5 32  1  0
  6 32  1  0
  7 31  1  0
  7  8  1  0
  8 28  1  0
  9 10  1  0
 11 28  1  0
 12 29  1  0
 13 14  2  0
 13 18  1  0
 15 16  2  0
 17 12  2  0
 18 33  1  0
 19 20  1  0
 21 22  2  0
 23 24  2  0
 25 20  2  0
 26 23  1  0
 33 19  1  0
  2 27  2  0
  8  9  2  0
 10 11  2  0
 12 13  1  0
 14 15  1  0
 16 17  1  0
 18  1  2  0
 19 30  2  0
 20 21  1  0
 22 23  1  0
 24 25  1  0
M  END
>  <rmsd>  (55) 
0.165868118

$$$$
MolPort-002-854-086 CSSS00138418082 MCULE-7243128000
     RDKit          3D

 24 26  0  0  0  0  0  0  0  0999 V2000
   16.6923   46.4908    4.0212 C   0  0  0  0  0  0  0  0  0  0  0  0
   13.9013   44.3162    4.6741 C   0  0  0  0  0  0  0  0  0  0  0  0
   14.2439   42.7811    6.6778 C   0  0  0  0  0  0  0  0  0  0  0  0
   15.7526   42.4476    8.0708 C   0  0  0  0  0  0  0  0  0  0  0  0
   17.0114   41.6086    9.8545 C   0  0  0  0  0  0  0  0  0  0  0  0
   15.9648   40.7230   10.1780 C   0  0  0  0  0  0  0  0  0  0  0  0
   14.7928   40.7412    9.3997 C   0  0  0  0  0  0  0  0  0  0  0  0
   13.6433   39.8023    9.6548 C   0  0  2  0  0  0  0  0  0  0  0  0
   13.5219   39.3361   11.1007 C   0  0  0  0  0  0  0  0  0  0  0  0
   14.5760   37.6818    8.6646 C   0  0  0  0  0  0  0  0  0  0  0  0
   14.4464   36.7127    7.6637 C   0  0  0  0  0  0  0  0  0  0  0  0
   15.3724   35.6701    7.5630 C   0  0  0  0  0  0  0  0  0  0  0  0
   16.4358   35.5902    8.4660 C   0  0  0  0  0  0  0  0  0  0  0  0
   16.5729   36.5521    9.4701 C   0  0  0  0  0  0  0  0  0  0  0  0
   15.6465   37.5937    9.5697 C   0  0  0  0  0  0  0  0  0  0  0  0
   15.4268   45.8681    3.8988 O   0  0  0  0  0  0  0  0  0  0  0  0
   13.6248   38.7110    8.7303 O   0  0  0  0  0  0  0  0  0  0  0  0
   15.0559   44.8857    4.7851 N   0  0  0  0  0  0  0  0  0  0  0  0
   13.4793   43.2893    5.5789 N   0  0  0  0  0  0  0  0  0  0  0  0
   13.7780   41.8049    7.4937 N   0  0  0  0  0  0  0  0  0  0  0  0
   14.7509   41.6160    8.3628 N   0  0  0  0  0  0  0  0  0  0  0  0
   15.4908   43.2197    7.0029 N   0  0  0  0  0  0  0  0  0  0  0  0
   16.8949   42.4669    8.7992 N   0  0  0  0  0  0  0  0  0  0  0  0
   17.3331   34.5804    8.3685 F   0  0  0  0  0  0  0  0  0  0  0  0
  1 16  1  0
  2 19  1  0
  3 22  1  0
  4 23  1  0
  5  6  1  0
  7 21  1  0
  8  7  1  0
  8  9  1  1
  8 17  1  0
 10 17  1  0
 11 12  2  0
 13 24  1  0
 13 14  2  0
 15 10  2  0
 16 18  1  0
 19  3  1  0
 21 20  1  0
 21  4  1  0
  2 18  2  0
  3 20  2  0
  4 22  2  0
  5 23  2  0
  6  7  2  0
 10 11  1  0
 12 13  1  0
 14 15  1  0
M  END
>  <rmsd>  (56) 
0.193519562

$$$$
MolPort-019-771-773 CSSS20538596534 PubChem-56694138 ZINC000005708151 ZINC05708151
     RDKit          3D

 26 27  0  0  0  0  0  0  0  0999 V2000
   12.6520   38.7943   11.3944 C   0  0  0  0  0  0  0  0  0  0  0  0
   13.9451   39.5856   11.4190 C   0  0  0  0  0  0  0  0  0  0  0  0
   14.6846   39.4223   10.1040 C   0  0  0  0  0  0  0  0  0  0  0  0
   14.5469   41.1281    8.3148 C   0  0  0  0  0  0  0  0  0  0  0  0
   15.8530   41.5733    8.5516 C   0  0  0  0  0  0  0  0  0  0  0  0
   16.3581   42.6114    7.7718 C   0  0  0  0  0  0  0  0  0  0  0  0
   18.2275   44.1211    7.2331 C   0  0  0  0  0  0  0  0  0  0  0  0
   19.6494   44.3836    7.6923 C   0  0  0  0  0  0  0  0  0  0  0  0
   20.5497   43.2313    7.2914 C   0  0  0  0  0  0  0  0  0  0  0  0
   14.3112   42.7275    6.5820 C   0  0  0  0  0  0  0  0  0  0  0  0
   13.8795   44.3839    4.6886 C   0  0  0  0  0  0  0  0  0  0  0  0
   12.9266   44.8869    3.6834 C   0  0  0  0  0  0  0  0  0  0  0  0
   13.2891   45.9317    2.8216 C   0  0  0  0  0  0  0  0  0  0  0  0
   12.3849   46.4081    1.8685 C   0  0  0  0  0  0  0  0  0  0  0  0
   11.1039   45.8464    1.7631 C   0  0  0  0  0  0  0  0  0  0  0  0
   10.7419   44.8021    2.6247 C   0  0  0  0  0  0  0  0  0  0  0  0
   11.6465   44.3260    3.5777 C   0  0  0  0  0  0  0  0  0  0  0  0
   13.9822   40.0915    9.0633 O   0  0  0  0  0  0  0  0  0  0  0  0
   17.6578   43.0659    7.9955 O   0  0  0  0  0  0  0  0  0  0  0  0
   15.0287   44.8969    4.7739 O   0  0  0  0  0  0  0  0  0  0  0  0
    8.9173   45.7771    0.6881 O   0  0  0  0  0  0  0  0  0  0  0  0
   10.4887   47.2623    0.0160 O   0  0  0  0  0  0  0  0  0  0  0  0
   15.5793   43.1674    6.8043 N   0  0  0  0  0  0  0  0  0  0  0  0
   13.4933   43.3140    5.5632 N   0  0  0  0  0  0  0  0  0  0  0  0
   10.1726   46.3321    0.7868 N   0  0  0  0  0  0  0  0  0  0  0  0
   13.8084   41.7155    7.3369 N   0  0  0  0  0  0  0  0  0  0  0  0
  1  2  1  0
  2  3  1  0
  3 18  1  0
  4 18  1  0
  4 26  2  0
  5  6  2  0
  6 19  1  0
  7 19  1  0
  7  8  1  0
  8  9  1  0
 10 23  2  0
 10 24  1  0
 11 12  1  0
 13 14  2  0
 15 16  2  0
 15 25  1  0
 17 12  2  0
 24 11  1  0
 25 21  1  0
  4  5  1  0
  6 23  1  0
 10 26  1  0
 11 20  2  0
 12 13  1  0
 14 15  1  0
 16 17  1  0
 25 22  2  0
M  CHG  2  21  -1  25   1
M  END
>  <rmsd>  (57) 
0.246614918

$$$$
MolPort-008-381-923 55412984 CSSS00159806312 MCULE-6001361176 PubChem-46999781 ZINC000055412984 ZINC55412984
     RDKit          3D

 24 25  0  0  0  0  0  0  0  0999 V2000
   11.5893   46.4348    5.1062 C   0  0  0  0  0  0  0  0  0  0  0  0
   12.5600   46.3467    3.9433 C   0  0  0  0  0  0  0  0  0  0  0  0
   12.9343   44.8981    3.6710 C   0  0  0  0  0  0  0  0  0  0  0  0
   13.8894   44.3862    4.6966 C   0  0  0  0  0  0  0  0  0  0  0  0
   14.2578   42.7048    6.5957 C   0  0  0  0  0  0  0  0  0  0  0  0
   13.6957   41.6529    7.3271 C   0  0  0  0  0  0  0  0  0  0  0  0
   14.4192   41.0385    8.3532 C   0  0  0  0  0  0  0  0  0  0  0  0
   15.7145   41.4713    8.6546 C   0  0  0  0  0  0  0  0  0  0  0  0
   16.4823   40.8298    9.7618 C   0  0  0  0  0  0  0  0  0  0  0  0
   16.1880   41.4919   11.0736 C   0  0  0  0  0  0  0  0  0  0  0  0
   15.2142   39.3533   12.0028 C   0  0  0  0  0  0  0  0  0  0  0  0
   14.0409   39.1503   11.0959 C   0  0  0  0  0  0  0  0  0  0  0  0
   12.8178   39.5244   11.4614 C   0  0  0  0  0  0  0  0  0  0  0  0
   15.4055   41.4248   13.4464 C   0  0  0  0  0  0  0  0  0  0  0  0
   16.3126   40.7763   14.4813 C   0  0  0  0  0  0  0  0  0  0  0  0
   15.4193   40.3430   15.6276 C   0  0  0  0  0  0  0  0  0  0  0  0
   14.1237   41.1050   15.4595 C   0  0  0  0  0  0  0  0  0  0  0  0
   13.9853   41.3315   13.9724 C   0  0  0  0  0  0  0  0  0  0  0  0
   16.2808   42.5256    7.9310 C   0  0  0  0  0  0  0  0  0  0  0  0
   15.5561   43.1389    6.9052 C   0  0  0  0  0  0  0  0  0  0  0  0
   15.0389   44.8949    4.7868 O   0  0  0  0  0  0  0  0  0  0  0  0
   16.5347   42.6933   11.2396 O   0  0  0  0  0  0  0  0  0  0  0  0
   13.4830   43.3106    5.5521 N   0  0  0  0  0  0  0  0  0  0  0  0
   15.5402   40.7755   12.1410 N   0  0  0  0  0  0  0  0  0  0  0  0
  1  2  1  0
  2  3  1  0
  3  4  1  0
  4 23  1  0
  6  7  2  0
  8 19  2  0
  9  8  1  0
  9 10  1  0
 10 24  1  0
 11 24  1  0
 11 12  1  0
 14 24  1  0
 14 15  1  0
 15 16  1  0
 16 17  1  0
 17 18  1  0
 18 14  1  0
 20  5  2  0
 23  5  1  0
  4 21  2  0
  5  6  1  0
  7  8  1  0
 10 22  2  0
 12 13  2  0
 19 20  1  0
M  END
>  <rmsd>  (58) 
0.233127415

$$$$
Molport-047-042-891 MCULE-9701418706 PubChem-132765288
     RDKit          3D

 25 27  0  0  0  0  0  0  0  0999 V2000
   14.9496   40.8830   12.5584 C   0  0  0  0  0  0  0  0  0  0  0  0
   17.1237   41.9093   11.7278 C   0  0  0  0  0  0  0  0  0  0  0  0
   18.0478   42.1010   10.5770 C   0  0  0  0  0  0  0  0  0  0  0  0
   18.4541   44.2304    9.6984 C   0  0  0  0  0  0  0  0  0  0  0  0
   18.5844   44.7317    8.2828 C   0  0  0  0  0  0  0  0  0  0  0  0
   18.3296   43.5143    7.4382 C   0  0  0  0  0  0  0  0  0  0  0  0
   17.5424   42.5665    8.3308 C   0  0  2  0  0  0  0  0  0  0  0  0
   16.1405   42.3492    7.8363 C   0  0  0  0  0  0  0  0  0  0  0  0
   15.3158   41.3650    8.3857 C   0  0  0  0  0  0  0  0  0  0  0  0
   14.3245   42.7070    6.5727 C   0  0  0  0  0  0  0  0  0  0  0  0
   13.8814   44.3773    4.7158 C   0  0  0  0  0  0  0  0  0  0  0  0
   12.9154   44.9015    3.7160 C   0  0  0  0  0  0  0  0  0  0  0  0
   14.9364   41.3467   13.8600 C   0  0  0  0  0  0  0  0  0  0  0  0
   13.7998   40.1447   12.3957 C   0  0  0  0  0  0  0  0  0  0  0  0
   13.3619   39.4454   11.1572 C   0  0  0  0  0  0  0  0  0  0  0  0
   13.3770   41.1182   15.7777 C   0  0  0  0  0  0  0  0  0  0  0  0
   15.9451   41.1159   11.5561 N   0  0  0  0  0  0  0  0  0  0  0  0
   17.5143   43.1178    9.6845 N   0  0  0  0  0  0  0  0  0  0  0  0
   13.4906   43.3003    5.5731 N   0  0  0  0  0  0  0  0  0  0  0  0
   15.5907   43.0892    6.8322 N   0  0  0  0  0  0  0  0  0  0  0  0
   13.8008   40.8741   14.4121 N   0  0  0  0  0  0  0  0  0  0  0  0
   13.1059   40.1508   13.5467 N   0  0  0  0  0  0  0  0  0  0  0  0
   17.3738   42.4747   12.8251 O   0  0  0  0  0  0  0  0  0  0  0  0
   15.0298   44.8882    4.7947 O   0  0  0  0  0  0  0  0  0  0  0  0
   13.8453   41.4496    7.5669 S   0  0  0  0  0  0  0  0  0  0  0  0
  1 17  1  0
  3  2  1  0
  3 18  1  0
  4 18  1  0
  4  5  1  0
  5  6  1  0
  6  7  1  0
  7  8  1  6
  7 18  1  0
  8 20  1  0
  9 25  1  0
 10 25  1  0
 10 19  1  0
 12 11  1  0
 13 21  1  0
 14  1  1  0
 15 14  1  0
 16 21  1  0
 17  2  1  0
 19 11  1  0
 21 22  1  0
  1 13  2  0
  2 23  2  0
  8  9  2  0
 10 20  2  0
 11 24  2  0
 14 22  2  0
M  END
>  <rmsd>  (59) 
0.229908854

$$$$
MolPort-005-112-484 CSSS00159534780 MCULE-5873997542
     RDKit          3D

 35 40  0  0  0  0  0  0  0  0999 V2000
   16.5570   39.7492   10.5860 C   0  0  0  0  0  0  0  0  0  0  0  0
   18.0217   39.9645   10.3655 C   0  0  1  0  0  0  0  0  0  0  0  0
   18.7994   38.7548   10.8532 C   0  0  0  0  0  0  0  0  0  0  0  0
   19.2361   37.9941    9.6082 C   0  0  0  0  0  0  0  0  0  0  0  0
   19.1091   38.9640    8.4488 C   0  0  0  0  0  0  0  0  0  0  0  0
   18.0097   41.2193    8.1419 C   0  0  0  0  0  0  0  0  0  0  0  0
   17.2019   42.3520    8.6925 C   0  0  0  0  0  0  0  0  0  0  0  0
   15.5911   43.1077    6.9609 C   0  0  0  0  0  0  0  0  0  0  0  0
   14.2758   42.8084    6.6726 C   0  0  0  0  0  0  0  0  0  0  0  0
   13.8348   41.8989    7.6114 C   0  0  0  0  0  0  0  0  0  0  0  0
   13.9245   44.2958    4.6380 C   0  0  0  0  0  0  0  0  0  0  0  0
   13.0593   44.6492    3.4992 C   0  0  0  0  0  0  0  0  0  0  0  0
   13.4579   45.6596    2.5894 C   0  0  0  0  0  0  0  0  0  0  0  0
   12.6470   46.0042    1.4935 C   0  0  0  0  0  0  0  0  0  0  0  0
   11.4485   45.3146    1.3401 C   0  0  0  0  0  0  0  0  0  0  0  0
   11.0583   44.3453    2.2057 C   0  0  0  0  0  0  0  0  0  0  0  0
    9.4359   44.5290    0.6162 C   0  0  0  0  0  0  0  0  0  0  0  0
   11.8324   43.9790    3.3036 C   0  0  0  0  0  0  0  0  0  0  0  0
   14.6172   39.9594   11.3714 C   0  0  0  0  0  0  0  0  0  0  0  0
   14.6052   38.9781   10.4279 C   0  0  0  0  0  0  0  0  0  0  0  0
   13.4430   38.2893   10.0902 C   0  0  0  0  0  0  0  0  0  0  0  0
   12.2618   38.6400   10.7708 C   0  0  0  0  0  0  0  0  0  0  0  0
   12.2754   39.6578   11.7513 C   0  0  0  0  0  0  0  0  0  0  0  0
   13.4688   40.3358   12.0629 C   0  0  0  0  0  0  0  0  0  0  0  0
   18.3202   40.0726    8.9476 N   0  0  0  0  0  0  0  0  0  0  0  0
   15.8954   42.3914    8.0564 N   0  0  0  0  0  0  0  0  0  0  0  0
   14.8628   41.6627    8.4492 N   0  0  0  0  0  0  0  0  0  0  0  0
   13.4950   43.3028    5.5798 N   0  0  0  0  0  0  0  0  0  0  0  0
   15.8508   40.4682   11.4964 N   0  0  0  0  0  0  0  0  0  0  0  0
   15.8304   38.8191    9.9087 N   0  0  0  0  0  0  0  0  0  0  0  0
   18.4192   41.2829    6.9517 O   0  0  0  0  0  0  0  0  0  0  0  0
   15.0369   44.8735    4.7825 O   0  0  0  0  0  0  0  0  0  0  0  0
    9.8377   43.8370    1.8073 O   0  0  0  0  0  0  0  0  0  0  0  0
   10.4927   45.4635    0.3549 O   0  0  0  0  0  0  0  0  0  0  0  0
   11.1026   38.0056   10.4760 F   0  0  0  0  0  0  0  0  0  0  0  0
  1 29  1  0
  2  1  1  6
  2  3  1  0
  2 25  1  0
  3  4  1  0
  4  5  1  0
  5 25  1  0
  7  6  1  0
  7 26  1  0
  9 10  1  0
  9 28  1  0
 11 12  1  0
 13 14  2  0
 15 16  2  0
 15 34  1  0
 16 33  1  0
 17 33  1  0
 17 34  1  0
 18 12  2  0
 20 21  2  0
 20 30  1  0
 22 23  2  0
 22 35  1  0
 24 19  2  0
 25  6  1  0
 26  8  1  0
 26 27  1  0
 28 11  1  0
 29 19  1  0
  1 30  2  0
  6 31  2  0
  8  9  2  0
 10 27  2  0
 11 32  2  0
 12 13  1  0
 14 15  1  0
 16 18  1  0
 19 20  1  0
 21 22  1  0
 23 24  1  0
M  END
>  <rmsd>  (60) 
0.203432187

$$$$
MolPort-051-589-860
     RDKit          3D

 31 33  0  0  0  0  0  0  0  0999 V2000
   17.1867   42.2860    8.6272 C   0  0  0  0  0  0  0  0  0  0  0  0
   15.5586   43.0709    6.9303 C   0  0  0  0  0  0  0  0  0  0  0  0
   14.2694   42.7163    6.5787 C   0  0  0  0  0  0  0  0  0  0  0  0
   13.8986   44.3813    4.6854 C   0  0  0  0  0  0  0  0  0  0  0  0
   13.2916   45.9138    2.7962 C   0  0  0  0  0  0  0  0  0  0  0  0
   14.4745   45.5565    1.9127 C   0  0  0  0  0  0  0  0  0  0  0  0
   13.5770   47.2071    3.5400 C   0  0  0  0  0  0  0  0  0  0  0  0
   12.0814   46.1274    1.9120 C   0  0  0  0  0  0  0  0  0  0  0  0
   14.8463   41.4530    8.1786 C   0  0  0  0  0  0  0  0  0  0  0  0
   14.7887   40.4044    9.2131 C   0  0  0  0  0  0  0  0  0  0  0  0
   13.4263   38.6169   10.3928 C   0  0  0  0  0  0  0  0  0  0  0  0
   12.9271   39.2667   11.6741 C   0  0  0  0  0  0  0  0  0  0  0  0
   14.0869   39.7131   12.5511 C   0  0  0  0  0  0  0  0  0  0  0  0
   14.1520   37.6978   14.1730 C   0  0  0  0  0  0  0  0  0  0  0  0
   15.1596   36.7468   14.6282 C   0  0  0  0  0  0  0  0  0  0  0  0
   15.0797   35.7195   15.5658 C   0  0  0  0  0  0  0  0  0  0  0  0
   16.2390   34.9600   15.8034 C   0  0  0  0  0  0  0  0  0  0  0  0
   17.4365   35.2399   15.1108 C   0  0  0  0  0  0  0  0  0  0  0  0
   17.4928   36.2835   14.1702 C   0  0  0  0  0  0  0  0  0  0  0  0
   16.3312   37.0207   13.9506 C   0  0  0  0  0  0  0  0  0  0  0  0
   16.0755   38.1475   13.0605 C   0  0  0  0  0  0  0  0  0  0  0  0
   15.9043   42.2605    7.9432 N   0  0  0  0  0  0  0  0  0  0  0  0
   13.4820   43.3115    5.5408 N   0  0  0  0  0  0  0  0  0  0  0  0
   13.8141   41.7093    7.3495 N   0  0  0  0  0  0  0  0  0  0  0  0
   13.6007   39.6209    9.3529 N   0  0  0  0  0  0  0  0  0  0  0  0
   14.7160   38.5630   13.1861 N   0  0  0  0  0  0  0  0  0  0  0  0
   15.0475   44.8889    4.8042 O   0  0  0  0  0  0  0  0  0  0  0  0
   13.0069   44.8547    3.7134 O   0  0  0  0  0  0  0  0  0  0  0  0
   15.7787   40.1905    9.9624 O   0  0  0  0  0  0  0  0  0  0  0  0
   12.9641   37.7682   14.5858 O   0  0  0  0  0  0  0  0  0  0  0  0
   16.9189   38.6927   12.3008 O   0  0  0  0  0  0  0  0  0  0  0  0
  1 22  1  0
  3 23  1  0
  3 24  1  0
  4 28  1  0
  5 28  1  0
  5  6  1  0
  5  7  1  0
  5  8  1  0
  9 10  1  0
  9 22  1  0
 10 25  1  0
 11 25  1  0
 11 12  1  0
 12 13  1  0
 13 26  1  0
 14 15  1  0
 16 17  2  0
 18 19  2  0
 20 21  1  0
 20 15  2  0
 21 26  1  0
 22  2  1  0
 23  4  1  0
 26 14  1  0
  2  3  2  0
  4 27  2  0
  9 24  2  0
 10 29  2  0
 14 30  2  0
 15 16  1  0
 17 18  1  0
 19 20  1  0
 21 31  2  0
M  END
>  <rmsd>  (61) 
0.199387506

$$$$
MolPort-020-269-161 19749405 MCULE-9600677370 PubChem-92634656 ZINC000019749405 ZINC19749405
     RDKit          3D

 30 32  0  0  0  0  0  0  0  0999 V2000
   17.0918   37.2550    8.7522 C   0  0  0  0  0  0  0  0  0  0  0  0
   16.3534   38.2118    9.6207 C   0  0  0  0  0  0  0  0  0  0  0  0
   16.8588   39.3674   10.1940 C   0  0  0  0  0  0  0  0  0  0  0  0
   15.8070   39.8750   10.9273 C   0  0  0  0  0  0  0  0  0  0  0  0
   13.4319   39.2316   11.3678 C   0  0  0  0  0  0  0  0  0  0  0  0
   15.8243   41.1113   11.7626 C   0  0  0  0  0  0  0  0  0  0  0  0
   18.2462   39.9253   10.1024 C   0  0  0  0  0  0  0  0  0  0  0  0
   19.5509   39.3416    8.0562 C   0  0  0  0  0  0  0  0  0  0  0  0
   18.1272   41.4016    8.0481 C   0  0  0  0  0  0  0  0  0  0  0  0
   17.1615   42.3330    8.7101 C   0  0  0  0  0  0  0  0  0  0  0  0
   15.5547   43.1276    6.9904 C   0  0  0  0  0  0  0  0  0  0  0  0
   14.2850   42.7450    6.6089 C   0  0  0  0  0  0  0  0  0  0  0  0
   13.8966   41.6998    7.4211 C   0  0  0  0  0  0  0  0  0  0  0  0
   13.9002   44.3643    4.6868 C   0  0  0  0  0  0  0  0  0  0  0  0
   12.9496   44.8724    3.6573 C   0  0  0  0  0  0  0  0  0  0  0  0
   12.2303   46.0815    4.1586 C   0  0  0  0  0  0  0  0  0  0  0  0
   11.0487   45.9271    4.8940 C   0  0  0  0  0  0  0  0  0  0  0  0
   10.3732   47.0492    5.3822 C   0  0  0  0  0  0  0  0  0  0  0  0
   10.8791   48.3298    5.1391 C   0  0  0  0  0  0  0  0  0  0  0  0
   12.0607   48.4887    4.4096 C   0  0  0  0  0  0  0  0  0  0  0  0
   12.7395   47.3682    3.9200 C   0  0  0  0  0  0  0  0  0  0  0  0
   14.7458   39.0607   10.7713 N   0  0  0  0  0  0  0  0  0  0  0  0
   15.0651   38.0468    9.9829 N   0  0  0  0  0  0  0  0  0  0  0  0
   18.6054   40.2249    8.7207 N   0  0  0  0  0  0  0  0  0  0  0  0
   15.8864   42.3175    8.0107 N   0  0  0  0  0  0  0  0  0  0  0  0
   14.9128   41.4598    8.2724 N   0  0  0  0  0  0  0  0  0  0  0  0
   13.4898   43.3064    5.5593 N   0  0  0  0  0  0  0  0  0  0  0  0
   18.5247   41.6676    6.8815 O   0  0  0  0  0  0  0  0  0  0  0  0
   15.0415   44.8871    4.7902 O   0  0  0  0  0  0  0  0  0  0  0  0
   13.8869   47.5386    3.2164 F   0  0  0  0  0  0  0  0  0  0  0  0
  1  2  1  0
  2  3  1  0
  4 22  1  0
  5 22  1  0
  6  4  1  0
  7  3  1  0
  7 24  1  0
  8 24  1  0
 10  9  1  0
 10 25  1  0
 12 13  1  0
 12 27  1  0
 15 14  1  0
 15 16  1  0
 17 18  2  0
 19 20  2  0
 21 30  1  0
 21 16  2  0
 22 23  1  0
 24  9  1  0
 25 11  1  0
 25 26  1  0
 27 14  1  0
  2 23  2  0
  3  4  2  0
  9 28  2  0
 11 12  2  0
 13 26  2  0
 14 29  2  0
 16 17  1  0
 18 19  1  0
 20 21  1  0
M  END
>  <rmsd>  (62) 
0.157895431

$$$$
Molport-053-290-294 PubChem-165990344
     RDKit          3D

 31 35  0  0  0  0  0  0  0  0999 V2000
   13.6505   39.5702   11.6203 C   0  0  0  0  0  0  0  0  0  0  0  0
   12.2589   38.9658   11.3734 C   0  0  0  0  0  0  0  0  0  0  0  0
   11.9412   38.6737    9.9022 C   0  0  1  0  0  0  0  0  0  0  0  0
   12.3955   39.8139    8.9875 C   0  0  0  0  0  0  0  0  0  0  0  0
   14.5165   39.6085   10.3648 C   0  0  0  0  0  0  0  0  0  0  0  0
   14.3915   41.2384    8.4470 C   0  0  0  0  0  0  0  0  0  0  0  0
   14.2512   42.7551    6.6253 C   0  0  0  0  0  0  0  0  0  0  0  0
   16.2636   42.6274    7.8623 C   0  0  0  0  0  0  0  0  0  0  0  0
   15.7078   41.6515    8.6860 C   0  0  0  0  0  0  0  0  0  0  0  0
   13.9145   44.3303    4.6505 C   0  0  0  0  0  0  0  0  0  0  0  0
   13.4802   45.6122    2.5811 C   0  0  0  0  0  0  0  0  0  0  0  0
   13.9563   44.8620    1.3316 C   0  0  0  0  0  0  0  0  0  0  0  0
   15.1517   43.9928    1.6179 C   0  0  0  0  0  0  0  0  0  0  0  0
   16.4255   44.3961    2.0225 C   0  0  0  0  0  0  0  0  0  0  0  0
   17.4050   43.4102    2.2275 C   0  0  0  0  0  0  0  0  0  0  0  0
   17.1051   42.0498    2.0193 C   0  0  0  0  0  0  0  0  0  0  0  0
   15.8240   41.6592    1.5985 C   0  0  0  0  0  0  0  0  0  0  0  0
   14.8689   42.6557    1.4043 C   0  0  0  0  0  0  0  0  0  0  0  0
   13.5005   42.5472    0.9555 C   0  0  0  0  0  0  0  0  0  0  0  0
   12.7666   41.4167    0.6003 C   0  0  0  0  0  0  0  0  0  0  0  0
   11.4407   41.6002    0.1769 C   0  0  0  0  0  0  0  0  0  0  0  0
   10.8830   42.8922    0.1138 C   0  0  0  0  0  0  0  0  0  0  0  0
   11.6440   44.0163    0.4754 C   0  0  0  0  0  0  0  0  0  0  0  0
   12.9592   43.8191    0.8996 C   0  0  0  0  0  0  0  0  0  0  0  0
   13.7732   40.2341    9.2700 N   0  0  0  0  0  0  0  0  0  0  0  0
   13.6966   41.8025    7.4201 N   0  0  0  0  0  0  0  0  0  0  0  0
   15.5307   43.1594    6.8511 N   0  0  0  0  0  0  0  0  0  0  0  0
   13.4785   43.3097    5.5547 N   0  0  0  0  0  0  0  0  0  0  0  0
   15.0410   44.8798    4.7929 O   0  0  0  0  0  0  0  0  0  0  0  0
   13.0685   44.7156    3.6099 O   0  0  0  0  0  0  0  0  0  0  0  0
   12.5456   37.4778    9.5110 O   0  0  0  0  0  0  0  0  0  0  0  0
  1  2  1  0
  2  3  1  0
  3  4  1  0
  3 31  1  6
  4 25  1  0
  5 25  1  0
  5  1  1  0
  7 26  2  0
  7 28  1  0
  8 27  2  0
  9  6  2  0
 10 30  1  0
 11 30  1  0
 11 12  1  0
 12 13  1  0
 12 24  1  0
 14 15  2  0
 16 17  2  0
 18 19  1  0
 18 13  2  0
 20 21  2  0
 22 23  2  0
 24 19  2  0
 25  6  1  0
 28 10  1  0
  6 26  1  0
  7 27  1  0
  8  9  1  0
 10 29  2  0
 13 14  1  0
 15 16  1  0
 17 18  1  0
 19 20  1  0
 21 22  1  0
 23 24  1  0
M  END
>  <rmsd>  (63) 
0.246786132

$$$$
MolPort-045-953-891 CSSS00160216300 MCULE-4434783732
     RDKit          3D

 26 28  0  0  0  0  0  0  0  0999 V2000
   12.8930   43.5148    2.5211 C   0  0  0  0  0  0  0  0  0  0  0  0
   13.1146   44.7059    3.4327 C   0  0  0  0  0  0  0  0  0  0  0  0
   11.7790   45.2633    3.8853 C   0  0  0  0  0  0  0  0  0  0  0  0
   13.9429   44.3127    4.6100 C   0  0  0  0  0  0  0  0  0  0  0  0
   14.2604   42.7280    6.5630 C   0  0  0  0  0  0  0  0  0  0  0  0
   13.7430   42.7012    7.8619 C   0  0  0  0  0  0  0  0  0  0  0  0
   14.4731   42.1264    8.9036 C   0  0  0  0  0  0  0  0  0  0  0  0
   15.7251   41.5486    8.6538 C   0  0  0  0  0  0  0  0  0  0  0  0
   16.0283   40.5986   11.0036 C   0  0  0  0  0  0  0  0  0  0  0  0
   14.7198   39.9359   11.1866 C   0  0  0  0  0  0  0  0  0  0  0  0
   14.1082   39.9262   12.4653 C   0  0  0  0  0  0  0  0  0  0  0  0
   12.8744   39.2828   12.6734 C   0  0  0  0  0  0  0  0  0  0  0  0
   12.2888   38.6548   11.5786 C   0  0  0  0  0  0  0  0  0  0  0  0
   11.0610   37.5901   10.2459 C   0  0  0  0  0  0  0  0  0  0  0  0
    9.9243   36.7963    9.7085 C   0  0  0  0  0  0  0  0  0  0  0  0
   12.8739   38.6478   10.3506 C   0  0  0  0  0  0  0  0  0  0  0  0
   14.0939   39.2717   10.1091 C   0  0  0  0  0  0  0  0  0  0  0  0
   16.2389   41.5600    7.3548 C   0  0  0  0  0  0  0  0  0  0  0  0
   15.5152   42.1351    6.3052 C   0  0  0  0  0  0  0  0  0  0  0  0
   15.0476   44.8867    4.8040 O   0  0  0  0  0  0  0  0  0  0  0  0
   16.7696   40.7863   12.0047 O   0  0  0  0  0  0  0  0  0  0  0  0
   13.4679   43.3191    5.5271 N   0  0  0  0  0  0  0  0  0  0  0  0
   16.5123   40.9841    9.7095 N   0  0  0  0  0  0  0  0  0  0  0  0
   11.1279   37.9857   11.5436 N   0  0  0  0  0  0  0  0  0  0  0  0
   12.1127   37.9742    9.4770 N   0  0  0  0  0  0  0  0  0  0  0  0
   16.1744   42.0001    4.6821 Cl  0  0  0  0  0  0  0  0  0  0  0  0
  1  2  1  0
  2  3  1  0
  2  4  1  0
  4 22  1  0
  6  7  2  0
  8 23  1  0
  8 18  2  0
  9 10  1  0
 11 12  2  0
 13 24  1  0
 15 14  1  0
 16 25  1  0
 16 13  2  0
 17 10  2  0
 19 26  1  0
 19  5  2  0
 22  5  1  0
 23  9  1  0
 24 14  1  0
  4 20  2  0
  5  6  1  0
  7  8  1  0
  9 21  2  0
 10 11  1  0
 12 13  1  0
 14 25  2  0
 16 17  1  0
 18 19  1  0
M  END
>  <rmsd>  (64) 
0.240554988

$$$$
Molport-051-825-208 MCULE-6404919247 MCULE-9761543365
     RDKit          3D

 29 31  0  0  0  0  0  0  0  0999 V2000
   13.4151   39.3181   11.2954 C   0  0  0  0  0  0  0  0  0  0  0  0
   11.8053   40.4628   10.0637 C   0  0  0  0  0  0  0  0  0  0  0  0
   11.4016   41.9216    9.9692 C   0  0  0  0  0  0  0  0  0  0  0  0
   13.8497   39.8791    9.0781 C   0  0  0  0  0  0  0  0  0  0  0  0
   14.4488   41.0135    8.3189 C   0  0  0  0  0  0  0  0  0  0  0  0
   15.7229   41.4842    8.6508 C   0  0  0  0  0  0  0  0  0  0  0  0
   16.2724   42.5626    7.9530 C   0  0  0  0  0  0  0  0  0  0  0  0
   15.5463   43.1731    6.9264 C   0  0  0  0  0  0  0  0  0  0  0  0
   14.2652   42.7095    6.5904 C   0  0  0  0  0  0  0  0  0  0  0  0
   13.8772   44.4023    4.6990 C   0  0  0  0  0  0  0  0  0  0  0  0
   12.9264   44.9372    3.6883 C   0  0  0  0  0  0  0  0  0  0  0  0
   11.5328   44.9708    3.9185 C   0  0  0  0  0  0  0  0  0  0  0  0
   10.9159   44.5313    5.2040 C   0  0  0  0  0  0  0  0  0  0  0  0
   10.6846   45.4782    2.9378 C   0  0  0  0  0  0  0  0  0  0  0  0
   11.2276   45.9436    1.7432 C   0  0  0  0  0  0  0  0  0  0  0  0
   13.3944   45.4337    2.4500 C   0  0  0  0  0  0  0  0  0  0  0  0
   10.3231   46.4836    0.6875 C   0  0  2  0  0  0  0  0  0  0  0  0
   10.3899   45.6074   -0.5656 C   0  0  0  0  0  0  0  0  0  0  0  0
    9.6722   46.2738   -1.7397 C   0  0  0  0  0  0  0  0  0  0  0  0
   10.0337   47.7604   -1.8844 C   0  0  0  0  0  0  0  0  0  0  0  0
   10.6535   47.9576    0.3974 C   0  0  0  0  0  0  0  0  0  0  0  0
   13.7221   41.6302    7.2950 C   0  0  0  0  0  0  0  0  0  0  0  0
   13.2357   40.3639   10.3051 N   0  0  0  0  0  0  0  0  0  0  0  0
   13.4855   43.3150    5.5505 N   0  0  0  0  0  0  0  0  0  0  0  0
   11.1137   48.1506   -0.9778 N   0  0  0  0  0  0  0  0  0  0  0  0
   10.0312   42.0102    9.7307 O   0  0  0  0  0  0  0  0  0  0  0  0
   15.0358   44.8925    4.7866 O   0  0  0  0  0  0  0  0  0  0  0  0
   12.5418   45.9067    1.5458 O   0  0  0  0  0  0  0  0  0  0  0  0
   14.6240   45.4225    2.1750 O   0  0  0  0  0  0  0  0  0  0  0  0
  1 23  1  0
  2 23  1  0
  2  3  1  0
  3 26  1  0
  4 23  1  0
  4  5  1  0
  6  7  2  0
  8  9  2  0
  9 24  1  0
 10 11  1  0
 12 14  1  0
 13 12  1  0
 15 28  1  0
 16 28  1  0
 16 11  1  0
 17 15  1  1
 17 18  1  0
 18 19  1  0
 19 20  1  0
 20 25  1  0
 21 25  1  0
 21 17  1  0
 22  5  2  0
 24 10  1  0
  5  6  1  0
  7  8  1  0
  9 22  1  0
 10 27  2  0
 11 12  2  0
 14 15  2  0
 16 29  2  0
M  END
>  <rmsd>  (65) 
0.230769902

$$$$
MolPort-001-990-945 94430 CSSS00132532034 LN00558978 MCULE-4341930781 PubChem-707292 ZINC000000094430 ZINC00094430
     RDKit          3D

 19 19  0  0  0  0  0  0  0  0999 V2000
   13.0387   38.6204   11.4890 C   0  0  0  0  0  0  0  0  0  0  0  0
   13.6519   40.0023   11.5759 C   0  0  0  0  0  0  0  0  0  0  0  0
   14.9426   40.9574    9.7080 C   0  0  0  0  0  0  0  0  0  0  0  0
   14.9615   41.5536    8.3533 C   0  0  0  0  0  0  0  0  0  0  0  0
   13.8763   42.1668    7.7423 C   0  0  0  0  0  0  0  0  0  0  0  0
   12.4930   42.3135    8.2811 C   0  0  0  0  0  0  0  0  0  0  0  0
   14.3270   42.6641    6.5401 C   0  0  0  0  0  0  0  0  0  0  0  0
   13.9355   44.3032    4.6324 C   0  0  0  0  0  0  0  0  0  0  0  0
   13.0543   44.6804    3.4973 C   0  0  0  0  0  0  0  0  0  0  0  0
   15.6621   42.3104    6.4294 C   0  0  0  0  0  0  0  0  0  0  0  0
   16.4966   42.4510    5.1974 C   0  0  0  0  0  0  0  0  0  0  0  0
   17.3344   41.0206    7.7426 C   0  0  0  0  0  0  0  0  0  0  0  0
   18.5881   41.7250    7.3513 C   0  0  0  0  0  0  0  0  0  0  0  0
   13.7274   40.5700   10.2769 O   0  0  0  0  0  0  0  0  0  0  0  0
   16.0140   40.8272   10.3602 O   0  0  0  0  0  0  0  0  0  0  0  0
   15.0289   44.9061    4.7954 O   0  0  0  0  0  0  0  0  0  0  0  0
   17.4148   39.8662    8.2395 O   0  0  0  0  0  0  0  0  0  0  0  0
   13.5000   43.3054    5.5596 N   0  0  0  0  0  0  0  0  0  0  0  0
   16.0495   41.6371    7.5406 N   0  0  0  0  0  0  0  0  0  0  0  0
  1  2  1  0
  2 14  1  0
  3 14  1  0
  3  4  1  0
  5  7  1  0
  6  5  1  0
  7 18  1  0
  9  8  1  0
 10 19  1  0
 11 10  1  0
 13 12  1  0
 18  8  1  0
 19 12  1  0
 19  4  1  0
  3 15  2  0
  4  5  2  0
  7 10  2  0
  8 16  2  0
 12 17  2  0
M  END
>  <rmsd>  (66) 
0.229223058

$$$$
MolPort-006-844-789 20595009 ChemDiv-E135-0197 MCULE-5631950808 PubChem-17253552 ZINC000020595009 ZINC20595009
     RDKit          3D

 28 30  0  0  0  0  0  0  0  0999 V2000
   13.4299   39.5504   12.0205 C   0  0  0  0  0  0  0  0  0  0  0  0
   13.6408   38.8226   10.7061 C   0  0  0  0  0  0  0  0  0  0  0  0
   13.5659   39.7959    9.5436 C   0  0  0  0  0  0  0  0  0  0  0  0
   14.8422   40.6268    9.4616 C   0  0  0  0  0  0  0  0  0  0  0  0
   13.8124   41.7840    7.4787 C   0  0  0  0  0  0  0  0  0  0  0  0
   14.2374   42.7864    6.6382 C   0  0  0  0  0  0  0  0  0  0  0  0
   13.9108   44.3568    4.6560 C   0  0  0  0  0  0  0  0  0  0  0  0
   13.0181   44.8012    3.5559 C   0  0  0  0  0  0  0  0  0  0  0  0
   11.9395   44.0450    3.2948 C   0  0  0  0  0  0  0  0  0  0  0  0
   10.9194   44.2696    2.2387 C   0  0  0  0  0  0  0  0  0  0  0  0
   14.2917   46.9724    3.1908 C   0  0  0  0  0  0  0  0  0  0  0  0
    9.7621   43.3506    2.1512 C   0  0  0  0  0  0  0  0  0  0  0  0
    9.6217   42.2862    3.0569 C   0  0  0  0  0  0  0  0  0  0  0  0
    8.5276   41.4205    2.9721 C   0  0  0  0  0  0  0  0  0  0  0  0
    7.5620   41.6101    1.9806 C   0  0  0  0  0  0  0  0  0  0  0  0
    6.3988   40.6899    1.8903 C   0  0  0  0  0  0  0  0  0  0  0  0
    7.6901   42.6651    1.0740 C   0  0  0  0  0  0  0  0  0  0  0  0
    8.7844   43.5308    1.1589 C   0  0  0  0  0  0  0  0  0  0  0  0
   15.4997   43.1717    7.0469 C   0  0  0  0  0  0  0  0  0  0  0  0
   14.8128   41.5893    8.3625 N   0  0  0  0  0  0  0  0  0  0  0  0
   13.4799   43.3140    5.5439 N   0  0  0  0  0  0  0  0  0  0  0  0
   11.0204   45.2416    1.3825 N   0  0  0  0  0  0  0  0  0  0  0  0
   13.2953   45.9917    2.7871 N   0  0  0  0  0  0  0  0  0  0  0  0
   15.8201   42.4114    8.1120 N   0  0  0  0  0  0  0  0  0  0  0  0
   15.0508   44.8741    4.8000 O   0  0  0  0  0  0  0  0  0  0  0  0
   11.8026   47.7552    1.5011 O   0  0  0  0  0  0  0  0  0  0  0  0
   13.1570   46.1924    0.1542 O   0  0  0  0  0  0  0  0  0  0  0  0
   12.3353   46.3537    1.4015 S   0  0  0  0  0  0  0  0  0  0  0  0
  1  2  1  0
  2  3  1  0
  3  4  1  0
  4 20  1  0
  6 21  1  0
  6 19  1  0
  7  8  1  0
  9 10  1  0
 10 12  1  0
 11 23  1  0
 13 14  2  0
 15 17  2  0
 16 15  1  0
 18 12  2  0
 20  5  1  0
 20 24  1  0
 21  7  1  0
 23  8  1  0
 28 22  1  0
 28 23  1  0
  5  6  2  0
  7 25  2  0
  8  9  2  0
 10 22  2  0
 12 13  1  0
 14 15  1  0
 17 18  1  0
 19 24  2  0
 28 26  2  0
 28 27  2  0
M  END
>  <rmsd>  (67) 
0.184000239

$$$$
Molport-053-349-738
     RDKit          3D

 16 17  0  0  0  0  0  0  0  0999 V2000
   17.3414   42.4122    8.4079 C   0  0  0  0  0  0  0  0  0  0  0  0
   14.2662   42.7990    6.6262 C   0  0  0  0  0  0  0  0  0  0  0  0
   13.9767   44.2519    4.5792 C   0  0  0  0  0  0  0  0  0  0  0  0
   13.2458   44.5516    3.3321 C   0  0  0  0  0  0  0  0  0  0  0  0
   12.2808   43.7764    2.8392 C   0  0  0  0  0  0  0  0  0  0  0  0
   13.8240   41.9580    7.6285 C   0  0  0  0  0  0  0  0  0  0  0  0
   12.5839   41.3905    7.9147 C   0  0  0  0  0  0  0  0  0  0  0  0
   12.4953   40.5580    9.0463 C   0  0  0  0  0  0  0  0  0  0  0  0
   13.6335   40.3162    9.8519 C   0  0  0  0  0  0  0  0  0  0  0  0
   14.8722   40.9062    9.5318 C   0  0  0  0  0  0  0  0  0  0  0  0
   14.9261   41.7269    8.4043 C   0  0  0  0  0  0  0  0  0  0  0  0
   15.9783   42.3945    7.8916 N   0  0  0  0  0  0  0  0  0  0  0  0
   15.5864   43.0495    6.8034 N   0  0  0  0  0  0  0  0  0  0  0  0
   13.4740   43.3111    5.5445 N   0  0  0  0  0  0  0  0  0  0  0  0
   15.0508   44.8722    4.8028 O   0  0  0  0  0  0  0  0  0  0  0  0
   13.4909   39.1828   11.3818 Br  0  0  0  0  0  0  0  0  0  0  0  0
  1 12  1  0
  2 14  1  0
  2  6  1  0
  3  4  1  0
  7  8  2  0
  9 16  1  0
  9 10  2  0
 11 12  1  0
 11  6  2  0
 12 13  1  0
 14  3  1  0
  2 13  2  0
  3 15  2  0
  4  5  2  0
  6  7  1  0
  8  9  1  0
 10 11  1  0
M  END
>  <rmsd>  (68) 
0.197166309

$$$$
MolPort-002-291-296 2877491 CSSS00160334066 MCULE-4069933843 PubChem-2229791 ZINC000002877491 ZINC02877491
     RDKit          3D

 21 22  0  0  0  0  0  0  0  0999 V2000
   12.9432   44.7646    3.6211 C   0  0  0  0  0  0  0  0  0  0  0  0
   13.8926   44.3344    4.6801 C   0  0  0  0  0  0  0  0  0  0  0  0
   14.3214   42.8015    6.6567 C   0  0  0  0  0  0  0  0  0  0  0  0
   16.1162   42.5963    7.9927 C   0  0  0  0  0  0  0  0  0  0  0  0
   15.2882   41.6316    8.5535 C   0  0  0  0  0  0  0  0  0  0  0  0
   15.6185   40.8088    9.7540 C   0  0  0  0  0  0  0  0  0  0  0  0
   15.0479   41.4168   10.9997 C   0  0  0  0  0  0  0  0  0  0  0  0
   14.0022   40.7920   11.7204 C   0  0  0  0  0  0  0  0  0  0  0  0
   13.5055   41.4169   12.8756 C   0  0  0  0  0  0  0  0  0  0  0  0
   14.0377   42.6292   13.3185 C   0  0  0  0  0  0  0  0  0  0  0  0
   15.0773   43.2332   12.6120 C   0  0  0  0  0  0  0  0  0  0  0  0
   15.5805   42.6290   11.4594 C   0  0  0  0  0  0  0  0  0  0  0  0
   13.4109   39.4744   11.2806 C   0  0  0  0  0  0  0  0  0  0  0  0
   15.0243   44.8815    4.7568 O   0  0  0  0  0  0  0  0  0  0  0  0
   13.5046   43.3053    5.5954 N   0  0  0  0  0  0  0  0  0  0  0  0
   15.5697   43.2435    6.9289 N   0  0  0  0  0  0  0  0  0  0  0  0
   15.7487   44.7504   13.1683 Cl  0  0  0  0  0  0  0  0  0  0  0  0
   12.4663   39.0240   12.1882 F   0  0  0  0  0  0  0  0  0  0  0  0
   14.4095   38.5223   11.1808 F   0  0  0  0  0  0  0  0  0  0  0  0
   12.7999   39.6244   10.0499 F   0  0  0  0  0  0  0  0  0  0  0  0
   13.8300   41.5940    7.7153 S   0  0  0  0  0  0  0  0  0  0  0  0
  1  2  1  0
  2 15  1  0
  3 21  1  0
  4 16  1  0
  5 21  1  0
  6  5  1  0
  6  7  1  0
  8  9  2  0
 10 11  2  0
 11 17  1  0
 12  7  2  0
 13  8  1  0
 13 18  1  0
 13 19  1  0
 13 20  1  0
 15  3  1  0
  2 14  2  0
  3 16  2  0
  4  5  2  0
  7  8  1  0
  9 10  1  0
 11 12  1  0
M  END
>  <rmsd>  (69) 
0.233869284

$$$$
MolPort-045-964-638 CSSS00160228555 MCULE-5567901419 PubChem-131945763
     RDKit          3D

 26 27  0  0  0  0  0  0  0  0999 V2000
   13.5440   42.2481   14.3428 C   0  0  0  0  0  0  0  0  0  0  0  0
   14.5049   41.0280   12.7760 C   0  0  0  0  0  0  0  0  0  0  0  0
   14.4392   40.4942   11.3526 C   0  0  2  0  0  0  0  0  0  0  0  0
   13.4844   39.3143   11.2609 C   0  0  0  0  0  0  0  0  0  0  0  0
   16.5371   39.1044   11.5905 C   0  0  0  0  0  0  0  0  0  0  0  0
   16.7705   37.9127   10.7227 C   0  0  0  0  0  0  0  0  0  0  0  0
   17.9576   37.8018    9.9901 C   0  0  0  0  0  0  0  0  0  0  0  0
   18.1680   36.6964    9.1601 C   0  0  0  0  0  0  0  0  0  0  0  0
   17.1903   35.7018    9.0587 C   0  0  0  0  0  0  0  0  0  0  0  0
   16.0021   35.8126    9.7876 C   0  0  0  0  0  0  0  0  0  0  0  0
   15.7918   36.9179   10.6178 C   0  0  0  0  0  0  0  0  0  0  0  0
   16.4115   40.8996    9.8392 C   0  0  0  0  0  0  0  0  0  0  0  0
   15.6453   41.5351    8.7422 C   0  0  0  0  0  0  0  0  0  0  0  0
   16.2438   42.5342    7.9614 C   0  0  0  0  0  0  0  0  0  0  0  0
   15.5417   43.1280    6.9090 C   0  0  0  0  0  0  0  0  0  0  0  0
   14.2305   42.7268    6.6158 C   0  0  0  0  0  0  0  0  0  0  0  0
   13.9075   44.3642    4.6702 C   0  0  0  0  0  0  0  0  0  0  0  0
   12.9894   44.8446    3.6052 C   0  0  0  0  0  0  0  0  0  0  0  0
   13.6370   41.7210    7.3839 C   0  0  0  0  0  0  0  0  0  0  0  0
   14.3392   41.1273    8.4363 C   0  0  0  0  0  0  0  0  0  0  0  0
   13.2997   41.6474   13.1081 O   0  0  0  0  0  0  0  0  0  0  0  0
   17.6658   41.0365    9.8627 O   0  0  0  0  0  0  0  0  0  0  0  0
   15.0455   44.8906    4.7880 O   0  0  0  0  0  0  0  0  0  0  0  0
   15.7715   40.1246   10.8720 N   0  0  0  0  0  0  0  0  0  0  0  0
   13.4774   43.3139    5.5456 N   0  0  0  0  0  0  0  0  0  0  0  0
   19.3180   36.5905    8.4523 F   0  0  0  0  0  0  0  0  0  0  0  0
  1 21  1  0
  2 21  1  0
  2  3  1  0
  3  4  1  1
  3 24  1  0
  5 24  1  0
  5  6  1  0
  7  8  2  0
  8 26  1  0
  9 10  2  0
 11  6  2  0
 12 13  1  0
 14 15  2  0
 16 25  1  0
 16 19  2  0
 18 17  1  0
 20 13  2  0
 24 12  1  0
 25 17  1  0
  6  7  1  0
  8  9  1  0
 10 11  1  0
 12 22  2  0
 13 14  1  0
 15 16  1  0
 17 23  2  0
 19 20  1  0
M  END
>  <rmsd>  (70) 
0.232854813

$$$$
MolPort-002-774-842 36613896 CSSS00133006967 MCULE-1758707570 PubChem-19590973 ZINC000036613896 ZINC36613896
     RDKit          3D

 31 35  0  0  0  0  0  0  0  0999 V2000
   10.5142   47.9330    7.3236 F   0  0  0  0  0  0  0  0  0  0  0  0
    9.6190   49.0173    5.5541 F   0  0  0  0  0  0  0  0  0  0  0  0
   12.7246   39.9128   11.8998 F   0  0  0  0  0  0  0  0  0  0  0  0
   14.8208   39.1693   11.5435 F   0  0  0  0  0  0  0  0  0  0  0  0
   13.0764   38.0908   10.6189 F   0  0  0  0  0  0  0  0  0  0  0  0
   10.7101   48.2985    6.0048 C   0  0  0  0  0  0  0  0  0  0  0  0
   10.9011   47.0849    5.1601 C   0  0  0  0  0  0  0  0  0  0  0  0
   13.0418   44.7605    3.5314 C   0  0  0  0  0  0  0  0  0  0  0  0
   13.9288   44.3219    4.6461 C   0  0  0  0  0  0  0  0  0  0  0  0
   14.2157   42.8363    6.6823 C   0  0  0  0  0  0  0  0  0  0  0  0
   14.8151   41.8034    8.4768 C   0  0  0  0  0  0  0  0  0  0  0  0
   13.6602   40.2125    9.7628 C   0  0  0  0  0  0  0  0  0  0  0  0
   12.5680   40.2843    8.8634 C   0  0  0  0  0  0  0  0  0  0  0  0
   12.6287   41.1236    7.7311 C   0  0  0  0  0  0  0  0  0  0  0  0
   11.4681   41.2465    6.7861 C   0  0  0  0  0  0  0  0  0  0  0  0
   11.8082   40.5751    5.4661 C   0  0  0  0  0  0  0  0  0  0  0  0
   10.8871   39.8834    6.4428 C   0  0  0  0  0  0  0  0  0  0  0  0
   13.7887   41.8889    7.5843 C   0  0  0  0  0  0  0  0  0  0  0  0
   13.5710   39.3335   10.9727 C   0  0  0  0  0  0  0  0  0  0  0  0
   10.7011   45.0924    4.3388 C   0  0  0  0  0  0  0  0  0  0  0  0
   10.0261   46.0240    5.0247 C   0  0  0  0  0  0  0  0  0  0  0  0
    9.0131   45.4550    5.9319 C   0  0  0  0  0  0  0  0  0  0  0  0
    9.0736   43.9489    5.5965 C   0  0  0  0  0  0  0  0  0  0  0  0
   10.2638   43.7166    4.6411 C   0  0  0  0  0  0  0  0  0  0  0  0
   12.0635   46.7744    4.5418 N   0  0  0  0  0  0  0  0  0  0  0  0
   11.9333   45.5474    4.0515 N   0  0  0  0  0  0  0  0  0  0  0  0
   13.4766   43.3113    5.5526 N   0  0  0  0  0  0  0  0  0  0  0  0
   15.4446   43.2768    7.0442 N   0  0  0  0  0  0  0  0  0  0  0  0
   15.8157   42.6402    8.1522 N   0  0  0  0  0  0  0  0  0  0  0  0
   14.7703   40.9880    9.5583 N   0  0  0  0  0  0  0  0  0  0  0  0
   15.0555   44.8660    4.7900 O   0  0  0  0  0  0  0  0  0  0  0  0
  6  1  1  0
  6  2  1  0
  6  7  1  0
  8 26  1  0
  8  9  1  0
  9 27  1  0
 12 30  2  0
 13 14  2  0
 15 14  1  0
 15 16  1  0
 16 17  1  0
 17 15  1  0
 18 10  1  0
 18 11  2  0
 19 12  1  0
 19  3  1  0
 19  4  1  0
 19  5  1  0
 21  7  1  0
 22 21  1  0
 22 23  1  0
 23 24  1  0
 24 20  1  0
 26 25  1  0
 26 20  1  0
 27 10  1  0
 29 28  1  0
 29 11  1  0
  7 25  2  0
  9 31  2  0
 10 28  2  0
 11 30  1  0
 12 13  1  0
 14 18  1  0
 20 21  2  0
M  END
>  <rmsd>  (71) 
0.230576321

$$$$
MolPort-006-727-805 38540493 MCULE-8992860453 PubChem-11237328 ZINC000038540493
     RDKit          3D

 36 39  0  0  0  0  0  0  0  0999 V2000
   13.4868   39.6420   12.0207 C   0  0  0  0  0  0  0  0  0  0  0  0
   13.1924   39.0461   10.6560 C   0  0  0  0  0  0  0  0  0  0  0  0
   14.6969   40.4279    9.2573 C   0  0  0  0  0  0  0  0  0  0  0  0
   14.3215   42.7559    6.6243 C   0  0  0  0  0  0  0  0  0  0  0  0
   13.9313   44.2873    4.6269 C   0  0  0  0  0  0  0  0  0  0  0  0
   13.0692   44.6118    3.4770 C   0  0  0  0  0  0  0  0  0  0  0  0
   13.4745   45.5637    2.5318 C   0  0  0  0  0  0  0  0  0  0  0  0
   12.6576   45.8675    1.4396 C   0  0  0  0  0  0  0  0  0  0  0  0
   11.4189   45.2273    1.2735 C   0  0  0  0  0  0  0  0  0  0  0  0
   11.0180   44.2729    2.2222 C   0  0  0  0  0  0  0  0  0  0  0  0
   11.8353   43.9684    3.3138 C   0  0  0  0  0  0  0  0  0  0  0  0
    9.2399   44.9589    0.0285 C   0  0  0  0  0  0  0  0  0  0  0  0
    8.9585   44.6085   -1.4308 C   0  0  0  0  0  0  0  0  0  0  0  0
    8.8981   45.3693   -3.6394 C   0  0  0  0  0  0  0  0  0  0  0  0
   10.5871   46.1402   -2.2215 C   0  0  0  0  0  0  0  0  0  0  0  0
   10.9581   46.5795   -0.8075 C   0  0  0  0  0  0  0  0  0  0  0  0
   15.7045   42.6922    6.6547 C   0  0  0  0  0  0  0  0  0  0  0  0
   15.9897   41.8620    7.6868 C   0  0  0  0  0  0  0  0  0  0  0  0
   17.2204   41.0766    7.4296 C   0  0  0  0  0  0  0  0  0  0  0  0
   16.6895   42.5460    5.5572 C   0  0  0  0  0  0  0  0  0  0  0  0
   18.7757   41.0828    5.4134 C   0  0  0  0  0  0  0  0  0  0  0  0
   20.7758   39.5693    5.4240 C   0  0  0  0  0  0  0  0  0  0  0  0
   21.8049   40.6599    5.1807 C   0  0  0  0  0  0  0  0  0  0  0  0
   20.4512   38.8667    4.1169 C   0  0  0  0  0  0  0  0  0  0  0  0
   21.3699   38.5546    6.3779 C   0  0  0  0  0  0  0  0  0  0  0  0
   13.4163   40.0111    9.6347 O   0  0  0  0  0  0  0  0  0  0  0  0
   15.7181   39.9223    9.7998 O   0  0  0  0  0  0  0  0  0  0  0  0
   15.0238   44.8976    4.7841 O   0  0  0  0  0  0  0  0  0  0  0  0
   19.0539   41.5403    4.2711 O   0  0  0  0  0  0  0  0  0  0  0  0
   19.5927   40.1130    6.0139 O   0  0  0  0  0  0  0  0  0  0  0  0
   14.8420   41.4361    8.2510 N   0  0  0  0  0  0  0  0  0  0  0  0
   13.8169   41.9846    7.6117 N   0  0  0  0  0  0  0  0  0  0  0  0
   13.5096   43.3017    5.5786 N   0  0  0  0  0  0  0  0  0  0  0  0
   10.5808   45.5335    0.1432 N   0  0  0  0  0  0  0  0  0  0  0  0
    9.1713   45.7823   -2.2756 N   0  0  0  0  0  0  0  0  0  0  0  0
   17.6173   41.5545    6.1050 N   0  0  0  0  0  0  0  0  0  0  0  0
  1  2  1  0
  2 26  1  0
  3 26  1  0
  3 31  1  0
  4 33  1  0
  4 17  1  0
  5  6  1  0
  7  8  2  0
  9 10  2  0
  9 34  1  0
 11  6  2  0
 12 34  1  0
 12 13  1  0
 13 35  1  0
 14 35  1  0
 15 35  1  0
 15 16  1  0
 16 34  1  0
 18 31  1  0
 19 18  1  0
 19 36  1  0
 20 36  1  0
 20 17  1  0
 21 30  1  0
 22 30  1  0
 22 23  1  0
 22 24  1  0
 22 25  1  0
 31 32  1  0
 33  5  1  0
 36 21  1  0
  3 27  2  0
  4 32  2  0
  5 28  2  0
  6  7  1  0
  8  9  1  0
 10 11  1  0
 17 18  2  0
 21 29  2  0
M  END
>  <rmsd>  (72) 
0.159744397

$$$$
MolPort-044-423-548 CSSS14880536645 MCULE-6906365711 ZINC000675028112
     RDKit          3D

 23 24  0  0  0  0  0  0  0  0999 V2000
   12.9460   43.4340    2.5213 C   0  0  0  0  0  0  0  0  0  0  0  0
   13.0694   44.6314    3.4431 C   0  0  0  0  0  0  0  0  0  0  0  0
   13.5880   45.8221    2.6530 C   0  0  0  0  0  0  0  0  0  0  0  0
   13.9446   44.2914    4.6137 C   0  0  0  0  0  0  0  0  0  0  0  0
   14.3138   42.6794    6.5450 C   0  0  0  0  0  0  0  0  0  0  0  0
   13.8517   42.2800    7.7837 C   0  0  0  0  0  0  0  0  0  0  0  0
   14.9704   41.6662    8.3334 C   0  0  0  0  0  0  0  0  0  0  0  0
   16.3968   42.3833    5.1699 C   0  0  0  0  0  0  0  0  0  0  0  0
   15.0306   41.0547    9.6652 C   0  0  0  0  0  0  0  0  0  0  0  0
   13.8600   40.4599   11.8331 C   0  0  0  0  0  0  0  0  0  0  0  0
   13.8169   38.9415   11.7116 C   0  0  0  0  0  0  0  0  0  0  0  0
   12.4910   38.4683   11.1289 C   0  0  0  0  0  0  0  0  0  0  0  0
   11.3808   38.6242   12.1135 C   0  0  0  0  0  0  0  0  0  0  0  0
   11.2645   37.9548   13.3206 C   0  0  0  0  0  0  0  0  0  0  0  0
   10.0995   38.3041   14.0187 C   0  0  0  0  0  0  0  0  0  0  0  0
    9.2966   39.2393   13.3682 C   0  0  0  0  0  0  0  0  0  0  0  0
   15.0338   44.8999    4.8037 O   0  0  0  0  0  0  0  0  0  0  0  0
   16.0984   40.5102   10.0564 O   0  0  0  0  0  0  0  0  0  0  0  0
   13.4953   43.3075    5.5510 N   0  0  0  0  0  0  0  0  0  0  0  0
   16.0053   41.6751    7.4690 N   0  0  0  0  0  0  0  0  0  0  0  0
   15.5958   42.2967    6.3792 N   0  0  0  0  0  0  0  0  0  0  0  0
   13.8805   41.0805   10.5153 N   0  0  0  0  0  0  0  0  0  0  0  0
   10.0540   39.6246   11.9157 S   0  0  0  0  0  0  0  0  0  0  0  0
  1  2  1  0
  2  3  1  0
  2  4  1  0
  4 19  1  0
  6  7  1  0
  7  9  1  0
  8 21  1  0
  9 22  1  0
 10 22  1  0
 10 11  1  0
 11 12  1  0
 12 13  1  0
 13 23  1  0
 14 15  1  0
 16 23  1  0
 19  5  1  0
 21 20  1  0
 21  5  1  0
  4 17  2  0
  5  6  2  0
  7 20  2  0
  9 18  2  0
 13 14  2  0
 15 16  2  0
M  END
>  <rmsd>  (73) 
0.221877307

$$$$
MolPort-000-841-011 CSSS00132831161
     RDKit          3D

 34 36  0  0  0  0  0  0  0  0999 V2000
   22.2987   36.5270    3.4707 C   0  0  0  0  0  0  0  0  0  0  0  0
   23.2781   37.4182    4.2098 C   0  0  0  0  0  0  0  0  0  0  0  0
   23.0392   37.3376    5.7112 C   0  0  1  0  0  0  0  0  0  0  0  0
   24.1972   37.9405    6.4869 C   0  0  0  0  0  0  0  0  0  0  0  0
   21.4487   39.3406    5.8786 C   0  0  0  0  0  0  0  0  0  0  0  0
   19.2241   39.0434    6.7495 C   0  0  0  0  0  0  0  0  0  0  0  0
   19.4877   37.6441    7.1536 C   0  0  0  0  0  0  0  0  0  0  0  0
   18.6294   36.8584    7.8296 C   0  0  0  0  0  0  0  0  0  0  0  0
   17.3595   37.2456    8.4636 C   0  0  0  0  0  0  0  0  0  0  0  0
   16.2729   36.3753    8.3872 C   0  0  0  0  0  0  0  0  0  0  0  0
   15.0747   36.6889    9.0306 C   0  0  0  0  0  0  0  0  0  0  0  0
   14.9403   37.8668    9.7753 C   0  0  0  0  0  0  0  0  0  0  0  0
   13.3600   39.1878   11.2142 C   0  0  0  0  0  0  0  0  0  0  0  0
   16.0543   38.7436    9.8752 C   0  0  0  0  0  0  0  0  0  0  0  0
   16.0217   40.0258   10.6492 C   0  0  0  0  0  0  0  0  0  0  0  0
   15.7127   41.6563    8.7924 C   0  0  0  0  0  0  0  0  0  0  0  0
   14.4185   41.1998    8.4979 C   0  0  0  0  0  0  0  0  0  0  0  0
   13.7001   41.7541    7.4353 C   0  0  0  0  0  0  0  0  0  0  0  0
   14.2620   42.7696    6.6550 C   0  0  0  0  0  0  0  0  0  0  0  0
   13.9004   44.3474    4.6678 C   0  0  0  0  0  0  0  0  0  0  0  0
   12.9660   44.7874    3.5997 C   0  0  0  0  0  0  0  0  0  0  0  0
   15.5543   43.2272    6.9524 C   0  0  0  0  0  0  0  0  0  0  0  0
   16.2738   42.6735    8.0149 C   0  0  0  0  0  0  0  0  0  0  0  0
   17.2538   38.4069    9.2357 C   0  0  0  0  0  0  0  0  0  0  0  0
   20.7832   37.0866    6.7309 C   0  0  0  0  0  0  0  0  0  0  0  0
   21.7577   37.9401    6.1025 N   0  0  0  0  0  0  0  0  0  0  0  0
   20.2773   39.8204    6.1733 N   0  0  0  0  0  0  0  0  0  0  0  0
   13.4941   43.3127    5.5723 N   0  0  0  0  0  0  0  0  0  0  0  0
   22.6478   40.4690    5.1628 S   0  0  0  0  0  0  0  0  0  0  0  0
   18.0760   39.5518    6.8389 O   0  0  0  0  0  0  0  0  0  0  0  0
   13.6909   38.0891   10.3776 O   0  0  0  0  0  0  0  0  0  0  0  0
   16.4617   41.1189    9.8455 O   0  0  0  0  0  0  0  0  0  0  0  0
   15.0328   44.8906    4.7595 O   0  0  0  0  0  0  0  0  0  0  0  0
   21.0443   35.8671    6.9313 O   0  0  0  0  0  0  0  0  0  0  0  0
  1  2  1  0
  3  2  1  0
  3  4  1  1
  3 26  1  0
  5 29  1  0
  6 27  1  0
  6  7  1  0
  7 25  1  0
  8  9  1  0
 10 11  2  0
 12 31  1  0
 12 14  2  0
 13 31  1  0
 15 14  1  0
 15 32  1  0
 16 32  1  0
 17 18  2  0
 19 28  1  0
 19 22  2  0
 21 20  1  0
 23 16  2  0
 24  9  2  0
 25 26  1  0
 26  5  1  0
 28 20  1  0
  5 27  2  0
  6 30  2  0
  7  8  2  0
  9 10  1  0
 11 12  1  0
 14 24  1  0
 16 17  1  0
 18 19  1  0
 20 33  2  0
 22 23  1  0
 25 34  2  0
M  END
>  <rmsd>  (74) 
0.247277573

$$$$
MolPort-047-139-225 MCULE-6161825793 MCULE-9725615455 PubChem-146070115 PubChem-146070116
     RDKit          3D

 28 31  0  0  0  0  0  0  0  0999 V2000
   13.4015   39.1831   11.4499 C   0  0  0  0  0  0  0  0  0  0  0  0
   14.4053   36.6437    9.1930 C   0  0  0  0  0  0  0  0  0  0  0  0
   15.4462   35.8490    8.4905 C   0  0  0  0  0  0  0  0  0  0  0  0
   13.0378   36.4804    9.0319 C   0  0  0  0  0  0  0  0  0  0  0  0
   12.5214   37.4409    9.8841 C   0  0  0  0  0  0  0  0  0  0  0  0
   11.0550   37.7394   10.0773 C   0  0  0  0  0  0  0  0  0  0  0  0
   10.5538   38.0150    7.7371 C   0  0  0  0  0  0  0  0  0  0  0  0
   11.1738   39.0060    6.7710 C   0  0  1  0  0  0  0  0  0  0  0  0
   10.0384   39.7263    6.0458 C   0  0  0  0  0  0  0  0  0  0  0  0
   10.5978   40.6801    5.0053 C   0  0  0  0  0  0  0  0  0  0  0  0
   10.7048   42.1023    5.5486 C   0  0  0  0  0  0  0  0  0  0  0  0
   11.2428   42.1855    6.9790 C   0  0  0  0  0  0  0  0  0  0  0  0
   11.9942   39.8843    7.7016 C   0  0  2  0  0  0  0  0  0  0  0  0
   11.2355   39.8949    9.0077 C   0  0  0  0  0  0  0  0  0  0  0  0
   13.6749   41.6961    7.4072 C   0  0  0  0  0  0  0  0  0  0  0  0
   14.2359   42.7267    6.6162 C   0  0  0  0  0  0  0  0  0  0  0  0
   13.9058   44.3660    4.6653 C   0  0  0  0  0  0  0  0  0  0  0  0
   12.9828   44.8357    3.6002 C   0  0  0  0  0  0  0  0  0  0  0  0
   15.5548   43.1258    6.8718 C   0  0  0  0  0  0  0  0  0  0  0  0
   16.3000   42.5165    7.8780 C   0  0  0  0  0  0  0  0  0  0  0  0
   15.7199   41.4961    8.6255 C   0  0  0  0  0  0  0  0  0  0  0  0
   13.5268   38.1049   10.4838 N   0  0  0  0  0  0  0  0  0  0  0  0
   14.6844   37.6259   10.0703 N   0  0  0  0  0  0  0  0  0  0  0  0
   10.4847   38.6402    9.0634 N   0  0  0  0  0  0  0  0  0  0  0  0
   12.3250   41.2275    7.2099 N   0  0  0  0  0  0  0  0  0  0  0  0
   13.4831   43.3169    5.5453 N   0  0  0  0  0  0  0  0  0  0  0  0
   14.4413   41.1129    8.3749 N   0  0  0  0  0  0  0  0  0  0  0  0
   15.0407   44.8995    4.7783 O   0  0  0  0  0  0  0  0  0  0  0  0
  1 22  1  0
  2  4  1  0
  3  2  1  0
  5 22  1  0
  6  5  1  0
  6 24  1  0
  7 24  1  0
  8  7  1  1
  8  9  1  0
  9 10  1  0
 10 11  1  0
 11 12  1  0
 12 25  1  0
 13 25  1  0
 13 14  1  1
 13  8  1  0
 14 24  1  0
 15 27  2  0
 16 26  1  0
 16 19  2  0
 18 17  1  0
 20 21  2  0
 22 23  1  0
 25 15  1  0
 26 17  1  0
  2 23  2  0
  4  5  2  0
 15 16  1  0
 17 28  2  0
 19 20  1  0
 21 27  1  0
M  END
>  <rmsd>  (75) 
0.244153231

$$$$
MolPort-002-762-422 CSSS00132998953 MCULE-2422751069 PubChem-19585499
     RDKit          3D

 28 31  0  0  0  0  0  0  0  0999 V2000
   17.0072   39.9541    9.3740 C   0  0  0  0  0  0  0  0  0  0  0  0
   15.5603   40.4084    9.4324 C   0  0  2  0  0  0  0  0  0  0  0  0
   15.2587   42.3570   12.4058 C   0  0  0  0  0  0  0  0  0  0  0  0
   15.6166   43.5215   13.2624 C   0  0  0  0  0  0  0  0  0  0  0  0
   14.3077   41.3959   12.6923 C   0  0  0  0  0  0  0  0  0  0  0  0
   14.3263   40.5540   11.6011 C   0  0  0  0  0  0  0  0  0  0  0  0
   13.4807   39.3403   11.4060 C   0  0  0  0  0  0  0  0  0  0  0  0
   15.2235   41.3463    8.3175 C   0  0  0  0  0  0  0  0  0  0  0  0
   14.2448   42.6672    6.5814 C   0  0  0  0  0  0  0  0  0  0  0  0
   13.8626   44.3624    4.7374 C   0  0  0  0  0  0  0  0  0  0  0  0
   16.2359   46.7122    3.5762 C   0  0  0  0  0  0  0  0  0  0  0  0
   17.2327   45.9359    2.7821 C   0  0  0  0  0  0  0  0  0  0  0  0
   18.2643   45.2495    3.4336 C   0  0  0  0  0  0  0  0  0  0  0  0
   19.1721   44.4822    2.6946 C   0  0  0  0  0  0  0  0  0  0  0  0
   19.0477   44.4000    1.3043 C   0  0  0  0  0  0  0  0  0  0  0  0
   18.0124   45.0786    0.6532 C   0  0  0  0  0  0  0  0  0  0  0  0
   17.1034   45.8438    1.3919 C   0  0  0  0  0  0  0  0  0  0  0  0
   13.8969   45.9330    3.2410 C   0  0  0  0  0  0  0  0  0  0  0  0
   13.0703   44.9571    3.7736 C   0  0  0  0  0  0  0  0  0  0  0  0
   15.2468   41.0062   10.7277 N   0  0  0  0  0  0  0  0  0  0  0  0
   15.8164   42.1073   11.2057 N   0  0  0  0  0  0  0  0  0  0  0  0
   16.0222   42.3545    7.9010 N   0  0  0  0  0  0  0  0  0  0  0  0
   15.4805   43.0868    6.9301 N   0  0  0  0  0  0  0  0  0  0  0  0
   13.4424   43.2704    5.5602 N   0  0  0  0  0  0  0  0  0  0  0  0
   15.0806   44.9267    4.7902 N   0  0  0  0  0  0  0  0  0  0  0  0
   15.0818   45.8810    3.8795 N   0  0  0  0  0  0  0  0  0  0  0  0
   13.2944   41.2746   14.1229 Cl  0  0  0  0  0  0  0  0  0  0  0  0
   13.7580   41.3358    7.4855 S   0  0  0  0  0  0  0  0  0  0  0  0
  2  1  1  1
  2 20  1  0
  2  8  1  0
  3  5  1  0
  4  3  1  0
  5 27  1  0
  6 20  1  0
  7  6  1  0
  8 28  1  0
  9 24  1  0
  9 28  1  0
 11 26  1  0
 11 12  1  0
 13 14  2  0
 15 16  2  0
 17 12  2  0
 19 10  1  0
 20 21  1  0
 22 23  1  0
 24 10  1  0
 26 25  1  0
 26 18  1  0
  3 21  2  0
  5  6  2  0
  8 22  2  0
  9 23  2  0
 10 25  2  0
 12 13  1  0
 14 15  1  0
 16 17  1  0
 18 19  2  0
M  END
>  <rmsd>  (76) 
0.207933977

$$$$
MolPort-035-704-099 LN00427521 PubChem-86207152 ZINC000218305408
     RDKit          3D

 30 33  0  0  0  0  0  0  0  0999 V2000
   16.2594   37.1796   13.6697 C   0  0  0  0  0  0  0  0  0  0  0  0
   17.0294   39.3341   12.6559 C   0  0  0  0  0  0  0  0  0  0  0  0
   18.1102   40.2138   12.5196 C   0  0  0  0  0  0  0  0  0  0  0  0
   17.9914   41.3881   11.7740 C   0  0  0  0  0  0  0  0  0  0  0  0
   16.7816   41.7032   11.1550 C   0  0  0  0  0  0  0  0  0  0  0  0
   16.6688   42.9402   10.3309 C   0  0  0  0  0  0  0  0  0  0  0  0
   17.0034   42.6430    8.8766 C   0  0  0  0  0  0  0  0  0  0  0  0
   15.7590   42.5002    8.0675 C   0  0  0  0  0  0  0  0  0  0  0  0
   14.2659   42.8011    6.6457 C   0  0  0  0  0  0  0  0  0  0  0  0
   13.9056   44.3614    4.6771 C   0  0  0  0  0  0  0  0  0  0  0  0
   12.9749   44.8306    3.6121 C   0  0  0  0  0  0  0  0  0  0  0  0
   12.4385   46.1846    3.9395 C   0  0  0  0  0  0  0  0  0  0  0  0
   11.4183   46.4780    4.8379 C   0  0  0  0  0  0  0  0  0  0  0  0
   12.1175   48.3528    4.0508 C   0  0  0  0  0  0  0  0  0  0  0  0
   12.3080   49.7068    3.7781 C   0  0  0  0  0  0  0  0  0  0  0  0
   13.3161   50.0534    2.8602 C   0  0  0  0  0  0  0  0  0  0  0  0
   14.1001   49.0537    2.2444 C   0  0  0  0  0  0  0  0  0  0  0  0
   13.8857   47.6955    2.5386 C   0  0  0  0  0  0  0  0  0  0  0  0
   12.8804   47.3877    3.4524 C   0  0  0  0  0  0  0  0  0  0  0  0
   15.6946   40.8347   11.2766 C   0  0  0  0  0  0  0  0  0  0  0  0
   15.7996   39.6462   12.0199 C   0  0  0  0  0  0  0  0  0  0  0  0
   13.4533   39.0436   11.4968 C   0  0  0  0  0  0  0  0  0  0  0  0
   17.2390   38.1792   13.4251 O   0  0  0  0  0  0  0  0  0  0  0  0
   15.0471   44.8831    4.7821 O   0  0  0  0  0  0  0  0  0  0  0  0
   14.7018   38.7836   12.1232 O   0  0  0  0  0  0  0  0  0  0  0  0
   15.4491   43.3127    7.0390 N   0  0  0  0  0  0  0  0  0  0  0  0
   13.4907   43.3112    5.5566 N   0  0  0  0  0  0  0  0  0  0  0  0
   11.2217   47.8202    4.9016 N   0  0  0  0  0  0  0  0  0  0  0  0
   13.8787   41.7458    7.3827 N   0  0  0  0  0  0  0  0  0  0  0  0
   14.8282   41.5515    8.2809 N   0  0  0  0  0  0  0  0  0  0  0  0
  1 23  1  0
  2 23  1  0
  3  4  2  0
  5 20  2  0
  6  5  1  0
  6  7  1  0
  7  8  1  0
  9 26  1  0
  9 27  1  0
 11 10  1  0
 11 12  1  0
 13 28  1  0
 15 16  2  0
 17 18  2  0
 19 12  1  0
 19 14  2  0
 21 25  1  0
 21  2  2  0
 22 25  1  0
 27 10  1  0
 28 14  1  0
 30 29  1  0
 30  8  1  0
  2  3  1  0
  4  5  1  0
  8 26  2  0
  9 29  2  0
 10 24  2  0
 12 13  2  0
 14 15  1  0
 16 17  1  0
 18 19  1  0
 20 21  1  0
M  END
>  <rmsd>  (77) 
0.215330914

$$$$
MolPort-019-951-899 72401769 CSSS00160620296 MCULE-3708651023 PubChem-60176406 ZINC000072401769
     RDKit          3D

 25 27  0  0  0  0  0  0  0  0999 V2000
   13.3735   37.8895   10.4854 C   0  0  0  0  0  0  0  0  0  0  0  0
   13.5574   39.3185   10.9639 C   0  0  0  0  0  0  0  0  0  0  0  0
   14.8139   39.3710   11.8191 C   0  0  0  0  0  0  0  0  0  0  0  0
   12.3767   39.6997   11.8387 C   0  0  0  0  0  0  0  0  0  0  0  0
   13.6438   40.2529    9.7777 C   0  0  0  0  0  0  0  0  0  0  0  0
   12.5568   40.3380    8.8631 C   0  0  0  0  0  0  0  0  0  0  0  0
   12.6214   41.2019    7.7552 C   0  0  0  0  0  0  0  0  0  0  0  0
   13.7839   41.9466    7.6158 C   0  0  0  0  0  0  0  0  0  0  0  0
   14.2157   42.8691    6.6996 C   0  0  0  0  0  0  0  0  0  0  0  0
   13.9453   44.2874    4.6122 C   0  0  0  0  0  0  0  0  0  0  0  0
   13.0727   44.6665    3.4828 C   0  0  0  0  0  0  0  0  0  0  0  0
   13.5553   45.1328    2.2308 C   0  0  0  0  0  0  0  0  0  0  0  0
   11.3163   45.5352    1.5349 C   0  0  0  0  0  0  0  0  0  0  0  0
   10.8421   45.0420    2.7456 C   0  0  0  0  0  0  0  0  0  0  0  0
   14.9777   45.1120    1.8344 C   0  0  0  0  0  0  0  0  0  0  0  0
   14.8099   41.8491    8.5017 C   0  0  0  0  0  0  0  0  0  0  0  0
   13.4805   43.3149    5.5555 N   0  0  0  0  0  0  0  0  0  0  0  0
   12.6536   45.5665    1.3075 N   0  0  0  0  0  0  0  0  0  0  0  0
   11.7268   44.6238    3.6855 N   0  0  0  0  0  0  0  0  0  0  0  0
   15.4561   43.2921    7.0456 N   0  0  0  0  0  0  0  0  0  0  0  0
   15.8245   42.6625    8.1599 N   0  0  0  0  0  0  0  0  0  0  0  0
   14.7630   41.0216    9.5738 N   0  0  0  0  0  0  0  0  0  0  0  0
   15.0538   44.8623    4.7852 O   0  0  0  0  0  0  0  0  0  0  0  0
   15.4308   45.9942    0.8613 O   0  0  0  0  0  0  0  0  0  0  0  0
   15.7733   44.2566    2.3042 O   0  0  0  0  0  0  0  0  0  0  0  0
  1  2  1  0
  2  3  1  0
  2  4  1  0
  2  5  1  0
  5 22  2  0
  6  7  2  0
  8  9  1  0
  9 17  1  0
 10 11  1  0
 11 19  2  0
 12 18  2  0
 12 15  1  0
 13 14  2  0
 15 24  1  0
 16  8  2  0
 17 10  1  0
 21 20  1  0
 21 16  1  0
  5  6  1  0
  7  8  1  0
  9 20  2  0
 10 23  2  0
 11 12  1  0
 13 18  1  0
 14 19  1  0
 15 25  2  0
 16 22  1  0
M  END
>  <rmsd>  (78) 
0.249180272

$$$$
MolPort-051-656-764 MCULE-2965618442
     RDKit          3D

 26 28  0  0  0  0  0  0  0  0999 V2000
   15.8924   37.8731   11.0158 C   0  0  2  0  0  0  0  0  0  0  0  0
   17.4926   36.7668   12.6525 C   0  0  0  0  0  0  0  0  0  0  0  0
   18.6400   37.6062   12.1821 C   0  0  0  0  0  0  0  0  0  0  0  0
   18.3633   38.1876   10.8013 C   0  0  0  0  0  0  0  0  0  0  0  0
   17.0156   38.8961   10.7931 C   0  0  1  0  0  0  0  0  0  0  0  0
   16.5536   40.9618    9.8077 C   0  0  0  0  0  0  0  0  0  0  0  0
   15.7689   41.5686    8.6974 C   0  0  0  0  0  0  0  0  0  0  0  0
   14.4673   41.1302    8.4296 C   0  0  0  0  0  0  0  0  0  0  0  0
   13.7303   41.7135    7.3952 C   0  0  0  0  0  0  0  0  0  0  0  0
   14.2846   42.7403    6.6230 C   0  0  0  0  0  0  0  0  0  0  0  0
   13.8911   44.3654    4.6802 C   0  0  0  0  0  0  0  0  0  0  0  0
   12.9370   44.8355    3.6429 C   0  0  0  0  0  0  0  0  0  0  0  0
   15.5882   43.1805    6.9001 C   0  0  0  0  0  0  0  0  0  0  0  0
   16.3265   42.5981    7.9344 C   0  0  0  0  0  0  0  0  0  0  0  0
   14.5568   38.5317   11.1909 C   0  0  0  0  0  0  0  0  0  0  0  0
   14.3289   39.4020   12.2678 C   0  0  0  0  0  0  0  0  0  0  0  0
   13.0868   40.0240   12.4195 C   0  0  0  0  0  0  0  0  0  0  0  0
   12.0660   39.7797   11.4972 C   0  0  0  0  0  0  0  0  0  0  0  0
   12.2863   38.9125   10.4238 C   0  0  0  0  0  0  0  0  0  0  0  0
   13.5273   38.2872   10.2689 C   0  0  0  0  0  0  0  0  0  0  0  0
   16.1721   36.9854   12.1450 N   0  0  0  0  0  0  0  0  0  0  0  0
   16.8307   39.5646    9.5159 N   0  0  0  0  0  0  0  0  0  0  0  0
   13.4971   43.3134    5.5701 N   0  0  0  0  0  0  0  0  0  0  0  0
   15.0290   44.8989    4.7595 O   0  0  0  0  0  0  0  0  0  0  0  0
   17.6803   35.9063   13.5505 O   0  0  0  0  0  0  0  0  0  0  0  0
   13.7259   37.4535    9.2176 F   0  0  0  0  0  0  0  0  0  0  0  0
  1 21  1  0
  1 15  1  1
  3  2  1  0
  3  4  1  0
  4  5  1  0
  5 22  1  6
  5  1  1  0
  6 22  1  0
  6  7  1  0
  8  9  2  0
 10 23  1  0
 10 13  2  0
 12 11  1  0
 14  7  2  0
 16 17  2  0
 18 19  2  0
 20 26  1  0
 20 15  2  0
 21  2  1  0
 23 11  1  0
  2 25  2  0
  7  8  1  0
  9 10  1  0
 11 24  2  0
 13 14  1  0
 15 16  1  0
 17 18  1  0
 19 20  1  0
M  END
>  <rmsd>  (79) 
0.248055607

$$$$
MolPort-002-716-149 4580359 CSSS00132972401 ChemDiv-8013-0823 MCULE-3996002319 PubChem-135403603 ZINC000004580359 ZINC04580359
     RDKit          3D

 24 25  0  0  0  0  0  0  0  0999 V2000
    9.2956   41.3901    5.7392 C   0  0  0  0  0  0  0  0  0  0  0  0
   10.2601   41.3664    6.8689 C   0  0  0  0  0  0  0  0  0  0  0  0
   12.6804   41.0426    7.5792 C   0  0  0  0  0  0  0  0  0  0  0  0
   11.3108   38.3562    9.6002 C   0  0  0  0  0  0  0  0  0  0  0  0
   11.0336   39.0530   10.8906 C   0  0  0  0  0  0  0  0  0  0  0  0
   12.0784   39.3743   11.7710 C   0  0  0  0  0  0  0  0  0  0  0  0
   11.8027   40.0542   12.9615 C   0  0  0  0  0  0  0  0  0  0  0  0
   10.4897   40.4192   13.2731 C   0  0  0  0  0  0  0  0  0  0  0  0
    9.4497   40.1069   12.3933 C   0  0  0  0  0  0  0  0  0  0  0  0
    9.7218   39.4274   11.2024 C   0  0  0  0  0  0  0  0  0  0  0  0
   13.9429   41.7948    7.5120 C   0  0  0  0  0  0  0  0  0  0  0  0
   14.2988   42.7872    6.6315 C   0  0  0  0  0  0  0  0  0  0  0  0
   13.9025   44.3492    4.6727 C   0  0  0  0  0  0  0  0  0  0  0  0
   12.9698   44.8021    3.6085 C   0  0  0  0  0  0  0  0  0  0  0  0
    9.8357   41.4690    8.0504 O   0  0  0  0  0  0  0  0  0  0  0  0
   11.4407   39.3033    8.5522 O   0  0  0  0  0  0  0  0  0  0  0  0
   15.8946   42.4717    7.9626 O   0  0  0  0  0  0  0  0  0  0  0  0
   15.0375   44.8858    4.7721 O   0  0  0  0  0  0  0  0  0  0  0  0
   11.6621   41.2822    6.5964 N   0  0  0  0  0  0  0  0  0  0  0  0
   12.5445   40.1242    8.4875 N   0  0  0  0  0  0  0  0  0  0  0  0
   14.9832   41.6201    8.3469 N   0  0  0  0  0  0  0  0  0  0  0  0
   15.5400   43.1986    6.9390 N   0  0  0  0  0  0  0  0  0  0  0  0
   13.4957   43.3101    5.5677 N   0  0  0  0  0  0  0  0  0  0  0  0
   13.3582   39.0321   11.4794 F   0  0  0  0  0  0  0  0  0  0  0  0
  1  2  1  0
  2 19  1  0
  3 11  1  0
  4 16  1  0
  4  5  1  0
  6 24  1  0
  6  7  2  0
  8  9  2  0
 10  5  2  0
 12 23  1  0
 12 11  1  0
 14 13  1  0
 17 22  1  0
 19  3  1  0
 20 16  1  0
 21 17  1  0
 23 13  1  0
  2 15  2  0
  3 20  2  0
  5  6  1  0
  7  8  1  0
  9 10  1  0
 11 21  2  0
 12 22  2  0
 13 18  2  0
M  END
>  <rmsd>  (80) 
0.227055639

$$$$
MolPort-039-123-951 MolPort-047-505-371 CSSS00160134884 MCULE-3548329714 MCULE-5752747003 PubChem-118794773 PubChem-154903008
     RDKit          3D

 28 30  0  0  0  0  0  0  0  0999 V2000
   17.3405   37.7831    9.1527 C   0  0  0  0  0  0  0  0  0  0  0  0
   16.9723   38.4295   10.4810 C   0  0  0  0  0  0  0  0  0  0  0  0
   16.4918   40.7323    9.6666 C   0  0  0  0  0  0  0  0  0  0  0  0
   15.7376   41.3902    8.5793 C   0  0  0  0  0  0  0  0  0  0  0  0
   14.6971   40.7179    7.9209 C   0  0  0  0  0  0  0  0  0  0  0  0
   13.9721   41.3531    6.9100 C   0  0  0  0  0  0  0  0  0  0  0  0
   14.2787   42.6685    6.5414 C   0  0  0  0  0  0  0  0  0  0  0  0
   13.8285   44.5341    4.8671 C   0  0  0  0  0  0  0  0  0  0  0  0
   11.4237   44.8349    4.2692 C   0  0  0  0  0  0  0  0  0  0  0  0
   10.9018   44.8718    2.8463 C   0  0  0  0  0  0  0  0  0  0  0  0
   10.7694   46.3242    2.3932 C   0  0  0  0  0  0  0  0  0  0  0  0
   11.8696   47.2672    2.9337 C   0  0  0  0  0  0  0  0  0  0  0  0
   13.1126   46.5804    3.5381 C   0  0  1  0  0  0  0  0  0  0  0  0
   13.8649   47.5706    4.4370 C   0  0  0  0  0  0  0  0  0  0  0  0
   15.3358   43.3323    7.1770 C   0  0  0  0  0  0  0  0  0  0  0  0
   16.0643   42.6943    8.1850 C   0  0  0  0  0  0  0  0  0  0  0  0
   14.6939   39.4220   10.8321 C   0  0  0  0  0  0  0  0  0  0  0  0
   13.9639   40.5820   11.1444 C   0  0  0  0  0  0  0  0  0  0  0  0
   12.6942   40.4902   11.7181 C   0  0  0  0  0  0  0  0  0  0  0  0
   12.1398   39.2383   11.9909 C   0  0  0  0  0  0  0  0  0  0  0  0
   12.8554   38.0776   11.6879 C   0  0  0  0  0  0  0  0  0  0  0  0
   14.1273   38.1690   11.1167 C   0  0  0  0  0  0  0  0  0  0  0  0
   16.0202   39.5161   10.2693 N   0  0  0  0  0  0  0  0  0  0  0  0
   13.4837   43.3147    5.5412 N   0  0  0  0  0  0  0  0  0  0  0  0
   12.7979   45.3264    4.2542 N   0  0  0  0  0  0  0  0  0  0  0  0
   13.0488   47.9412    5.5868 N   0  0  0  0  0  0  0  0  0  0  0  0
   17.5533   41.2629   10.0989 O   0  0  0  0  0  0  0  0  0  0  0  0
   15.0365   44.8995    4.7943 O   0  0  0  0  0  0  0  0  0  0  0  0
  1  2  1  0
  2 23  1  0
  3  4  1  0
  5  6  2  0
  7 24  1  0
  7 15  2  0
  8 25  1  0
  9 25  1  0
  9 10  1  0
 10 11  1  0
 11 12  1  0
 12 13  1  0
 13 14  1  1
 13 25  1  0
 14 26  1  0
 16  4  2  0
 18 19  2  0
 20 21  2  0
 22 17  2  0
 23  3  1  0
 23 17  1  0
 24  8  1  0
  3 27  2  0
  4  5  1  0
  6  7  1  0
  8 28  2  0
 15 16  1  0
 17 18  1  0
 19 20  1  0
 21 22  1  0
M  END
>  <rmsd>  (81) 
0.245940268

$$$$
MolPort-002-019-554 13494384 CSSS00132527814 ChemDiv-Y031-1521 LN00990541 MCULE-9513418977 PubChem-3160787 ZINC000013494384
     RDKit          3D

 30 32  0  0  0  0  0  0  0  0999 V2000
   12.9989   44.8254    3.5882 C   0  0  0  0  0  0  0  0  0  0  0  0
   12.0163   44.0793    2.9621 C   0  0  0  0  0  0  0  0  0  0  0  0
   11.6024   42.6840    3.2797 C   0  0  0  0  0  0  0  0  0  0  0  0
   12.9875   46.0315    2.8897 C   0  0  0  0  0  0  0  0  0  0  0  0
   13.7726   47.2554    3.1487 C   0  0  0  0  0  0  0  0  0  0  0  0
   13.9951   48.1659    2.1054 C   0  0  0  0  0  0  0  0  0  0  0  0
   14.6976   49.3524    2.3371 C   0  0  0  0  0  0  0  0  0  0  0  0
   15.1721   49.6442    3.6184 C   0  0  0  0  0  0  0  0  0  0  0  0
   14.9401   48.7518    4.6681 C   0  0  0  0  0  0  0  0  0  0  0  0
   14.2383   47.5655    4.4346 C   0  0  0  0  0  0  0  0  0  0  0  0
   13.9019   44.3715    4.6647 C   0  0  0  0  0  0  0  0  0  0  0  0
   14.2112   42.7745    6.6498 C   0  0  0  0  0  0  0  0  0  0  0  0
   15.4696   43.2687    7.0254 C   0  0  0  0  0  0  0  0  0  0  0  0
   16.1485   42.7169    8.1155 C   0  0  0  0  0  0  0  0  0  0  0  0
   15.5755   41.6675    8.8414 C   0  0  0  0  0  0  0  0  0  0  0  0
   14.3226   41.1708    8.4675 C   0  0  0  0  0  0  0  0  0  0  0  0
   13.6438   41.7235    7.3781 C   0  0  0  0  0  0  0  0  0  0  0  0
   14.7546   39.1467   10.9464 C   0  0  0  0  0  0  0  0  0  0  0  0
   13.4759   38.8298   11.7033 C   0  0  0  0  0  0  0  0  0  0  0  0
   12.3058   39.6319   11.1552 C   0  0  0  0  0  0  0  0  0  0  0  0
   11.4765   41.6369   10.7546 C   0  0  0  0  0  0  0  0  0  0  0  0
   11.4963   44.7905    1.9919 O   0  0  0  0  0  0  0  0  0  0  0  0
   15.0476   44.8816    4.7819 O   0  0  0  0  0  0  0  0  0  0  0  0
   12.4117   40.9682   11.5431 O   0  0  0  0  0  0  0  0  0  0  0  0
   17.3062   39.8457    9.7442 O   0  0  0  0  0  0  0  0  0  0  0  0
   17.2912   42.0370   10.8390 O   0  0  0  0  0  0  0  0  0  0  0  0
   12.0531   45.9640    1.9183 N   0  0  0  0  0  0  0  0  0  0  0  0
   13.4797   43.3191    5.5433 N   0  0  0  0  0  0  0  0  0  0  0  0
   15.3040   40.4142   11.4020 N   0  0  0  0  0  0  0  0  0  0  0  0
   16.4315   40.9762   10.2114 S   0  0  0  0  0  0  0  0  0  0  0  0
  1 11  1  0
  2 22  1  0
  3  2  1  0
  4  5  1  0
  4  1  1  0
  6  7  2  0
  8  9  2  0
 10  5  2  0
 11 28  1  0
 13 14  2  0
 15 16  2  0
 17 12  2  0
 18 29  1  0
 18 19  1  0
 19 20  1  0
 20 24  1  0
 21 24  1  0
 22 27  1  0
 28 12  1  0
 30 15  1  0
 30 29  1  0
  1  2  2  0
  4 27  2  0
  5  6  1  0
  7  8  1  0
  9 10  1  0
 11 23  2  0
 12 13  1  0
 14 15  1  0
 16 17  1  0
 30 25  2  0
 30 26  2  0
M  END
>  <rmsd>  (82) 
0.244011253

$$$$
MolPort-049-666-434 MolPort-051-561-886 CHEMBL5184668 CHEMBL5222013 CSSS06623406600 CSSS06623407334 MCULE-1265556255 MCULE-7926030787 PubChem-145426155 PubChem-160110221 PubChem-161609045 PubChem-163196447 Z5889958807
     RDKit          3D

 34 38  0  0  0  0  0  0  0  0999 V2000
   13.3897   47.0511    3.2486 C   0  0  0  0  0  0  0  0  0  0  0  0
   13.5055   45.6771    2.6139 C   0  0  0  0  0  0  0  0  0  0  0  0
   13.9413   44.3127    4.6319 C   0  0  0  0  0  0  0  0  0  0  0  0
   14.1849   42.8483    6.6953 C   0  0  0  0  0  0  0  0  0  0  0  0
   15.6653   42.6127    8.1687 C   0  0  0  0  0  0  0  0  0  0  0  0
   16.7955   42.6819    8.9750 C   0  0  0  0  0  0  0  0  0  0  0  0
   16.8415   41.8327   10.0952 C   0  0  0  0  0  0  0  0  0  0  0  0
   15.7761   40.9397   10.3926 C   0  0  0  0  0  0  0  0  0  0  0  0
   14.6511   40.9114    9.5366 C   0  0  0  0  0  0  0  0  0  0  0  0
   14.6376   41.7642    8.4372 C   0  0  0  0  0  0  0  0  0  0  0  0
   15.8624   40.0543   11.5891 C   0  0  0  0  0  0  0  0  0  0  0  0
   14.8070   39.1993   11.9899 C   0  0  0  0  0  0  0  0  0  0  0  0
   14.9436   38.3976   13.1279 C   0  0  0  0  0  0  0  0  0  0  0  0
   16.1188   38.4287   13.8791 C   0  0  0  0  0  0  0  0  0  0  0  0
   17.1699   39.2609   13.4932 C   0  0  0  0  0  0  0  0  0  0  0  0
   18.4171   39.3179   14.3089 C   0  0  0  0  0  0  0  0  0  0  0  0
   18.3376   40.4249   15.3150 C   0  0  0  0  0  0  0  0  0  0  0  0
   18.0696   42.3972   17.2362 C   0  0  0  0  0  0  0  0  0  0  0  0
   18.6942   42.7160   16.0238 C   0  0  0  0  0  0  0  0  0  0  0  0
   19.1797   44.0073   15.7699 C   0  0  0  0  0  0  0  0  0  0  0  0
   19.7971   44.3001   14.5512 C   0  0  0  0  0  0  0  0  0  0  0  0
   19.9346   43.3066   13.5788 C   0  0  0  0  0  0  0  0  0  0  0  0
   19.4549   42.0171   13.8222 C   0  0  0  0  0  0  0  0  0  0  0  0
   18.8316   41.7109   15.0418 C   0  0  0  0  0  0  0  0  0  0  0  0
   17.0373   40.0681   12.3607 C   0  0  0  0  0  0  0  0  0  0  0  0
   13.1368   44.6672    3.5461 O   0  0  0  0  0  0  0  0  0  0  0  0
   15.0639   44.8631    4.8012 O   0  0  0  0  0  0  0  0  0  0  0  0
   17.9276   43.2634   18.1407 O   0  0  0  0  0  0  0  0  0  0  0  0
   13.4742   43.3117    5.5421 N   0  0  0  0  0  0  0  0  0  0  0  0
   15.4068   43.3206    7.0606 N   0  0  0  0  0  0  0  0  0  0  0  0
   13.6753   41.8914    7.5130 N   0  0  0  0  0  0  0  0  0  0  0  0
   17.7365   40.1853   16.5104 N   0  0  0  0  0  0  0  0  0  0  0  0
   17.6095   41.1355   17.4381 N   0  0  0  0  0  0  0  0  0  0  0  0
   13.6405   39.1337   11.3018 F   0  0  0  0  0  0  0  0  0  0  0  0
  1  2  1  0
  2 26  1  0
  3 26  1  0
  3 29  1  0
  5 30  1  0
  6  7  2  0
  8  9  2  0
  8 11  1  0
 10 31  1  0
 10  5  2  0
 12 34  1  0
 12 13  2  0
 14 15  2  0
 16 15  1  0
 16 17  1  0
 18 19  1  0
 20 21  2  0
 22 23  2  0
 24 17  1  0
 24 19  2  0
 25 11  2  0
 29  4  1  0
 31  4  1  0
 33 32  1  0
 33 18  1  0
  3 27  2  0
  4 30  2  0
  5  6  1  0
  7  8  1  0
  9 10  1  0
 11 12  1  0
 13 14  1  0
 15 25  1  0
 17 32  2  0
 18 28  2  0
 19 20  1  0
 21 22  1  0
 23 24  1  0
M  END
>  <rmsd>  (83) 
0.242640048

$$$$
Molport-047-859-626 PubChem-165938361
     RDKit          3D

 18 18  0  0  0  0  0  0  0  0999 V2000
   13.4536   39.5171   11.1241 C   0  0  0  0  0  0  0  0  0  0  0  0
   14.5306   40.1591    9.3098 C   0  0  0  0  0  0  0  0  0  0  0  0
   14.7979   41.2474    8.3238 C   0  0  0  0  0  0  0  0  0  0  0  0
   16.0205   41.9159    8.2020 C   0  0  0  0  0  0  0  0  0  0  0  0
   14.2828   42.6883    6.5844 C   0  0  0  0  0  0  0  0  0  0  0  0
   13.8212   41.6773    7.4133 C   0  0  0  0  0  0  0  0  0  0  0  0
   13.8978   44.3586    4.6874 C   0  0  0  0  0  0  0  0  0  0  0  0
   12.9366   44.8857    3.6703 C   0  0  0  0  0  0  0  0  0  0  0  0
   17.2422   41.7041    8.9964 C   0  0  0  0  0  0  0  0  0  0  0  0
   13.5371   40.5602   10.2033 O   0  0  0  0  0  0  0  0  0  0  0  0
   15.0355   44.8884    4.8020 O   0  0  0  0  0  0  0  0  0  0  0  0
   17.2741   40.8426    9.9138 O   0  0  0  0  0  0  0  0  0  0  0  0
   18.3770   42.4618    8.7356 O   0  0  0  0  0  0  0  0  0  0  0  0
   15.8843   43.0471    6.9634 S   0  0  0  0  0  0  0  0  0  0  0  0
   13.4871   43.3005    5.5628 N   0  0  0  0  0  0  0  0  0  0  0  0
   13.6243   45.4277    2.5991 F   0  0  0  0  0  0  0  0  0  0  0  0
   12.1263   43.8632    3.2113 F   0  0  0  0  0  0  0  0  0  0  0  0
   12.1503   45.8644    4.2480 F   0  0  0  0  0  0  0  0  0  0  0  0
  1 10  1  0
  2 10  1  0
  2  3  1  0
  4 14  1  0
  4  9  1  0
  5 14  1  0
  5 15  1  0
  6  3  1  0
  8  7  1  0
  8 16  1  0
  8 17  1  0
  8 18  1  0
  9 13  1  0
 15  7  1  0
  3  4  2  0
  5  6  2  0
  7 11  2  0
  9 12  2  0
M  END
>  <rmsd>  (84) 
0.242231578

$$$$
Molport-053-332-522
     RDKit          3D

 16 17  0  0  0  0  0  0  0  0999 V2000
   13.4920   39.3706   11.4487 Cl  0  0  0  0  0  0  0  0  0  0  0  0
   13.5997   40.3337    9.9871 C   0  0  0  0  0  0  0  0  0  0  0  0
   12.4176   40.7242    9.3116 C   0  0  0  0  0  0  0  0  0  0  0  0
   12.4878   41.4975    8.1368 C   0  0  0  0  0  0  0  0  0  0  0  0
   13.7543   41.8533    7.6797 C   0  0  0  0  0  0  0  0  0  0  0  0
   14.2028   42.5789    6.6015 C   0  0  0  0  0  0  0  0  0  0  0  0
   14.7630   42.9129    3.1096 C   0  0  0  0  0  0  0  0  0  0  0  0
   16.0186   42.4778    3.2224 C   0  0  0  0  0  0  0  0  0  0  0  0
   14.8955   41.4784    8.3280 C   0  0  0  0  0  0  0  0  0  0  0  0
   14.8631   40.7145    9.4911 C   0  0  0  0  0  0  0  0  0  0  0  0
   13.3899   43.1992    5.6011 N   0  0  0  0  0  0  0  0  0  0  0  0
   15.5557   42.6204    6.6299 N   0  0  0  0  0  0  0  0  0  0  0  0
   14.0826   44.0532    4.2635 S   0  0  0  0  0  0  0  0  0  0  0  0
   15.1400   45.0037    4.7519 O   0  0  0  0  0  0  0  0  0  0  0  0
   13.0084   44.8499    3.5788 O   0  0  0  0  0  0  0  0  0  0  0  0
   15.9382   41.9466    7.6837 O   0  0  0  0  0  0  0  0  0  0  0  0
  2  1  1  0
  3  4  2  0
  5  6  1  0
  6 11  1  0
  9 16  1  0
  9  5  2  0
 10  2  2  0
 12 16  1  0
 13 11  1  0
 13  7  1  0
  2  3  1  0
  4  5  1  0
  6 12  2  0
  7  8  2  0
  9 10  1  0
 13 14  2  0
 13 15  2  0
M  END
>  <rmsd>  (85) 
0.240764007

$$$$
MolPort-002-552-480 CSSS00121638413 LN00488255 MCULE-8958344395 PubChem-3453859
     RDKit          3D

 25 28  0  0  0  0  0  0  0  0999 V2000
   16.1124   39.6294   10.3923 C   0  0  2  0  0  0  0  0  0  0  0  0
   18.1333   40.8493   11.6045 C   0  0  0  0  0  0  0  0  0  0  0  0
   17.4163   41.6397   10.5820 C   0  0  0  0  0  0  0  0  0  0  0  0
   15.6294   41.5910    8.7869 C   0  0  0  0  0  0  0  0  0  0  0  0
   14.3350   41.1605    8.4556 C   0  0  0  0  0  0  0  0  0  0  0  0
   13.6393   41.7355    7.3895 C   0  0  0  0  0  0  0  0  0  0  0  0
   14.2245   42.7517    6.6299 C   0  0  0  0  0  0  0  0  0  0  0  0
   15.5183   43.1854    6.9495 C   0  0  0  0  0  0  0  0  0  0  0  0
   16.2128   42.6093    8.0160 C   0  0  0  0  0  0  0  0  0  0  0  0
   13.9110   44.3606    4.6596 C   0  0  0  0  0  0  0  0  0  0  0  0
   12.9990   44.8241    3.5821 C   0  0  0  0  0  0  0  0  0  0  0  0
   14.7532   39.4745   10.9905 C   0  0  0  0  0  0  0  0  0  0  0  0
   14.1838   40.1761   12.0548 C   0  0  0  0  0  0  0  0  0  0  0  0
   12.8725   39.8522   12.4379 C   0  0  0  0  0  0  0  0  0  0  0  0
   12.1588   38.8459   11.7590 C   0  0  0  0  0  0  0  0  0  0  0  0
   12.7487   38.1526   10.6896 C   0  0  0  0  0  0  0  0  0  0  0  0
   14.0520   38.4868   10.3268 C   0  0  0  0  0  0  0  0  0  0  0  0
   16.0324   38.6021    9.2975 C   0  0  0  0  0  0  0  0  0  0  0  0
   17.4067   39.1809   11.6066 S   0  0  0  0  0  0  0  0  0  0  0  0
   17.7165   42.8450   10.3732 O   0  0  0  0  0  0  0  0  0  0  0  0
   15.0468   44.8913    4.7776 O   0  0  0  0  0  0  0  0  0  0  0  0
   16.9630   38.3669    8.4827 O   0  0  0  0  0  0  0  0  0  0  0  0
   16.3564   40.9844    9.8849 N   0  0  0  0  0  0  0  0  0  0  0  0
   13.4795   43.3181    5.5433 N   0  0  0  0  0  0  0  0  0  0  0  0
   14.7883   37.9033    9.2627 N   0  0  0  0  0  0  0  0  0  0  0  0
  1 19  1  1
  1 12  1  0
  1 23  1  0
  1 18  1  0
  2 19  1  0
  2  3  1  0
  3 23  1  0
  5  6  2  0
  7  8  2  0
  7 24  1  0
  9  4  2  0
 11 10  1  0
 13 14  2  0
 15 16  2  0
 17 25  1  0
 17 12  2  0
 23  4  1  0
 24 10  1  0
 25 18  1  0
  3 20  2  0
  4  5  1  0
  6  7  1  0
  8  9  1  0
 10 21  2  0
 12 13  1  0
 14 15  1  0
 16 17  1  0
 18 22  2  0
M  END
>  <rmsd>  (86) 
0.239984989

$$$$
MolPort-002-465-660 CSC000683401 CSSS00000683401 MCULE-2578394939 PubChem-3822736 Z56960310
     RDKit          3D

 21 21  0  0  0  0  0  0  0  0999 V2000
   10.3795   39.7933    5.3550 C   0  0  0  0  0  0  0  0  0  0  0  0
   10.2780   40.9956    6.2757 C   0  0  0  0  0  0  0  0  0  0  0  0
   12.5513   40.9753    7.2597 C   0  0  0  0  0  0  0  0  0  0  0  0
   13.8883   41.6074    7.3764 C   0  0  0  0  0  0  0  0  0  0  0  0
   14.2991   42.6830    6.5821 C   0  0  0  0  0  0  0  0  0  0  0  0
   13.8815   44.3887    4.7188 C   0  0  0  0  0  0  0  0  0  0  0  0
   12.9170   44.9010    3.7100 C   0  0  0  0  0  0  0  0  0  0  0  0
   16.0688   41.9436    8.1752 C   0  0  0  0  0  0  0  0  0  0  0  0
   17.3123   41.7541    8.9726 C   0  0  0  0  0  0  0  0  0  0  0  0
   14.8982   41.1953    8.2805 C   0  0  0  0  0  0  0  0  0  0  0  0
   14.7396   40.0985    9.2913 C   0  0  0  0  0  0  0  0  0  0  0  0
   13.9502   40.5812   10.5037 C   0  0  2  0  0  0  0  0  0  0  0  0
   14.7826   41.4707   11.4283 C   0  0  0  0  0  0  0  0  0  0  0  0
   15.9766   40.7380   12.0238 C   0  0  0  0  0  0  0  0  0  0  0  0
   13.3656   39.3987   11.2551 C   0  0  0  0  0  0  0  0  0  0  0  0
   11.5615   41.5763    6.4746 O   0  0  0  0  0  0  0  0  0  0  0  0
   15.0312   44.8973    4.7877 O   0  0  0  0  0  0  0  0  0  0  0  0
   12.3020   39.8965    7.8638 O   0  0  0  0  0  0  0  0  0  0  0  0
   13.4951   43.3032    5.5686 N   0  0  0  0  0  0  0  0  0  0  0  0
   12.9852   43.8910    2.2466 Cl  0  0  0  0  0  0  0  0  0  0  0  0
   15.8787   43.1088    6.9850 S   0  0  0  0  0  0  0  0  0  0  0  0
  1  2  1  0
  2 16  1  0
  3 16  1  0
  3  4  1  0
  5 19  1  0
  5 21  1  0
  7  6  1  0
  7 20  1  0
  8 21  1  0
  9  8  1  0
 10  4  1  0
 11 10  1  0
 11 12  1  0
 12 13  1  0
 12 15  1  1
 13 14  1  0
 19  6  1  0
  3 18  2  0
  4  5  2  0
  6 17  2  0
  8 10  2  0
M  END
>  <rmsd>  (87) 
0.209873945

$$$$
MolPort-047-152-205 1772718345 CSSS02495358449 MCULE-4541011171 PubChem-138106020
     RDKit          3D

 19 21  0  0  0  0  0  0  0  0999 V2000
   17.1088   42.5741    8.7178 C   0  0  0  0  0  0  0  0  0  0  0  0
   14.8348   41.6059    8.3402 C   0  0  0  0  0  0  0  0  0  0  0  0
   13.6815   39.9176    9.4971 C   0  0  0  0  0  0  0  0  0  0  0  0
   12.5839   40.0638    8.5960 C   0  0  0  0  0  0  0  0  0  0  0  0
   12.6434   41.0202    7.5646 C   0  0  0  0  0  0  0  0  0  0  0  0
   13.8006   41.7800    7.4769 C   0  0  0  0  0  0  0  0  0  0  0  0
   14.2227   42.7788    6.6275 C   0  0  0  0  0  0  0  0  0  0  0  0
   13.9233   44.3519    4.6575 C   0  0  0  0  0  0  0  0  0  0  0  0
   13.0696   44.8268    3.5648 C   0  0  0  0  0  0  0  0  0  0  0  0
   11.8626   44.3210    3.3483 C   0  0  0  0  0  0  0  0  0  0  0  0
   13.6474   38.8790   10.5815 C   0  0  0  0  0  0  0  0  0  0  0  0
   12.7963   39.3753   11.7376 C   0  0  0  0  0  0  0  0  0  0  0  0
   14.3021   39.3920   11.8543 C   0  0  0  0  0  0  0  0  0  0  0  0
   15.8329   42.4503    8.0357 N   0  0  0  0  0  0  0  0  0  0  0  0
   14.8031   40.6913    9.3395 N   0  0  0  0  0  0  0  0  0  0  0  0
   15.4706   43.1783    6.9844 N   0  0  0  0  0  0  0  0  0  0  0  0
   13.4690   43.3126    5.5343 N   0  0  0  0  0  0  0  0  0  0  0  0
   15.0599   44.8721    4.8119 O   0  0  0  0  0  0  0  0  0  0  0  0
   11.0129   38.9773    8.7262 Br  0  0  0  0  0  0  0  0  0  0  0  0
  1 14  1  0
  3 15  2  0
  4  5  2  0
  4 19  1  0
  6  7  1  0
  6  2  2  0
  7 17  1  0
  8  9  1  0
 11  3  1  0
 11 12  1  0
 12 13  1  0
 13 11  1  0
 14  2  1  0
 14 16  1  0
 17  8  1  0
  2 15  1  0
  3  4  1  0
  5  6  1  0
  7 16  2  0
  8 18  2  0
  9 10  2  0
M  END
>  <rmsd>  (88) 
0.197188407

$$$$
MolPort-002-775-237 ChemDiv-F018-3391 MCULE-2524880567 PubChem-19591198
     RDKit          3D

 27 29  0  0  0  0  0  0  0  0999 V2000
   13.6205   39.5366   11.0919 C   0  0  0  0  0  0  0  0  0  0  0  0
   14.5573   41.1005    9.8505 C   0  0  0  0  0  0  0  0  0  0  0  0
   15.5704   42.4265    6.7060 C   0  0  0  0  0  0  0  0  0  0  0  0
   16.5950   42.5983    5.6399 C   0  0  0  0  0  0  0  0  0  0  0  0
   14.2200   42.7366    6.6357 C   0  0  0  0  0  0  0  0  0  0  0  0
   13.9829   44.2481    4.5961 C   0  0  0  0  0  0  0  0  0  0  0  0
   13.1932   44.5680    3.3676 C   0  0  1  0  0  0  0  0  0  0  0  0
   12.8425   43.3113    2.5867 C   0  0  0  0  0  0  0  0  0  0  0  0
   10.4993   46.8996    3.5573 C   0  0  0  0  0  0  0  0  0  0  0  0
    9.9814   45.8998    4.3588 C   0  0  0  0  0  0  0  0  0  0  0  0
   10.9340   44.9612    4.4281 C   0  0  0  0  0  0  0  0  0  0  0  0
   10.3950   43.6069    4.6624 C   0  0  0  0  0  0  0  0  0  0  0  0
    8.8873   43.8765    4.8534 C   0  0  0  0  0  0  0  0  0  0  0  0
    8.6192   45.3588    4.5160 C   0  0  0  0  0  0  0  0  0  0  0  0
    9.7337   48.0285    2.9444 C   0  0  0  0  0  0  0  0  0  0  0  0
   13.6811   42.2541    7.8053 C   0  0  0  0  0  0  0  0  0  0  0  0
   12.2461   42.3140    8.2091 C   0  0  0  0  0  0  0  0  0  0  0  0
   13.7715   39.9504    9.7696 O   0  0  0  0  0  0  0  0  0  0  0  0
   15.0503   44.8778    4.8178 O   0  0  0  0  0  0  0  0  0  0  0  0
   14.6763   41.7118    8.5353 N   0  0  0  0  0  0  0  0  0  0  0  0
   15.8222   41.8055    7.8769 N   0  0  0  0  0  0  0  0  0  0  0  0
   13.4801   43.3035    5.5477 N   0  0  0  0  0  0  0  0  0  0  0  0
   11.9989   45.3438    3.6942 N   0  0  0  0  0  0  0  0  0  0  0  0
   11.7422   46.5331    3.1639 N   0  0  0  0  0  0  0  0  0  0  0  0
    9.0550   47.5731    1.8297 F   0  0  0  0  0  0  0  0  0  0  0  0
   10.6032   49.0358    2.5685 F   0  0  0  0  0  0  0  0  0  0  0  0
    8.8264   48.5346    3.8571 F   0  0  0  0  0  0  0  0  0  0  0  0
  1 18  1  0
  2 18  1  0
  2 20  1  0
  3  5  1  0
  4  3  1  0
  5 22  1  0
  7  6  1  0
  7  8  1  1
  7 23  1  0
  9 10  1  0
 11 23  1  0
 12 11  1  0
 12 13  1  0
 13 14  1  0
 14 10  1  0
 15  9  1  0
 15 25  1  0
 15 26  1  0
 15 27  1  0
 16 20  1  0
 17 16  1  0
 20 21  1  0
 22  6  1  0
 23 24  1  0
  3 21  2  0
  5 16  2  0
  6 19  2  0
  9 24  2  0
 10 11  2  0
M  END
>  <rmsd>  (89) 
0.249113917

$$$$
MolPort-047-459-720 219860716 MCULE-2419899372 MCULE-3818994584 PubChem-159302235 PubChem-159329173 PubChem-161182785 PubChem-165095731 PubChem-86683701
     RDKit          3D

 35 39  0  0  0  0  0  0  0  0999 V2000
   13.8964   41.8241   10.3259 B   0  0  0  0  0  0  0  0  0  0  0  0
   12.4696   42.0285   10.5259 O   0  0  0  0  0  0  0  0  0  0  0  0
   14.4399   40.7837   11.1878 O   0  0  0  0  0  0  0  0  0  0  0  0
   16.0333   42.2413    5.1581 O   0  0  0  0  0  0  0  0  0  0  0  0
   18.8919   47.7022   -2.6173 O   0  0  0  0  0  0  0  0  0  0  0  0
   12.0567   40.7820   11.0256 C   0  0  0  0  0  0  0  0  0  0  0  0
   13.3507   39.9051   11.2546 C   0  0  0  0  0  0  0  0  0  0  0  0
   13.5423   38.8053   10.2029 C   0  0  0  0  0  0  0  0  0  0  0  0
   13.3795   39.2063   12.6103 C   0  0  0  0  0  0  0  0  0  0  0  0
   11.2877   41.0501   12.3178 C   0  0  0  0  0  0  0  0  0  0  0  0
   11.0657   40.1609   10.0451 C   0  0  0  0  0  0  0  0  0  0  0  0
   14.4823   41.9711    8.8808 C   0  0  0  0  0  0  0  0  0  0  0  0
   15.7661   41.5063    8.5911 C   0  0  0  0  0  0  0  0  0  0  0  0
   15.5568   42.1949    6.3257 C   0  0  0  0  0  0  0  0  0  0  0  0
   14.2658   42.7010    6.5850 C   0  0  0  0  0  0  0  0  0  0  0  0
   13.7317   42.5636    7.8668 C   0  0  0  0  0  0  0  0  0  0  0  0
   13.9226   44.2093    4.5742 C   0  0  0  0  0  0  0  0  0  0  0  0
   15.5114   45.8327    3.8718 C   0  0  0  0  0  0  0  0  0  0  0  0
   14.7973   46.0726    2.6869 C   0  0  0  0  0  0  0  0  0  0  0  0
   13.6164   45.3445    2.4737 C   0  0  0  0  0  0  0  0  0  0  0  0
   13.1723   44.4188    3.4173 C   0  0  0  0  0  0  0  0  0  0  0  0
   16.5512   47.7142    1.9863 C   0  0  0  0  0  0  0  0  0  0  0  0
   17.0014   48.6035    0.8380 C   0  0  0  0  0  0  0  0  0  0  0  0
   15.3271   47.9930   -0.6236 C   0  0  0  0  0  0  0  0  0  0  0  0
   14.5673   47.1639    0.4176 C   0  0  2  0  0  0  0  0  0  0  0  0
   13.2040   47.8024    0.6229 C   0  0  0  0  0  0  0  0  0  0  0  0
   17.4033   48.6869   -1.4819 C   0  0  0  0  0  0  0  0  0  0  0  0
   18.8993   48.4883   -1.4570 C   0  0  0  0  0  0  0  0  0  0  0  0
   17.5023   47.8532   -2.7350 C   0  0  0  0  0  0  0  0  0  0  0  0
   17.6159   41.0999    7.0968 C   0  0  0  0  0  0  0  0  0  0  0  0
   16.2789   41.6221    7.3370 N   0  0  0  0  0  0  0  0  0  0  0  0
   13.4532   43.2863    5.5592 N   0  0  0  0  0  0  0  0  0  0  0  0
   15.0647   44.9224    4.7771 N   0  0  0  0  0  0  0  0  0  0  0  0
   15.2760   47.0282    1.7105 N   0  0  0  0  0  0  0  0  0  0  0  0
   16.7676   47.9108   -0.4187 N   0  0  0  0  0  0  0  0  0  0  0  0
  1  2  1  0
  1 12  1  0
  1  3  1  0
  6  2  1  0
  6  7  1  0
  6 10  1  0
  6 11  1  0
  7  3  1  0
  7  8  1  0
  7  9  1  0
 13 31  1  0
 14 15  1  0
 15 32  1  0
 16 12  1  0
 18 33  2  0
 19 20  2  0
 19 34  1  0
 21 17  2  0
 22 34  1  0
 22 23  1  0
 23 35  1  0
 24 35  1  0
 24 25  1  0
 25 26  1  1
 25 34  1  0
 27 35  1  0
 27 28  1  0
 28  5  1  0
 29  5  1  0
 29 27  1  0
 30 31  1  0
 31 14  1  0
 32 17  1  0
 12 13  2  0
 14  4  2  0
 15 16  2  0
 17 33  1  0
 18 19  1  0
 20 21  1  0
M  END
>  <rmsd>  (90) 
0.24306573

$$$$
Molport-051-942-616 CSSS20572399210
     RDKit          3D

 24 26  0  0  0  0  0  0  0  0999 V2000
   12.9222   44.8721    3.6744 C   0  0  0  0  0  0  0  0  0  0  0  0
   13.8851   44.3762    4.6916 C   0  0  0  0  0  0  0  0  0  0  0  0
   14.3089   42.7332    6.5938 C   0  0  0  0  0  0  0  0  0  0  0  0
   16.3006   42.5982    7.8032 C   0  0  0  0  0  0  0  0  0  0  0  0
   16.8475   41.2463    9.3212 C   0  0  0  0  0  0  0  0  0  0  0  0
   14.5363   41.1455    8.3427 C   0  0  0  0  0  0  0  0  0  0  0  0
   13.8038   40.2998   10.5966 C   0  0  0  0  0  0  0  0  0  0  0  0
   13.2921   39.1647   11.4070 C   0  0  0  0  0  0  0  0  0  0  0  0
   16.9092   40.0905   10.2323 C   0  0  0  0  0  0  0  0  0  0  0  0
   17.2058   40.3207   11.5818 C   0  0  0  0  0  0  0  0  0  0  0  0
   17.2850   39.2553   12.4817 C   0  0  0  0  0  0  0  0  0  0  0  0
   17.0821   37.9481   12.0355 C   0  0  0  0  0  0  0  0  0  0  0  0
   16.8118   37.7045   10.6869 C   0  0  0  0  0  0  0  0  0  0  0  0
   16.7306   38.7651    9.7789 C   0  0  0  0  0  0  0  0  0  0  0  0
   16.5021   38.4483    8.3390 C   0  0  0  0  0  0  0  0  0  0  0  0
   15.0283   44.8988    4.7673 O   0  0  0  0  0  0  0  0  0  0  0  0
   14.0951   41.3873   11.1617 O   0  0  0  0  0  0  0  0  0  0  0  0
   13.4954   43.3123    5.5671 N   0  0  0  0  0  0  0  0  0  0  0  0
   15.5749   43.1901    6.8272 N   0  0  0  0  0  0  0  0  0  0  0  0
   17.5631   42.9124    8.1370 N   0  0  0  0  0  0  0  0  0  0  0  0
   17.9064   42.0587    9.0964 N   0  0  0  0  0  0  0  0  0  0  0  0
   15.8115   41.5855    8.5233 N   0  0  0  0  0  0  0  0  0  0  0  0
   13.9407   40.1519    9.1815 N   0  0  0  0  0  0  0  0  0  0  0  0
   13.7960   41.7195    7.3547 N   0  0  0  0  0  0  0  0  0  0  0  0
  1  2  1  0
  2 18  1  0
  3 24  1  0
  4 19  1  0
  5 22  1  0
  5  9  1  0
  6 23  1  0
  8  7  1  0
 10 11  2  0
 12 13  2  0
 14  9  2  0
 15 14  1  0
 18  3  1  0
 20 21  1  0
 22  6  1  0
 22  4  1  0
 23  7  1  0
  2 16  2  0
  3 19  2  0
  4 20  2  0
  5 21  2  0
  6 24  2  0
  7 17  2  0
  9 10  1  0
 11 12  1  0
 13 14  1  0
M  END
>  <rmsd>  (91) 
0.242612869

$$$$
MolPort-007-657-051 CSSS00025804467 ChemDiv-C685-0468 MCULE-4330609593 PubChem-20875034
     RDKit          3D

 26 28  0  0  0  0  0  0  0  0999 V2000
   13.1439   37.9674    9.6765 C   0  0  0  0  0  0  0  0  0  0  0  0
   12.5762   38.4731   10.9913 C   0  0  0  0  0  0  0  0  0  0  0  0
   13.1865   39.8188   11.3445 C   0  0  0  0  0  0  0  0  0  0  0  0
   14.6232   39.6477   11.8128 C   0  0  0  0  0  0  0  0  0  0  0  0
   15.0384   41.6468   13.2548 C   0  0  0  0  0  0  0  0  0  0  0  0
   16.1921   41.4532   11.0384 C   0  0  0  0  0  0  0  0  0  0  0  0
   16.4255   40.7433    9.7411 C   0  0  0  0  0  0  0  0  0  0  0  0
   15.6705   41.4042    8.6381 C   0  0  0  0  0  0  0  0  0  0  0  0
   16.2384   42.4779    7.9452 C   0  0  0  0  0  0  0  0  0  0  0  0
   15.5237   43.1086    6.9241 C   0  0  0  0  0  0  0  0  0  0  0  0
   14.2352   42.6735    6.5859 C   0  0  0  0  0  0  0  0  0  0  0  0
   13.8691   44.4083    4.7289 C   0  0  0  0  0  0  0  0  0  0  0  0
   15.3131   45.9556    3.8116 C   0  0  1  0  0  0  0  0  0  0  0  0
   16.7162   45.8035    3.2399 C   0  0  0  0  0  0  0  0  0  0  0  0
   14.7776   44.8825    1.6034 C   0  0  0  0  0  0  0  0  0  0  0  0
   14.2626   45.8073    2.6990 C   0  0  1  0  0  0  0  0  0  0  0  0
   13.6676   41.6068    7.2898 C   0  0  0  0  0  0  0  0  0  0  0  0
   14.3791   40.9778    8.3144 C   0  0  0  0  0  0  0  0  0  0  0  0
   15.2459   40.9501   11.9956 N   0  0  0  0  0  0  0  0  0  0  0  0
   13.4700   43.3013    5.5476 N   0  0  0  0  0  0  0  0  0  0  0  0
   15.0540   44.9127    4.7844 N   0  0  0  0  0  0  0  0  0  0  0  0
   16.8182   42.5250   11.2652 O   0  0  0  0  0  0  0  0  0  0  0  0
   17.0469   43.4646    1.9236 O   0  0  0  0  0  0  0  0  0  0  0  0
   17.1799   45.5435    0.5797 O   0  0  0  0  0  0  0  0  0  0  0  0
   16.5319   44.8672    1.7577 S   0  0  0  0  0  0  0  0  0  0  0  0
   12.7964   45.0471    3.4571 S   0  0  0  0  0  0  0  0  0  0  0  0
  1  2  1  0
  2  3  1  0
  3  4  1  0
  4 19  1  0
  5 19  1  0
  7  6  1  0
  7  8  1  0
  9 10  2  0
 11 20  1  0
 11 17  2  0
 12 26  1  0
 13 21  1  0
 13 14  1  6
 14 25  1  0
 16 15  1  6
 16 26  1  0
 16 13  1  0
 18  8  2  0
 19  6  1  0
 20 12  1  0
 25 15  1  0
  6 22  2  0
  8  9  1  0
 10 11  1  0
 12 21  2  0
 17 18  1  0
 25 23  2  0
 25 24  2  0
M  END
>  <rmsd>  (92) 
0.238967761

$$$$
Molport-053-335-138
     RDKit          3D

 15 16  0  0  0  0  0  0  0  0999 V2000
   13.1267   43.5726    2.2147 Cl  0  0  0  0  0  0  0  0  0  0  0  0
   13.0358   44.7670    3.5306 C   0  0  0  0  0  0  0  0  0  0  0  0
   13.9182   44.3382    4.6589 C   0  0  0  0  0  0  0  0  0  0  0  0
   14.3272   42.6788    6.5364 C   0  0  0  0  0  0  0  0  0  0  0  0
   15.7135   42.6122    6.5364 C   0  0  0  0  0  0  0  0  0  0  0  0
   14.9832   41.5185    8.2088 C   0  0  0  0  0  0  0  0  0  0  0  0
   14.8869   40.7423    9.3621 C   0  0  0  0  0  0  0  0  0  0  0  0
   13.6019   40.4600    9.8551 C   0  0  0  0  0  0  0  0  0  0  0  0
   12.4624   40.9551    9.1908 C   0  0  0  0  0  0  0  0  0  0  0  0
   12.6189   41.7311    8.0331 C   0  0  0  0  0  0  0  0  0  0  0  0
   15.0378   44.8958    4.8124 O   0  0  0  0  0  0  0  0  0  0  0  0
   13.4841   43.3012    5.5522 N   0  0  0  0  0  0  0  0  0  0  0  0
   16.1308   41.8800    7.5973 N   0  0  0  0  0  0  0  0  0  0  0  0
   13.8805   41.9772    7.5908 N   0  0  0  0  0  0  0  0  0  0  0  0
   13.4001   39.4025   11.4319 Br  0  0  0  0  0  0  0  0  0  0  0  0
  2  1  1  0
  2  3  1  0
  3 12  1  0
  5 13  1  0
  6  7  1  0
  8 15  1  0
  8  9  1  0
 10 14  1  0
 12  4  1  0
 14  4  1  0
 14  6  1  0
  3 11  2  0
  4  5  2  0
  6 13  2  0
  7  8  2  0
  9 10  2  0
M  END
>  <rmsd>  (93) 
0.224570632

$$$$
MolPort-000-122-710 5059970 MCULE-4388863312 PubChem-6492870 ZINC000005059970 ZINC05059970
     RDKit          3D

 26 28  0  0  0  0  0  0  0  0999 V2000
   17.5227   41.9951    4.9469 C   0  0  0  0  0  0  0  0  0  0  0  0
   15.5707   42.3201    6.4382 C   0  0  0  0  0  0  0  0  0  0  0  0
   16.2554   41.7624    7.5294 C   0  0  0  0  0  0  0  0  0  0  0  0
   15.6151   41.5921    8.7567 C   0  0  0  0  0  0  0  0  0  0  0  0
   14.2747   41.9653    8.9153 C   0  0  0  0  0  0  0  0  0  0  0  0
   13.5945   42.5373    7.8331 C   0  0  0  0  0  0  0  0  0  0  0  0
   14.2346   42.7433    6.6063 C   0  0  0  0  0  0  0  0  0  0  0  0
   13.9662   44.2745    4.5903 C   0  0  0  0  0  0  0  0  0  0  0  0
   13.1588   44.5919    3.3841 C   0  0  0  0  0  0  0  0  0  0  0  0
   13.5745   41.7294   10.1936 C   0  0  0  0  0  0  0  0  0  0  0  0
   14.2133   40.9222   11.2798 C   0  0  0  0  0  0  0  0  0  0  0  0
   14.2600   38.7209    9.8162 C   0  0  0  0  0  0  0  0  0  0  0  0
   16.1456   37.9600    8.6226 C   0  0  0  0  0  0  0  0  0  0  0  0
   15.4106   38.0619    7.4280 C   0  0  0  0  0  0  0  0  0  0  0  0
   15.9918   37.6511    6.1051 C   0  0  0  0  0  0  0  0  0  0  0  0
   17.5183   37.6560    6.1253 C   0  0  0  0  0  0  0  0  0  0  0  0
   18.0170   36.8780    7.3357 C   0  0  0  0  0  0  0  0  0  0  0  0
   17.6041   37.5967    8.6184 C   0  0  0  0  0  0  0  0  0  0  0  0
   16.1900   42.4263    5.1875 O   0  0  0  0  0  0  0  0  0  0  0  0
   15.0478   44.8876    4.7920 O   0  0  0  0  0  0  0  0  0  0  0  0
   12.4106   42.1791   10.3714 O   0  0  0  0  0  0  0  0  0  0  0  0
   13.4751   43.3191    5.5354 N   0  0  0  0  0  0  0  0  0  0  0  0
   15.5529   38.3095    9.7922 N   0  0  0  0  0  0  0  0  0  0  0  0
   14.1141   38.4567    7.4947 N   0  0  0  0  0  0  0  0  0  0  0  0
   13.5521   38.7836    8.6587 N   0  0  0  0  0  0  0  0  0  0  0  0
   13.5078   39.2405   11.3546 S   0  0  0  0  0  0  0  0  0  0  0  0
  1 19  1  0
  2 19  1  0
  3  4  2  0
  5  6  2  0
  5 10  1  0
  7 22  1  0
  7  2  2  0
  9  8  1  0
 11 10  1  0
 11 26  1  0
 12 26  1  0
 12 25  2  0
 13 23  2  0
 14 24  2  0
 15 14  1  0
 15 16  1  0
 16 17  1  0
 17 18  1  0
 18 13  1  0
 22  8  1  0
  2  3  1  0
  4  5  1  0
  6  7  1  0
  8 20  2  0
 10 21  2  0
 12 23  1  0
 13 14  1  0
 24 25  1  0
M  END
>  <rmsd>  (94) 
0.233837798

$$$$
MolPort-028-889-922 ChemDiv-V030-3017 MCULE-1497383710 PubChem-83281344 ZINC000096275279
     RDKit          3D

 30 32  0  0  0  0  0  0  0  0999 V2000
   12.6946   43.7190    2.6182 C   0  0  0  0  0  0  0  0  0  0  0  0
   12.9743   44.8326    3.6086 C   0  0  0  0  0  0  0  0  0  0  0  0
   13.9035   44.3561    4.6699 C   0  0  0  0  0  0  0  0  0  0  0  0
   14.2531   42.7332    6.6247 C   0  0  0  0  0  0  0  0  0  0  0  0
   13.6643   41.7123    7.4031 C   0  0  0  0  0  0  0  0  0  0  0  0
   14.3694   41.1096    8.4590 C   0  0  0  0  0  0  0  0  0  0  0  0
   15.6675   41.5551    8.7079 C   0  0  0  0  0  0  0  0  0  0  0  0
   16.2373   40.1261   10.6793 C   0  0  0  0  0  0  0  0  0  0  0  0
   15.4487   40.7240   11.8043 C   0  0  0  0  0  0  0  0  0  0  0  0
   14.1146   40.3427   12.0468 C   0  0  0  0  0  0  0  0  0  0  0  0
   13.4313   39.3158   11.2087 C   0  0  0  0  0  0  0  0  0  0  0  0
   13.4058   40.9275   13.1014 C   0  0  0  0  0  0  0  0  0  0  0  0
   14.0155   41.8856   13.9155 C   0  0  0  0  0  0  0  0  0  0  0  0
   15.3395   42.2620   13.6792 C   0  0  0  0  0  0  0  0  0  0  0  0
   15.9892   43.2797   14.5452 C   0  0  0  0  0  0  0  0  0  0  0  0
   16.0531   41.6824   12.6278 C   0  0  0  0  0  0  0  0  0  0  0  0
   17.6469   41.8728    9.4994 C   0  0  0  0  0  0  0  0  0  0  0  0
   17.5180   42.7752    8.4384 C   0  0  0  0  0  0  0  0  0  0  0  0
   16.2447   42.5436    7.9590 C   0  0  0  0  0  0  0  0  0  0  0  0
   15.5693   43.1576    6.9081 C   0  0  0  0  0  0  0  0  0  0  0  0
   18.8690   41.7579   10.3213 C   0  0  0  0  0  0  0  0  0  0  0  0
   20.1744   40.5691   12.1398 C   0  0  0  0  0  0  0  0  0  0  0  0
   21.1180   39.6091   11.4342 C   0  0  0  0  0  0  0  0  0  0  0  0
   22.3280   39.1867    9.6391 C   0  0  0  0  0  0  0  0  0  0  0  0
   15.0377   44.8924    4.7789 O   0  0  0  0  0  0  0  0  0  0  0  0
   19.8326   42.5442   10.1119 O   0  0  0  0  0  0  0  0  0  0  0  0
   21.6770   40.2196   10.3115 O   0  0  0  0  0  0  0  0  0  0  0  0
   13.4864   43.3107    5.5593 N   0  0  0  0  0  0  0  0  0  0  0  0
   16.5174   41.1311    9.6570 N   0  0  0  0  0  0  0  0  0  0  0  0
   18.9687   40.7683   11.3487 N   0  0  0  0  0  0  0  0  0  0  0  0
  1  2  1  0
  2  3  1  0
  3 28  1  0
  5  6  2  0
  7 29  1  0
  8 29  1  0
  8  9  1  0
 10 12  2  0
 11 10  1  0
 13 14  2  0
 15 14  1  0
 16  9  2  0
 17 21  1  0
 18 19  1  0
 19  7  2  0
 20  4  2  0
 21 30  1  0
 22 30  1  0
 22 23  1  0
 23 27  1  0
 24 27  1  0
 28  4  1  0
 29 17  1  0
  3 25  2  0
  4  5  1  0
  6  7  1  0
  9 10  1  0
 12 13  1  0
 14 16  1  0
 17 18  2  0
 19 20  1  0
 21 26  2  0
M  END
>  <rmsd>  (95) 
0.232913122

$$$$
MolPort-005-074-788 CSSS09880945578 MCULE-8079263191 PubChem-45207808
     RDKit          3D

 29 32  0  0  0  0  0  0  0  0999 V2000
   16.2678   41.8362    2.6939 C   0  0  0  0  0  0  0  0  0  0  0  0
   16.2929   42.0001    5.1500 C   0  0  0  0  0  0  0  0  0  0  0  0
   15.5745   42.2238    6.4155 C   0  0  0  0  0  0  0  0  0  0  0  0
   14.2803   42.7520    6.5840 C   0  0  0  0  0  0  0  0  0  0  0  0
   13.9260   44.3276    4.6370 C   0  0  0  0  0  0  0  0  0  0  0  0
   13.0684   44.7252    3.4801 C   0  0  0  0  0  0  0  0  0  0  0  0
   11.7085   45.1825    3.9761 C   0  0  0  0  0  0  0  0  0  0  0  0
   12.7416   46.2055    3.5625 C   0  0  0  0  0  0  0  0  0  0  0  0
   13.8426   42.6903    7.9111 C   0  0  0  0  0  0  0  0  0  0  0  0
   12.6143   43.1188    8.4138 C   0  0  0  0  0  0  0  0  0  0  0  0
   12.3738   42.9813    9.7896 C   0  0  0  0  0  0  0  0  0  0  0  0
   13.3656   42.4268   10.6236 C   0  0  0  0  0  0  0  0  0  0  0  0
   13.1055   42.2621   12.0815 C   0  0  0  0  0  0  0  0  0  0  0  0
   11.3772   41.4492   13.4509 C   0  0  0  0  0  0  0  0  0  0  0  0
   12.9696   39.8867   12.6389 C   0  0  1  0  0  0  0  0  0  0  0  0
   13.4914   39.2053   11.3845 C   0  0  0  0  0  0  0  0  0  0  0  0
   14.0393   40.0322   13.6915 C   0  0  0  0  0  0  0  0  0  0  0  0
   13.9377   39.5523   14.9862 C   0  0  0  0  0  0  0  0  0  0  0  0
   15.0951   39.7824   15.7443 C   0  0  0  0  0  0  0  0  0  0  0  0
   16.1172   40.4314   15.0552 C   0  0  0  0  0  0  0  0  0  0  0  0
   14.7827   42.1559    8.7703 C   0  0  0  0  0  0  0  0  0  0  0  0
   15.6110   42.0530    3.9334 O   0  0  0  0  0  0  0  0  0  0  0  0
   17.5232   41.7224    5.1763 O   0  0  0  0  0  0  0  0  0  0  0  0
   15.0491   44.8771    4.8017 O   0  0  0  0  0  0  0  0  0  0  0  0
   13.4742   43.3134    5.5412 N   0  0  0  0  0  0  0  0  0  0  0  0
   12.2266   41.1184   12.3178 N   0  0  0  0  0  0  0  0  0  0  0  0
   14.5585   42.0199   10.1000 N   0  0  0  0  0  0  0  0  0  0  0  0
   15.5624   40.7132   13.4929 S   0  0  0  0  0  0  0  0  0  0  0  0
   16.1642   41.7236    7.9272 S   0  0  0  0  0  0  0  0  0  0  0  0
  1 22  1  0
  2 22  1  0
  2  3  1  0
  3 29  1  0
  4 25  1  0
  4  9  1  0
  6  5  1  0
  6  7  1  0
  7  8  1  0
  8  6  1  0
 10 11  2  0
 12 27  2  0
 13 12  1  0
 13 26  1  0
 14 26  1  0
 15 26  1  0
 15 16  1  6
 15 17  1  0
 17 28  1  0
 18 19  1  0
 20 28  1  0
 21 29  1  0
 21  9  2  0
 25  5  1  0
  2 23  2  0
  3  4  2  0
  5 24  2  0
  9 10  1  0
 11 12  1  0
 17 18  2  0
 19 20  2  0
 21 27  1  0
M  END
>  <rmsd>  (96) 
0.196401909

$$$$
MolPort-051-561-905 CHEMBL5994056 CSSS06454646771 MCULE-8069612432 PubChem-135378781
     RDKit          3D

 34 37  0  0  0  0  0  0  0  0999 V2000
   16.5186   41.5095   11.4398 C   0  0  0  0  0  0  0  0  0  0  0  0
   16.4767   43.8175   12.3852 C   0  0  0  0  0  0  0  0  0  0  0  0
   17.0542   43.4806    9.9671 C   0  0  0  0  0  0  0  0  0  0  0  0
   17.2265   42.5927    8.7763 C   0  0  0  0  0  0  0  0  0  0  0  0
   15.6025   43.2107    7.0008 C   0  0  0  0  0  0  0  0  0  0  0  0
   14.3274   42.8000    6.6635 C   0  0  0  0  0  0  0  0  0  0  0  0
   13.9727   41.8100    7.5682 C   0  0  0  0  0  0  0  0  0  0  0  0
   12.6924   41.0572    7.6347 C   0  0  0  0  0  0  0  0  0  0  0  0
   12.4296   40.1180    8.6609 C   0  0  0  0  0  0  0  0  0  0  0  0
   11.2019   39.4332    8.6732 C   0  0  0  0  0  0  0  0  0  0  0  0
   10.2420   39.6709    7.6894 C   0  0  0  0  0  0  0  0  0  0  0  0
   10.4980   40.5965    6.6799 C   0  0  0  0  0  0  0  0  0  0  0  0
   11.7125   41.2815    6.6550 C   0  0  0  0  0  0  0  0  0  0  0  0
   13.1752   38.9786   10.7414 C   0  0  0  0  0  0  0  0  0  0  0  0
   13.8910   44.3344    4.6757 C   0  0  0  0  0  0  0  0  0  0  0  0
   12.9439   44.7478    3.6322 C   0  0  0  0  0  0  0  0  0  0  0  0
   13.1055   45.7043    2.6591 C   0  0  0  0  0  0  0  0  0  0  0  0
   14.0986   47.3897    1.3781 C   0  0  0  0  0  0  0  0  0  0  0  0
   12.9384   47.4663    0.5816 C   0  0  0  0  0  0  0  0  0  0  0  0
   11.8618   46.6172    0.8739 C   0  0  0  0  0  0  0  0  0  0  0  0
   11.6610   44.2432    3.4119 C   0  0  0  0  0  0  0  0  0  0  0  0
   16.6852   42.9408   11.2450 N   0  0  0  0  0  0  0  0  0  0  0  0
   15.9668   42.4673    8.0626 N   0  0  0  0  0  0  0  0  0  0  0  0
   15.0032   41.6318    8.4172 N   0  0  0  0  0  0  0  0  0  0  0  0
   13.5137   43.3059    5.5982 N   0  0  0  0  0  0  0  0  0  0  0  0
   14.1723   46.5048    2.4153 N   0  0  0  0  0  0  0  0  0  0  0  0
   11.9991   45.7629    1.9155 N   0  0  0  0  0  0  0  0  0  0  0  0
   11.1095   44.8884    2.3509 N   0  0  0  0  0  0  0  0  0  0  0  0
   17.2067   44.7235    9.8244 O   0  0  0  0  0  0  0  0  0  0  0  0
   13.3866   39.8721    9.6547 O   0  0  0  0  0  0  0  0  0  0  0  0
   15.0226   44.8841    4.7517 O   0  0  0  0  0  0  0  0  0  0  0  0
    9.2981   40.9007    5.4429 Cl  0  0  0  0  0  0  0  0  0  0  0  0
   14.3686   38.7769   11.4069 F   0  0  0  0  0  0  0  0  0  0  0  0
   12.2505   39.5177   11.6170 F   0  0  0  0  0  0  0  0  0  0  0  0
  1 22  1  0
  2 22  1  0
  4  3  1  0
  4 23  1  0
  6  7  1  0
  6 25  1  0
  7  8  1  0
  9 10  2  0
  9 30  1  0
 11 12  2  0
 12 32  1  0
 13  8  2  0
 14 30  1  0
 14 33  1  0
 14 34  1  0
 15 16  1  0
 17 26  1  0
 18 19  1  0
 20 27  1  0
 21 16  1  0
 22  3  1  0
 23  5  1  0
 23 24  1  0
 25 15  1  0
 27 28  1  0
 27 17  1  0
  3 29  2  0
  5  6  2  0
  7 24  2  0
  8  9  1  0
 10 11  1  0
 12 13  1  0
 15 31  2  0
 16 17  2  0
 18 26  2  0
 19 20  2  0
 21 28  2  0
M  END
>  <rmsd>  (97) 
0.216191873

$$$$
MolPort-046-932-000 142864033 CHEMBL3357014 MCULE-4179892381 MCULE-5655925433 ZINC000142864033
     RDKit          3D

 31 34  0  0  0  0  0  0  0  0999 V2000
   18.6350   41.7897   10.5174 C   0  0  0  0  0  0  0  0  0  0  0  0
   17.3393   41.7344    9.7819 C   0  0  0  0  0  0  0  0  0  0  0  0
   16.2788   40.8517   10.1596 C   0  0  0  0  0  0  0  0  0  0  0  0
   15.0644   40.8299    9.4292 C   0  0  0  0  0  0  0  0  0  0  0  0
   13.9236   39.9261    9.7957 C   0  0  2  0  0  0  0  0  0  0  0  0
   13.4709   37.9808   10.7793 C   0  0  0  0  0  0  0  0  0  0  0  0
   13.0472   39.0122   11.7988 C   0  0  0  0  0  0  0  0  0  0  0  0
   13.3143   40.3224   11.1225 C   0  0  0  0  0  0  0  0  0  0  0  0
   14.9468   41.6979    8.3452 C   0  0  0  0  0  0  0  0  0  0  0  0
   15.9500   42.5392    7.9844 C   0  0  0  0  0  0  0  0  0  0  0  0
   17.1557   42.5893    8.6707 C   0  0  0  0  0  0  0  0  0  0  0  0
   14.3326   42.8141    6.6710 C   0  0  0  0  0  0  0  0  0  0  0  0
   13.8956   44.3232    4.6733 C   0  0  0  0  0  0  0  0  0  0  0  0
   13.2855   45.7254    2.6545 C   0  0  0  0  0  0  0  0  0  0  0  0
   14.2634   45.1762    1.6324 C   0  0  0  0  0  0  0  0  0  0  0  0
   19.6387   42.6884   10.1316 C   0  0  0  0  0  0  0  0  0  0  0  0
   21.0566   41.9207   11.8644 C   0  0  0  0  0  0  0  0  0  0  0  0
   18.9105   40.9557   11.6071 C   0  0  0  0  0  0  0  0  0  0  0  0
   22.3815   41.9761   12.5750 C   0  0  0  0  0  0  0  0  0  0  0  0
   22.6969   43.4045   12.9816 C   0  0  0  0  0  0  0  0  0  0  0  0
   23.4748   41.4710   11.6533 C   0  0  0  0  0  0  0  0  0  0  0  0
   14.3454   38.5899    9.8679 O   0  0  0  0  0  0  0  0  0  0  0  0
   15.0231   44.8825    4.7558 O   0  0  0  0  0  0  0  0  0  0  0  0
   22.3543   41.1795   13.7222 O   0  0  0  0  0  0  0  0  0  0  0  0
   15.5901   43.2668    6.9181 N   0  0  0  0  0  0  0  0  0  0  0  0
   13.5154   43.3026    5.6021 N   0  0  0  0  0  0  0  0  0  0  0  0
   12.9765   44.7079    3.6490 N   0  0  0  0  0  0  0  0  0  0  0  0
   13.8975   41.8509    7.5222 N   0  0  0  0  0  0  0  0  0  0  0  0
   20.8184   42.7364   10.8016 N   0  0  0  0  0  0  0  0  0  0  0  0
   20.1023   41.0321   12.2529 N   0  0  0  0  0  0  0  0  0  0  0  0
   16.4120   40.0224   11.2266 F   0  0  0  0  0  0  0  0  0  0  0  0
  1  2  1  0
  3  4  2  0
  3 31  1  0
  5  4  1  1
  5 22  1  0
  6 22  1  0
  6  7  1  0
  7  8  1  0
  8  5  1  0
  9 10  2  0
 10 25  1  0
 11  2  2  0
 12 26  1  0
 12 28  1  0
 13 27  1  0
 14 27  1  0
 14 15  1  0
 16 29  2  0
 17 30  2  0
 18  1  2  0
 19 17  1  0
 19 24  1  0
 19 20  1  0
 19 21  1  0
 26 13  1  0
 28  9  1  0
  1 16  1  0
  2  3  1  0
  4  9  1  0
 10 11  1  0
 12 25  2  0
 13 23  2  0
 17 29  1  0
 18 30  1  0
M  END
>  <rmsd>  (98) 
0.204110086

$$$$
MolPort-016-633-464 5592833 MCULE-8029622606 PubChem-6117359 ZINC000005592833
     RDKit          3D

 25 27  0  0  0  0  0  0  0  0999 V2000
   13.3506   38.6478   11.2705 C   0  0  0  0  0  0  0  0  0  0  0  0
   13.4984   40.1234   11.5938 C   0  0  0  0  0  0  0  0  0  0  0  0
   14.8381   40.8519    9.6437 C   0  0  0  0  0  0  0  0  0  0  0  0
   14.9271   41.6235    8.3915 C   0  0  0  0  0  0  0  0  0  0  0  0
   13.9176   42.3599    7.7677 C   0  0  0  0  0  0  0  0  0  0  0  0
   12.5338   42.5692    8.2859 C   0  0  0  0  0  0  0  0  0  0  0  0
   13.9266   44.3208    4.6457 C   0  0  0  0  0  0  0  0  0  0  0  0
   15.5811   42.2858    6.3900 C   0  0  0  0  0  0  0  0  0  0  0  0
   15.9787   41.6173    7.4895 C   0  0  0  0  0  0  0  0  0  0  0  0
   17.0370   40.6089    7.2157 C   0  0  0  0  0  0  0  0  0  0  0  0
   17.2553   40.7310    5.6901 C   0  0  0  0  0  0  0  0  0  0  0  0
   16.2675   41.7685    5.2231 C   0  0  0  0  0  0  0  0  0  0  0  0
   15.9988   42.1124    3.9594 C   0  0  0  0  0  0  0  0  0  0  0  0
   16.6416   41.5906    2.7387 C   0  0  0  0  0  0  0  0  0  0  0  0
   17.6749   40.6412    2.7691 C   0  0  0  0  0  0  0  0  0  0  0  0
   18.2506   40.1830    1.5804 C   0  0  0  0  0  0  0  0  0  0  0  0
   17.7977   40.6712    0.3522 C   0  0  0  0  0  0  0  0  0  0  0  0
   16.7702   41.6173    0.3136 C   0  0  0  0  0  0  0  0  0  0  0  0
   16.1956   42.0744    1.5034 C   0  0  0  0  0  0  0  0  0  0  0  0
   13.6617   40.8786   10.3992 O   0  0  0  0  0  0  0  0  0  0  0  0
   15.8307   40.1794   10.0360 O   0  0  0  0  0  0  0  0  0  0  0  0
   15.0358   44.8939    4.8106 O   0  0  0  0  0  0  0  0  0  0  0  0
   14.3252   42.7558    6.5406 N   0  0  0  0  0  0  0  0  0  0  0  0
   13.4907   43.3049    5.5515 N   0  0  0  0  0  0  0  0  0  0  0  0
   13.0846   44.7119    3.5686 N   0  0  0  0  0  0  0  0  0  0  0  0
  1  2  1  0
  2 20  1  0
  3 20  1  0
  3  4  1  0
  5 23  1  0
  6  5  1  0
  7 25  1  0
  9  4  1  0
 10  9  1  0
 10 11  1  0
 11 12  1  0
 12  8  1  0
 13 14  1  0
 15 16  2  0
 17 18  2  0
 19 14  2  0
 23 24  1  0
 23  8  1  0
 24  7  1  0
  3 21  2  0
  4  5  2  0
  7 22  2  0
  8  9  2  0
 12 13  2  0
 14 15  1  0
 16 17  1  0
 18 19  1  0
M  END
>  <rmsd>  (99) 
0.199083373

$$$$
MolPort-038-935-636 MCULE-3364464604 MCULE-5536987923 PubChem-160976054 PubChem-160976055 PubChem-45480521 PubChem-87361682 ZINC000116862995
     RDKit          3D

 34 39  0  0  0  0  0  0  0  0999 V2000
   18.8212   38.7858    9.5658 C   0  0  0  0  0  0  0  0  0  0  0  0
   17.8999   39.9069    9.1436 C   0  0  0  0  0  0  0  0  0  0  0  0
   16.5056   38.1955    9.9087 C   0  0  0  0  0  0  0  0  0  0  0  0
   17.9238   37.7231   10.1530 C   0  0  1  0  0  0  0  0  0  0  0  0
   15.5017   40.2965    9.3699 C   0  0  1  0  0  0  0  0  0  0  0  0
   15.6276   40.9408   10.7376 C   0  0  0  0  0  0  0  0  0  0  0  0
   16.6025   41.9225   10.9807 C   0  0  0  0  0  0  0  0  0  0  0  0
   16.7087   42.5244   12.2370 C   0  0  0  0  0  0  0  0  0  0  0  0
   15.8340   42.1573   13.2618 C   0  0  0  0  0  0  0  0  0  0  0  0
   14.8519   41.1909   13.0289 C   0  0  0  0  0  0  0  0  0  0  0  0
   14.7418   40.5830   11.7735 C   0  0  0  0  0  0  0  0  0  0  0  0
   15.2131   41.2737    8.2712 C   0  0  0  0  0  0  0  0  0  0  0  0
   16.1014   42.2023    7.7362 C   0  0  0  0  0  0  0  0  0  0  0  0
   14.2759   42.6633    6.5108 C   0  0  0  0  0  0  0  0  0  0  0  0
   13.8947   44.4018    4.7026 C   0  0  0  0  0  0  0  0  0  0  0  0
   12.9774   44.9398    3.6550 C   0  0  0  0  0  0  0  0  0  0  0  0
   11.5919   45.3418    4.1208 C   0  0  0  0  0  0  0  0  0  0  0  0
   12.6284   46.4080    3.7974 C   0  0  0  0  0  0  0  0  0  0  0  0
   13.0896   44.4373    2.2488 C   0  0  0  0  0  0  0  0  0  0  0  0
   12.3046   43.3444    1.8246 C   0  0  0  0  0  0  0  0  0  0  0  0
   12.4761   42.8935    0.5174 C   0  0  0  0  0  0  0  0  0  0  0  0
   13.3688   43.4643   -0.3310 C   0  0  0  0  0  0  0  0  0  0  0  0
   14.1714   44.5359    0.0503 C   0  0  0  0  0  0  0  0  0  0  0  0
   14.0266   45.0211    1.3627 C   0  0  0  0  0  0  0  0  0  0  0  0
   12.3381   41.7776   -1.4669 C   0  0  0  0  0  0  0  0  0  0  0  0
   16.5611   39.3383    9.0051 N   0  0  0  0  0  0  0  0  0  0  0  0
   15.5696   42.9732    6.7509 N   0  0  0  0  0  0  0  0  0  0  0  0
   13.4670   43.3090    5.5238 N   0  0  0  0  0  0  0  0  0  0  0  0
   18.1350   36.5198    9.4828 O   0  0  0  0  0  0  0  0  0  0  0  0
   15.0503   44.8919    4.8265 O   0  0  0  0  0  0  0  0  0  0  0  0
   13.3220   42.8193   -1.5513 O   0  0  0  0  0  0  0  0  0  0  0  0
   11.8239   41.8612   -0.1296 O   0  0  0  0  0  0  0  0  0  0  0  0
   13.4992   39.3641   11.5391 Cl  0  0  0  0  0  0  0  0  0  0  0  0
   13.7270   41.4223    7.4986 S   0  0  0  0  0  0  0  0  0  0  0  0
  1  2  1  0
  2 26  1  0
  3 26  1  0
  3  4  1  0
  4 29  1  6
  4  1  1  0
  5 26  1  6
  5  6  1  0
  5 12  1  0
  7  8  2  0
  9 10  2  0
 11 33  1  0
 11  6  2  0
 12 34  1  0
 13 27  1  0
 14 34  1  0
 14 28  1  0
 16 15  1  0
 16 17  1  0
 16 19  1  0
 17 18  1  0
 18 16  1  0
 20 21  2  0
 21 32  1  0
 22 23  2  0
 22 31  1  0
 24 19  2  0
 25 31  1  0
 25 32  1  0
 28 15  1  0
  6  7  1  0
  8  9  1  0
 10 11  1  0
 12 13  2  0
 14 27  2  0
 15 30  2  0
 19 20  1  0
 21 22  1  0
 23 24  1  0
M  END
>  <rmsd>  (100) 
0.248958722

$$$$
Molport-051-860-976
     RDKit          3D

 22 23  0  0  0  0  0  0  0  0999 V2000
   13.1493   45.8458    2.8980 C   0  0  0  0  0  0  0  0  0  0  0  0
   13.8595   44.3588    4.7252 C   0  0  0  0  0  0  0  0  0  0  0  0
   14.4184   42.7433    6.6064 C   0  0  0  0  0  0  0  0  0  0  0  0
   15.1355   41.5296    8.1649 C   0  0  0  0  0  0  0  0  0  0  0  0
   15.3171   40.5960    9.1810 C   0  0  0  0  0  0  0  0  0  0  0  0
   16.5679   40.5723    9.8269 C   0  0  0  0  0  0  0  0  0  0  0  0
   16.3123   40.3969   12.5437 C   0  0  0  0  0  0  0  0  0  0  0  0
   16.6202   39.6531   13.8312 C   0  0  0  0  0  0  0  0  0  0  0  0
   17.0816   41.7040   12.5909 C   0  0  0  0  0  0  0  0  0  0  0  0
   14.8130   40.7150   12.4550 C   0  0  0  0  0  0  0  0  0  0  0  0
   13.9227   39.5046   12.4259 C   0  0  0  0  0  0  0  0  0  0  0  0
   13.1062   39.2134   11.2151 C   0  0  0  0  0  0  0  0  0  0  0  0
   17.5943   41.4582    9.4244 C   0  0  0  0  0  0  0  0  0  0  0  0
   17.3756   42.3883    8.3915 C   0  0  0  0  0  0  0  0  0  0  0  0
   16.1211   42.3898    7.7879 C   0  0  0  0  0  0  0  0  0  0  0  0
   12.8936   44.7959    3.8187 O   0  0  0  0  0  0  0  0  0  0  0  0
   15.0015   44.8950    4.7483 O   0  0  0  0  0  0  0  0  0  0  0  0
   13.8271   38.7823   13.4047 O   0  0  0  0  0  0  0  0  0  0  0  0
   13.5336   43.2951    5.6255 N   0  0  0  0  0  0  0  0  0  0  0  0
   14.0349   41.7314    7.4271 N   0  0  0  0  0  0  0  0  0  0  0  0
   15.6933   43.1788    6.7930 N   0  0  0  0  0  0  0  0  0  0  0  0
   16.8830   39.3740   11.1277 S   0  0  0  0  0  0  0  0  0  0  0  0
  1 16  1  0
  2 16  1  0
  2 19  1  0
  4 20  1  0
  5  6  2  0
  6 22  1  0
  7 22  1  0
  7  8  1  0
  7  9  1  0
  7 10  1  0
 10 11  1  0
 12 11  1  0
 13 14  2  0
 15 21  1  0
 15  4  2  0
 19  3  1  0
 21  3  1  0
  2 17  2  0
  3 20  2  0
  4  5  1  0
  6 13  1  0
 11 18  2  0
 14 15  1  0
M  END
>  <rmsd>  (101) 
0.248585761

$$$$
MolPort-002-799-218 MCULE-6031247094 PubChem-135401448
     RDKit          3D

 27 29  0  0  0  0  0  0  0  0999 V2000
   12.7187   43.6464    2.6003 C   0  0  0  0  0  0  0  0  0  0  0  0
   13.0250   44.7990    3.5369 C   0  0  0  0  0  0  0  0  0  0  0  0
   11.7338   45.3692    4.0908 C   0  0  0  0  0  0  0  0  0  0  0  0
   13.9151   44.3476    4.6467 C   0  0  0  0  0  0  0  0  0  0  0  0
   14.2268   42.7965    6.6483 C   0  0  0  0  0  0  0  0  0  0  0  0
   14.3598   41.2938    8.4686 C   0  0  0  0  0  0  0  0  0  0  0  0
   15.6480   41.7477    8.7862 C   0  0  0  0  0  0  0  0  0  0  0  0
   15.5297   40.4777   10.9608 C   0  0  2  0  0  0  0  0  0  0  0  0
   16.3927   39.6259   11.8925 C   0  0  0  0  0  0  0  0  0  0  0  0
   14.4636   39.5794   10.3177 C   0  0  1  0  0  0  0  0  0  0  0  0
   13.4642   39.1033   11.3571 C   0  0  0  0  0  0  0  0  0  0  0  0
   17.7491   41.3657   10.1118 C   0  0  0  0  0  0  0  0  0  0  0  0
   18.2717   42.1778   11.2293 C   0  0  0  0  0  0  0  0  0  0  0  0
   19.6498   42.2603   11.4668 C   0  0  0  0  0  0  0  0  0  0  0  0
   19.2935   43.7176   13.3070 C   0  0  0  0  0  0  0  0  0  0  0  0
   17.9132   43.6695   13.1055 C   0  0  0  0  0  0  0  0  0  0  0  0
   17.4044   42.8971   12.0607 C   0  0  0  0  0  0  0  0  0  0  0  0
   16.1857   42.7815    7.9841 C   0  0  0  0  0  0  0  0  0  0  0  0
   15.0481   44.8824    4.7771 O   0  0  0  0  0  0  0  0  0  0  0  0
   18.5488   40.8430    9.2885 O   0  0  0  0  0  0  0  0  0  0  0  0
   17.3151   43.2818    8.2259 O   0  0  0  0  0  0  0  0  0  0  0  0
   13.4770   43.3190    5.5459 N   0  0  0  0  0  0  0  0  0  0  0  0
   13.6826   41.8217    7.4178 N   0  0  0  0  0  0  0  0  0  0  0  0
   16.3322   41.1764    9.9311 N   0  0  0  0  0  0  0  0  0  0  0  0
   13.7458   40.2798    9.2612 N   0  0  0  0  0  0  0  0  0  0  0  0
   20.1266   43.0189   12.4903 N   0  0  0  0  0  0  0  0  0  0  0  0
   15.4669   43.2684    6.9400 N   0  0  0  0  0  0  0  0  0  0  0  0
  1  2  1  0
  2  3  1  0
  2  4  1  0
  4 22  1  0
  6 23  1  0
  7 24  1  0
  7 18  1  0
  8 24  1  0
  8  9  1  6
  8 10  1  0
 10 11  1  1
 10 25  1  0
 12 13  1  0
 14 26  2  0
 15 16  2  0
 17 13  2  0
 18 27  1  0
 22  5  1  0
 24 12  1  0
 25  6  1  0
 27  5  1  0
  4 19  2  0
  5 23  2  0
  6  7  2  0
 12 20  2  0
 13 14  1  0
 15 26  1  0
 16 17  1  0
 18 21  2  0
M  END
>  <rmsd>  (102) 
0.247036457

$$$$
Molport-053-262-039
     RDKit          3D

 29 32  0  0  0  0  0  0  0  0999 V2000
    9.7413   45.6520    2.1704 C   0  0  0  0  0  0  0  0  0  0  0  0
   11.5681   44.8331    3.6592 C   0  0  0  0  0  0  0  0  0  0  0  0
   12.9156   45.0928    3.8149 C   0  0  0  0  0  0  0  0  0  0  0  0
   13.2001   46.0887    2.8967 C   0  0  0  0  0  0  0  0  0  0  0  0
   13.8650   44.4500    4.7406 C   0  0  0  0  0  0  0  0  0  0  0  0
   14.2643   42.7729    6.5983 C   0  0  0  0  0  0  0  0  0  0  0  0
   15.0093   43.6038    7.4527 C   0  0  0  0  0  0  0  0  0  0  0  0
   15.7753   43.0505    8.4811 C   0  0  0  0  0  0  0  0  0  0  0  0
   15.7913   41.6680    8.6791 C   0  0  0  0  0  0  0  0  0  0  0  0
   15.0197   40.8258    7.8623 C   0  0  0  0  0  0  0  0  0  0  0  0
   14.2622   41.3872    6.8207 C   0  0  0  0  0  0  0  0  0  0  0  0
   15.0211   39.3612    8.0726 C   0  0  0  0  0  0  0  0  0  0  0  0
   15.9144   37.5487    9.5774 C   0  0  0  0  0  0  0  0  0  0  0  0
   16.3180   37.3389   11.0735 C   0  0  0  0  0  0  0  0  0  0  0  0
   14.1699   38.2110   11.5166 C   0  0  1  0  0  0  0  0  0  0  0  0
   13.2243   38.8298   12.5287 C   0  0  0  0  0  0  0  0  0  0  0  0
   12.3997   39.8494   11.7081 C   0  0  2  0  0  0  0  0  0  0  0  0
   10.9279   39.4329   11.5505 C   0  0  0  0  0  0  0  0  0  0  0  0
   13.1025   39.9688   10.3373 C   0  0  0  0  0  0  0  0  0  0  0  0
   14.4738   39.3478   10.5667 C   0  0  2  0  0  0  0  0  0  0  0  0
   11.1000   45.6491    2.6965 N   0  0  0  0  0  0  0  0  0  0  0  0
   12.0781   46.4021    2.2187 N   0  0  0  0  0  0  0  0  0  0  0  0
   13.4666   43.3185    5.5338 N   0  0  0  0  0  0  0  0  0  0  0  0
   15.1412   38.7860    9.3881 N   0  0  0  0  0  0  0  0  0  0  0  0
   15.0490   44.8796    4.7981 O   0  0  0  0  0  0  0  0  0  0  0  0
   14.9138   38.5973    7.0741 O   0  0  0  0  0  0  0  0  0  0  0  0
   15.3578   37.6969   12.0762 O   0  0  0  0  0  0  0  0  0  0  0  0
   10.2588   39.5243   12.7813 O   0  0  0  0  0  0  0  0  0  0  0  0
   16.5058   43.8576    9.2899 F   0  0  0  0  0  0  0  0  0  0  0  0
  1 21  1  0
  3  4  1  0
  3  5  1  0
  5 23  1  0
  7  8  2  0
  8 29  1  0
  9 10  2  0
 10 12  1  0
 11  6  2  0
 12 24  1  0
 13 24  1  0
 13 14  1  0
 14 27  1  0
 15 27  1  0
 15 16  1  1
 16 17  1  0
 17 18  1  6
 17 19  1  0
 18 28  1  0
 20 19  1  6
 20 24  1  0
 20 15  1  0
 21  2  1  0
 21 22  1  0
 23  6  1  0
  2  3  2  0
  4 22  2  0
  5 25  2  0
  6  7  1  0
  8  9  1  0
 10 11  1  0
 12 26  2  0
M  END
>  <rmsd>  (103) 
0.246383205

$$$$
Molport-053-239-364
     RDKit          3D

 31 33  0  0  0  0  0  0  0  0999 V2000
   10.6576   36.5550   13.5624 C   0  0  0  0  0  0  0  0  0  0  0  0
   10.4057   38.0644   13.4661 C   0  0  0  0  0  0  0  0  0  0  0  0
    9.2793   38.4888   14.4145 C   0  0  0  0  0  0  0  0  0  0  0  0
   10.0696   38.4596   12.0466 C   0  0  0  0  0  0  0  0  0  0  0  0
   10.1401   40.4297   10.5040 C   0  0  0  0  0  0  0  0  0  0  0  0
   12.2772   39.3942   11.3205 C   0  0  0  0  0  0  0  0  0  0  0  0
   14.3259   38.5077   11.5957 C   0  0  0  0  0  0  0  0  0  0  0  0
   14.6902   39.7005   10.9754 C   0  0  0  0  0  0  0  0  0  0  0  0
   16.0744   40.1543   10.7292 C   0  0  0  0  0  0  0  0  0  0  0  0
   17.1681   39.7935   11.4929 C   0  0  0  0  0  0  0  0  0  0  0  0
   18.2045   40.5527   10.9853 C   0  0  0  0  0  0  0  0  0  0  0  0
   15.7045   41.6325    8.7359 C   0  0  0  0  0  0  0  0  0  0  0  0
   14.9401   40.8162    7.8883 C   0  0  0  0  0  0  0  0  0  0  0  0
   14.2077   41.3793    6.8398 C   0  0  0  0  0  0  0  0  0  0  0  0
   14.2542   42.7603    6.6002 C   0  0  0  0  0  0  0  0  0  0  0  0
   13.8632   44.4525    4.7497 C   0  0  0  0  0  0  0  0  0  0  0  0
   12.8835   45.0886    3.8498 C   0  0  0  0  0  0  0  0  0  0  0  0
   13.1922   46.1264    3.0734 C   0  0  0  0  0  0  0  0  0  0  0  0
   15.0272   43.5761    7.4459 C   0  0  0  0  0  0  0  0  0  0  0  0
   15.7573   43.0125    8.4967 C   0  0  0  0  0  0  0  0  0  0  0  0
   19.6271   40.5024   11.4356 C   0  0  0  0  0  0  0  0  0  0  0  0
    9.0605   37.9505   11.4860 O   0  0  0  0  0  0  0  0  0  0  0  0
   15.0498   44.8795    4.8007 O   0  0  0  0  0  0  0  0  0  0  0  0
   10.8375   39.4580   11.3505 N   0  0  0  0  0  0  0  0  0  0  0  0
   12.9886   38.3365   11.7710 N   0  0  0  0  0  0  0  0  0  0  0  0
   17.7671   41.3021    9.9551 N   0  0  0  0  0  0  0  0  0  0  0  0
   16.4739   41.0608    9.8044 N   0  0  0  0  0  0  0  0  0  0  0  0
   13.4667   43.3178    5.5341 N   0  0  0  0  0  0  0  0  0  0  0  0
   13.2854   40.5801   10.6744 S   0  0  0  0  0  0  0  0  0  0  0  0
   20.3342   39.6297   10.6302 F   0  0  0  0  0  0  0  0  0  0  0  0
   20.1920   41.7621   11.3519 F   0  0  0  0  0  0  0  0  0  0  0  0
  1  2  1  0
  2  3  1  0
  2  4  1  0
  4 24  1  0
  5 24  1  0
  6 29  1  0
  7 25  1  0
  8 29  1  0
  8  9  1  0
 10 11  1  0
 13 14  2  0
 15 28  1  0
 15 19  2  0
 16 17  1  0
 20 12  2  0
 21 11  1  0
 21 30  1  0
 21 31  1  0
 24  6  1  0
 27 26  1  0
 27 12  1  0
 27  9  1  0
 28 16  1  0
  4 22  2  0
  6 25  2  0
  7  8  2  0
  9 10  2  0
 11 26  2  0
 12 13  1  0
 14 15  1  0
 16 23  2  0
 17 18  2  0
 19 20  1  0
M  END
>  <rmsd>  (104) 
0.244989455

$$$$
MolPort-016-617-167 65451904 CSSS00159537219 MCULE-6098239325 PubChem-50972509 ZINC000065451904 ZINC65451904
     RDKit          3D

 23 24  0  0  0  0  0  0  0  0999 V2000
   12.9089   44.8112    3.6827 C   0  0  0  0  0  0  0  0  0  0  0  0
   13.8822   44.3479    4.7051 C   0  0  0  0  0  0  0  0  0  0  0  0
   14.3257   42.7409    6.6440 C   0  0  0  0  0  0  0  0  0  0  0  0
   13.8788   41.7174    7.4762 C   0  0  0  0  0  0  0  0  0  0  0  0
   16.2390   42.5028    7.9824 C   0  0  0  0  0  0  0  0  0  0  0  0
   15.6293   43.1807    6.9311 C   0  0  0  0  0  0  0  0  0  0  0  0
   12.5820   41.0067    7.3730 C   0  0  0  0  0  0  0  0  0  0  0  0
   12.4165   40.5725    9.8661 C   0  0  0  0  0  0  0  0  0  0  0  0
   13.0248   39.3318   10.4326 C   0  0  0  0  0  0  0  0  0  0  0  0
   13.5078   39.3350   11.6703 C   0  0  0  0  0  0  0  0  0  0  0  0
   10.8151   39.4644    8.3017 C   0  0  0  0  0  0  0  0  0  0  0  0
    9.5749   40.2593    8.0204 C   0  0  0  0  0  0  0  0  0  0  0  0
    8.8804   40.1245    6.8022 C   0  0  0  0  0  0  0  0  0  0  0  0
    9.3448   39.1882    5.7382 C   0  0  0  0  0  0  0  0  0  0  0  0
    7.7231   40.8766    6.5754 C   0  0  0  0  0  0  0  0  0  0  0  0
    7.2502   41.7556    7.5531 C   0  0  0  0  0  0  0  0  0  0  0  0
    7.9318   41.8843    8.7653 C   0  0  0  0  0  0  0  0  0  0  0  0
    9.0888   41.1366    8.9987 C   0  0  0  0  0  0  0  0  0  0  0  0
   15.0194   44.8856    4.7643 O   0  0  0  0  0  0  0  0  0  0  0  0
   11.9992   40.9878    6.2550 O   0  0  0  0  0  0  0  0  0  0  0  0
   13.5085   43.2975    5.6039 N   0  0  0  0  0  0  0  0  0  0  0  0
   11.9696   40.3403    8.4976 N   0  0  0  0  0  0  0  0  0  0  0  0
   15.1339   41.3624    8.5359 S   0  0  0  0  0  0  0  0  0  0  0  0
  1  2  1  0
  2 21  1  0
  4 23  1  0
  4  7  1  0
  5 23  1  0
  6  3  1  0
  7 22  1  0
  8 22  1  0
  8  9  1  0
 11 22  1  0
 11 12  1  0
 13 15  2  0
 14 13  1  0
 16 17  2  0
 18 12  2  0
 21  3  1  0
  2 19  2  0
  3  4  2  0
  5  6  2  0
  7 20  2  0
  9 10  2  0
 12 13  1  0
 15 16  1  0
 17 18  1  0
M  END
>  <rmsd>  (105) 
0.242088541

$$$$
MolPort-039-219-020 299764338 CSSS02125518311 MCULE-6889923365 PubChem-118772150 ZINC000299764338
     RDKit          3D

 23 25  0  0  0  0  0  0  0  0999 V2000
   13.2285   38.8894   11.7503 C   0  0  0  0  0  0  0  0  0  0  0  0
   13.6643   39.7511   10.5869 C   0  0  0  0  0  0  0  0  0  0  0  0
   14.6177   39.3917    8.2612 C   0  0  0  0  0  0  0  0  0  0  0  0
   14.7859   40.8342    8.0120 C   0  0  0  0  0  0  0  0  0  0  0  0
   14.0694   41.4180    6.9600 C   0  0  0  0  0  0  0  0  0  0  0  0
   14.2535   42.7612    6.6243 C   0  0  0  0  0  0  0  0  0  0  0  0
   13.8538   44.4564    4.7688 C   0  0  0  0  0  0  0  0  0  0  0  0
   11.4712   44.7783    3.9879 C   0  0  0  0  0  0  0  0  0  0  0  0
   10.8370   45.5623    2.8532 C   0  0  0  0  0  0  0  0  0  0  0  0
   11.9790   45.9697    1.9319 C   0  0  1  0  0  0  0  0  0  0  0  0
   11.8696   47.4296    1.5717 C   0  0  0  0  0  0  0  0  0  0  0  0
   13.5770   47.2835    3.1715 C   0  0  0  0  0  0  0  0  0  0  0  0
   13.2427   45.8610    2.7473 C   0  0  1  0  0  0  0  0  0  0  0  0
   15.1596   43.5370    7.3574 C   0  0  0  0  0  0  0  0  0  0  0  0
   15.8823   42.9649    8.4042 C   0  0  0  0  0  0  0  0  0  0  0  0
   15.7151   41.6147    8.7293 C   0  0  0  0  0  0  0  0  0  0  0  0
   14.1484   38.8952    9.5149 N   0  0  0  0  0  0  0  0  0  0  0  0
   13.4841   43.3162    5.5538 N   0  0  0  0  0  0  0  0  0  0  0  0
   12.8877   45.0675    3.9074 N   0  0  0  0  0  0  0  0  0  0  0  0
   12.6351   48.2025    2.5411 N   0  0  0  0  0  0  0  0  0  0  0  0
   14.8305   38.5773    7.3212 O   0  0  0  0  0  0  0  0  0  0  0  0
   15.0372   44.8812    4.7850 O   0  0  0  0  0  0  0  0  0  0  0  0
   16.7663   40.9247    9.9588 Cl  0  0  0  0  0  0  0  0  0  0  0  0
  1  2  1  0
  2 17  1  0
  3  4  1  0
  5  6  2  0
  6 18  1  0
  7 19  1  0
  8 19  1  0
  8  9  1  0
 10  9  1  1
 10 11  1  0
 11 20  1  0
 12 20  1  0
 13 12  1  1
 13 19  1  0
 13 10  1  0
 14 15  2  0
 16 23  1  0
 16  4  2  0
 17  3  1  0
 18  7  1  0
  3 21  2  0
  4  5  1  0
  6 14  1  0
  7 22  2  0
 15 16  1  0
M  END
>  <rmsd>  (106) 
0.241015613

$$$$
MolPort-045-901-900 CSSS00160240507 MCULE-5455986199 PubChem-13064304
     RDKit          3D

 25 27  0  0  0  0  0  0  0  0999 V2000
   13.1210   46.2368    3.2373 C   0  0  0  0  0  0  0  0  0  0  0  0
   13.8396   44.4709    4.7978 C   0  0  0  0  0  0  0  0  0  0  0  0
   14.3025   42.7045    6.5858 C   0  0  0  0  0  0  0  0  0  0  0  0
   13.9217   41.4566    7.0923 C   0  0  0  0  0  0  0  0  0  0  0  0
   14.6630   40.8474    8.1134 C   0  0  0  0  0  0  0  0  0  0  0  0
   15.7832   41.4959    8.6368 C   0  0  0  0  0  0  0  0  0  0  0  0
   16.5533   40.8407    9.7236 C   0  0  0  0  0  0  0  0  0  0  0  0
   15.7555   40.8797   11.0179 C   0  0  0  0  0  0  0  0  0  0  0  0
   14.4940   40.0498   11.0786 C   0  0  0  0  0  0  0  0  0  0  0  0
   13.9545   39.9013   12.3629 C   0  0  0  0  0  0  0  0  0  0  0  0
   12.8058   39.1396   12.5828 C   0  0  0  0  0  0  0  0  0  0  0  0
   12.1741   38.5121   11.5132 C   0  0  0  0  0  0  0  0  0  0  0  0
   12.6867   38.6559   10.2238 C   0  0  0  0  0  0  0  0  0  0  0  0
   13.8439   39.4161    9.9768 C   0  0  0  0  0  0  0  0  0  0  0  0
   14.3609   38.4034    7.7326 C   0  0  0  0  0  0  0  0  0  0  0  0
   14.8857   38.5268    6.3365 C   0  0  0  0  0  0  0  0  0  0  0  0
   16.3953   38.3914    6.3436 C   0  0  0  0  0  0  0  0  0  0  0  0
   16.1690   42.7450    8.1413 C   0  0  0  0  0  0  0  0  0  0  0  0
   15.4308   43.3473    7.1182 C   0  0  0  0  0  0  0  0  0  0  0  0
   12.8451   45.1054    4.0516 O   0  0  0  0  0  0  0  0  0  0  0  0
   15.0267   44.8973    4.7726 O   0  0  0  0  0  0  0  0  0  0  0  0
   14.0504   37.2579    8.1547 O   0  0  0  0  0  0  0  0  0  0  0  0
   13.4970   43.3121    5.5667 N   0  0  0  0  0  0  0  0  0  0  0  0
   14.2950   39.5522    8.6109 N   0  0  0  0  0  0  0  0  0  0  0  0
   17.0284   38.7848    4.7300 Cl  0  0  0  0  0  0  0  0  0  0  0  0
  1 20  1  0
  2 20  1  0
  2 23  1  0
  4  5  2  0
  6 18  2  0
  7  6  1  0
  7  8  1  0
  8  9  1  0
 10 11  2  0
 12 13  2  0
 14 24  1  0
 14  9  2  0
 16 15  1  0
 16 17  1  0
 17 25  1  0
 19  3  2  0
 23  3  1  0
 24 15  1  0
 24  5  1  0
  2 21  2  0
  3  4  1  0
  5  6  1  0
  9 10  1  0
 11 12  1  0
 13 14  1  0
 15 22  2  0
 18 19  1  0
M  END
>  <rmsd>  (107) 
0.239604384

$$$$
Molport-051-950-059 CSSS20538622895
     RDKit          3D

 27 30  0  0  0  0  0  0  0  0999 V2000
   17.2770   39.6928    1.2417 C   0  0  0  0  0  0  0  0  0  0  0  0
   16.5177   40.7327    1.9834 C   0  0  0  0  0  0  0  0  0  0  0  0
   15.2463   40.4431    2.4881 C   0  0  0  0  0  0  0  0  0  0  0  0
   14.5321   41.4213    3.1862 C   0  0  0  0  0  0  0  0  0  0  0  0
   15.0880   42.6906    3.3813 C   0  0  0  0  0  0  0  0  0  0  0  0
   16.3601   42.9789    2.8744 C   0  0  0  0  0  0  0  0  0  0  0  0
   17.0744   42.0007    2.1761 C   0  0  0  0  0  0  0  0  0  0  0  0
   14.1923   42.5612    6.6802 C   0  0  0  0  0  0  0  0  0  0  0  0
   14.7906   41.3865    8.3841 C   0  0  0  0  0  0  0  0  0  0  0  0
   13.4829   40.3264   10.0003 C   0  0  0  0  0  0  0  0  0  0  0  0
   13.3624   39.4619   11.2028 C   0  0  0  0  0  0  0  0  0  0  0  0
   12.4120   41.6462    8.3122 C   0  0  0  0  0  0  0  0  0  0  0  0
   13.6837   41.9084    7.7846 C   0  0  0  0  0  0  0  0  0  0  0  0
   11.1594   42.1944    7.7557 C   0  0  0  0  0  0  0  0  0  0  0  0
   11.0907   43.5118    7.2801 C   0  0  0  0  0  0  0  0  0  0  0  0
    9.8850   44.0303    6.7992 C   0  0  0  0  0  0  0  0  0  0  0  0
    8.7336   43.2390    6.8042 C   0  0  0  0  0  0  0  0  0  0  0  0
    8.7869   41.9322    7.2956 C   0  0  0  0  0  0  0  0  0  0  0  0
    9.9937   41.4148    7.7756 C   0  0  0  0  0  0  0  0  0  0  0  0
   14.1895   43.9114    4.2641 S   0  0  0  0  0  0  0  0  0  0  0  0
   13.1323   44.4911    3.3681 O   0  0  0  0  0  0  0  0  0  0  0  0
   15.1084   45.0115    4.7170 O   0  0  0  0  0  0  0  0  0  0  0  0
   13.4379   43.1958    5.6481 N   0  0  0  0  0  0  0  0  0  0  0  0
   15.5394   42.4259    6.6599 N   0  0  0  0  0  0  0  0  0  0  0  0
   15.9104   41.7026    7.7119 N   0  0  0  0  0  0  0  0  0  0  0  0
   14.7160   40.5982    9.4815 N   0  0  0  0  0  0  0  0  0  0  0  0
   12.3554   40.8425    9.4180 N   0  0  0  0  0  0  0  0  0  0  0  0
  1  2  1  0
  3  4  2  0
  5  6  2  0
  7  2  2  0
 10 26  2  0
 11 10  1  0
 12 27  2  0
 12 14  1  0
 13  8  1  0
 13  9  2  0
 15 16  2  0
 17 18  2  0
 19 14  2  0
 20  5  1  0
 20 23  1  0
 23  8  1  0
 25 24  1  0
 25  9  1  0
  2  3  1  0
  4  5  1  0
  6  7  1  0
  8 24  2  0
  9 26  1  0
 10 27  1  0
 12 13  1  0
 14 15  1  0
 16 17  1  0
 18 19  1  0
 20 21  2  0
 20 22  2  0
M  END
>  <rmsd>  (108) 
0.235077888

$$$$
MolPort-007-596-206 ChemDiv-C200-2110 MCULE-7309398312 PubChem-6621343 ZINC000004878216
     RDKit          3D

 30 33  0  0  0  0  0  0  0  0999 V2000
   14.2619   42.7725    6.5764 N   0  0  0  0  0  0  0  0  0  0  0  0
   13.4715   43.3138    5.5425 N   0  0  0  0  0  0  0  0  0  0  0  0
   14.4445   42.1443    8.8780 N   0  0  0  0  0  0  0  0  0  0  0  0
   13.9449   44.2896    4.6048 C   0  0  0  0  0  0  0  0  0  0  0  0
   13.1275   44.6383    3.4300 C   0  0  0  0  0  0  0  0  0  0  0  0
   13.5731   45.6050    2.5161 C   0  0  0  0  0  0  0  0  0  0  0  0
   12.7972   45.9341    1.4007 C   0  0  0  0  0  0  0  0  0  0  0  0
   11.5704   45.2988    1.1909 C   0  0  0  0  0  0  0  0  0  0  0  0
   11.1193   44.3344    2.0960 C   0  0  0  0  0  0  0  0  0  0  0  0
   11.8953   44.0053    3.2113 C   0  0  0  0  0  0  0  0  0  0  0  0
   15.5152   42.2767    6.3219 C   0  0  0  0  0  0  0  0  0  0  0  0
   16.2487   41.7593    7.3760 C   0  0  0  0  0  0  0  0  0  0  0  0
   17.8247   40.7820    9.0502 C   0  0  0  0  0  0  0  0  0  0  0  0
   16.5943   41.1628    9.5928 C   0  0  0  0  0  0  0  0  0  0  0  0
   15.7171   41.7057    8.6413 C   0  0  0  0  0  0  0  0  0  0  0  0
   13.8515   42.0935   10.2209 C   0  0  0  0  0  0  0  0  0  0  0  0
   13.6623   40.6781   10.7125 C   0  0  0  0  0  0  0  0  0  0  0  0
   14.3530   40.2451   11.8653 C   0  0  0  0  0  0  0  0  0  0  0  0
   15.2564   41.1571   12.6260 C   0  0  0  0  0  0  0  0  0  0  0  0
   14.1934   38.9369   12.3291 C   0  0  0  0  0  0  0  0  0  0  0  0
   13.3436   38.0523   11.6663 C   0  0  0  0  0  0  0  0  0  0  0  0
   12.6360   38.4768   10.5423 C   0  0  0  0  0  0  0  0  0  0  0  0
   12.7831   39.7814   10.0632 C   0  0  0  0  0  0  0  0  0  0  0  0
   11.9761   40.1819    8.8763 C   0  0  0  0  0  0  0  0  0  0  0  0
   13.1811   36.6624   12.1659 C   0  0  0  0  0  0  0  0  0  0  0  0
   13.7264   42.6937    7.8408 C   0  0  0  0  0  0  0  0  0  0  0  0
   15.0442   44.8753    4.8041 O   0  0  0  0  0  0  0  0  0  0  0  0
   15.9908   42.2675    5.1541 O   0  0  0  0  0  0  0  0  0  0  0  0
   12.5644   43.1429    8.0506 O   0  0  0  0  0  0  0  0  0  0  0  0
   17.7998   41.1296    7.3940 S   0  0  0  0  0  0  0  0  0  0  0  0
  1  2  1  0
  1 11  1  0
  2  4  1  0
  3 26  1  0
  4  5  1  0
  6  7  2  0
  8  9  2  0
 10  5  2  0
 11 12  1  0
 12 30  1  0
 13 30  1  0
 14 15  1  0
 15  3  1  0
 16  3  1  0
 16 17  1  0
 18 20  2  0
 19 18  1  0
 21 22  2  0
 23 17  2  0
 24 23  1  0
 25 21  1  0
 26  1  1  0
  4 27  2  0
  5  6  1  0
  7  8  1  0
  9 10  1  0
 11 28  2  0
 13 14  2  0
 15 12  2  0
 17 18  1  0
 20 21  1  0
 22 23  1  0
 26 29  2  0
M  END
>  <rmsd>  (109) 
0.232336268

$$$$
MolPort-039-343-150 CSSS00132746343 MCULE-7163240322 PubChem-43819310
     RDKit          3D

 32 36  0  0  0  0  0  0  0  0999 V2000
   13.7829   41.6759    7.4096 C   0  0  0  0  0  0  0  0  0  0  0  0
   14.1796   42.7636    6.6281 C   0  0  0  0  0  0  0  0  0  0  0  0
   13.9221   44.3634    4.6540 C   0  0  0  0  0  0  0  0  0  0  0  0
   13.3971   45.7215    2.5365 C   0  0  0  0  0  0  0  0  0  0  0  0
   14.6853   46.2673    2.4144 C   0  0  0  0  0  0  0  0  0  0  0  0
   14.9982   47.1298    1.3596 C   0  0  0  0  0  0  0  0  0  0  0  0
   14.0225   47.4550    0.4138 C   0  0  0  0  0  0  0  0  0  0  0  0
   12.7356   46.9235    0.5281 C   0  0  0  0  0  0  0  0  0  0  0  0
   12.4192   46.0593    1.5831 C   0  0  0  0  0  0  0  0  0  0  0  0
   12.5143   40.9410    7.2235 C   0  0  0  0  0  0  0  0  0  0  0  0
   10.9850   39.0764    7.9087 C   0  0  0  0  0  0  0  0  0  0  0  0
   10.9243   38.0352    9.0348 C   0  0  1  0  0  0  0  0  0  0  0  0
   12.0363   37.0043    8.8861 C   0  0  0  0  0  0  0  0  0  0  0  0
   13.3740   37.7295    8.9429 C   0  0  1  0  0  0  0  0  0  0  0  0
   13.4665   38.6821    7.7484 C   0  0  0  0  0  0  0  0  0  0  0  0
   13.4896   38.5103   10.2233 C   0  0  0  0  0  0  0  0  0  0  0  0
   12.5235   39.8037   11.9756 C   0  0  0  0  0  0  0  0  0  0  0  0
   13.7930   40.0923   12.4804 C   0  0  0  0  0  0  0  0  0  0  0  0
   14.9197   39.5830   11.8417 C   0  0  0  0  0  0  0  0  0  0  0  0
   14.7703   38.7920   10.7069 C   0  0  0  0  0  0  0  0  0  0  0  0
   11.0066   38.6952   10.4159 C   0  0  0  0  0  0  0  0  0  0  0  0
   14.6824   41.3347    8.3851 N   0  0  0  0  0  0  0  0  0  0  0  0
   15.7810   42.0864    8.4257 N   0  0  0  0  0  0  0  0  0  0  0  0
   13.4626   43.3184    5.5178 N   0  0  0  0  0  0  0  0  0  0  0  0
   13.0644   44.8055    3.5951 N   0  0  0  0  0  0  0  0  0  0  0  0
   12.3397   39.6164    7.7529 N   0  0  0  0  0  0  0  0  0  0  0  0
   12.3778   39.0262   10.8546 N   0  0  0  0  0  0  0  0  0  0  0  0
   15.6701   43.2258    7.2222 S   0  0  0  0  0  0  0  0  0  0  0  0
   15.0621   44.8777    4.8159 O   0  0  0  0  0  0  0  0  0  0  0  0
   11.5654   41.4940    6.6016 O   0  0  0  0  0  0  0  0  0  0  0  0
   11.5137   40.2668   12.5757 O   0  0  0  0  0  0  0  0  0  0  0  0
   10.7912   45.4076    1.6843 Cl  0  0  0  0  0  0  0  0  0  0  0  0
  1 22  1  0
  1 10  1  0
  2 28  1  0
  2 24  1  0
  3 25  1  0
  5  6  2  0
  7  8  2  0
  9 32  1  0
  9  4  2  0
 10 26  1  0
 11 26  1  0
 12 11  1  6
 12 13  1  0
 13 14  1  0
 14 15  1  6
 14 16  1  0
 15 26  1  0
 16 27  1  0
 17 18  1  0
 19 20  1  0
 21 27  1  0
 21 12  1  0
 23 28  1  0
 24  3  1  0
 25  4  1  0
 27 17  1  0
  2  1  2  0
  3 29  2  0
  4  5  1  0
  6  7  1  0
  8  9  1  0
 10 30  2  0
 17 31  2  0
 18 19  2  0
 20 16  2  0
 22 23  2  0
M  END
>  <rmsd>  (110) 
0.228632405

$$$$
Molport-051-982-927 MCULE-8994215766
     RDKit          3D

 23 25  0  0  0  0  0  0  0  0999 V2000
   10.3669   49.2579    4.1664 C   0  0  0  0  0  0  0  0  0  0  0  0
   11.7599   49.4194    3.5779 C   0  0  0  0  0  0  0  0  0  0  0  0
   13.4642   48.3306    2.4696 C   0  0  0  0  0  0  0  0  0  0  0  0
   13.9322   46.9878    1.9115 C   0  0  0  0  0  0  0  0  0  0  0  0
   14.0753   45.9723    3.0014 C   0  0  0  0  0  0  0  0  0  0  0  0
   13.8625   44.3019    4.7071 C   0  0  0  0  0  0  0  0  0  0  0  0
   14.3272   42.7602    6.6648 C   0  0  0  0  0  0  0  0  0  0  0  0
   14.9120   41.4296    8.4767 C   0  0  0  0  0  0  0  0  0  0  0  0
   13.5986   39.7954    9.5387 C   0  0  0  0  0  0  0  0  0  0  0  0
   13.4776   38.7785   10.6440 C   0  0  0  0  0  0  0  0  0  0  0  0
   13.0061   39.4376   11.9362 C   0  0  0  0  0  0  0  0  0  0  0  0
   12.5249   40.0819    8.6404 C   0  0  0  0  0  0  0  0  0  0  0  0
   11.2167   39.3391    8.7075 C   0  0  0  0  0  0  0  0  0  0  0  0
   12.7072   41.0628    7.6398 C   0  0  0  0  0  0  0  0  0  0  0  0
   13.9260   41.7428    7.5695 C   0  0  0  0  0  0  0  0  0  0  0  0
   12.1737   48.1882    3.0264 O   0  0  0  0  0  0  0  0  0  0  0  0
   15.1730   45.8650    3.7832 N   0  0  0  0  0  0  0  0  0  0  0  0
   15.0577   44.9331    4.7276 N   0  0  0  0  0  0  0  0  0  0  0  0
   13.4774   43.2651    5.6195 N   0  0  0  0  0  0  0  0  0  0  0  0
   15.5938   43.2339    6.8566 N   0  0  0  0  0  0  0  0  0  0  0  0
   14.7701   40.4906    9.4385 N   0  0  0  0  0  0  0  0  0  0  0  0
   16.2228   42.3908    8.1519 S   0  0  0  0  0  0  0  0  0  0  0  0
   12.8702   44.8955    3.4831 S   0  0  0  0  0  0  0  0  0  0  0  0
  1  2  1  0
  2 16  1  0
  3 16  1  0
  3  4  1  0
  4  5  1  0
  5 23  1  0
  6 19  1  0
  6 23  1  0
  8 22  1  0
  9 21  2  0
 10  9  1  0
 10 11  1  0
 12 14  2  0
 13 12  1  0
 15  7  1  0
 15  8  2  0
 17 18  1  0
 19  7  1  0
 20 22  1  0
  5 17  2  0
  6 18  2  0
  7 20  2  0
  8 21  1  0
  9 12  1  0
 14 15  1  0
M  END
>  <rmsd>  (111) 
0.226901874

$$$$
MolPort-003-049-136 11758562 CSSS03437040344 MCULE-6217627162 PubChem-18554452 ZINC000011758562 ZINC11758562
     RDKit          3D

 28 31  0  0  0  0  0  0  0  0999 V2000
   16.7118   42.4743    9.1891 C   0  0  0  0  0  0  0  0  0  0  0  0
   15.5772   42.4053    8.2319 C   0  0  0  0  0  0  0  0  0  0  0  0
   15.3458   43.2919    7.1991 C   0  0  0  0  0  0  0  0  0  0  0  0
   14.1881   42.7687    6.6458 C   0  0  0  0  0  0  0  0  0  0  0  0
   13.8995   44.4031    4.7181 C   0  0  0  0  0  0  0  0  0  0  0  0
   12.9422   45.0069    3.7494 C   0  0  0  0  0  0  0  0  0  0  0  0
   11.4369   46.0170    5.6809 C   0  0  0  0  0  0  0  0  0  0  0  0
   11.9596   45.9267    6.9626 C   0  0  0  0  0  0  0  0  0  0  0  0
   11.5843   44.9566   10.3992 C   0  0  0  0  0  0  0  0  0  0  0  0
   12.0997   43.5747   10.6098 C   0  0  0  0  0  0  0  0  0  0  0  0
   11.3865   42.4760   10.1173 C   0  0  0  0  0  0  0  0  0  0  0  0
   11.8763   41.1808   10.3102 C   0  0  0  0  0  0  0  0  0  0  0  0
   13.0803   40.9835   10.9934 C   0  0  0  0  0  0  0  0  0  0  0  0
   13.7979   42.0813   11.4784 C   0  0  0  0  0  0  0  0  0  0  0  0
   13.3090   43.3766   11.2845 C   0  0  0  0  0  0  0  0  0  0  0  0
   11.2121   45.4243    7.9641 C   0  0  0  0  0  0  0  0  0  0  0  0
    9.4076   45.0852    6.5361 C   0  0  0  0  0  0  0  0  0  0  0  0
   13.4680   43.3084    5.5331 N   0  0  0  0  0  0  0  0  0  0  0  0
   13.1757   46.2486    7.4440 N   0  0  0  0  0  0  0  0  0  0  0  0
   13.1397   45.9325    8.7409 N   0  0  0  0  0  0  0  0  0  0  0  0
   11.9520   45.4354    9.0761 N   0  0  0  0  0  0  0  0  0  0  0  0
    9.9400   44.9932    7.7941 N   0  0  0  0  0  0  0  0  0  0  0  0
   10.1503   45.5919    5.4964 N   0  0  0  0  0  0  0  0  0  0  0  0
   13.7806   41.6732    7.3106 N   0  0  0  0  0  0  0  0  0  0  0  0
   15.0651   44.8707    4.8197 O   0  0  0  0  0  0  0  0  0  0  0  0
   14.6469   41.4826    8.2582 O   0  0  0  0  0  0  0  0  0  0  0  0
   12.4005   46.6554    4.3104 S   0  0  0  0  0  0  0  0  0  0  0  0
   13.6982   39.3633   11.2267 Cl  0  0  0  0  0  0  0  0  0  0  0  0
  1  2  1  0
  2 26  1  0
  3  4  1  0
  4 18  1  0
  6  5  1  0
  6 27  1  0
  7 27  1  0
  7 23  2  0
  8 19  1  0
  9 21  1  0
  9 10  1  0
 11 12  2  0
 13 28  1  0
 13 14  2  0
 15 10  2  0
 16  8  2  0
 17 22  2  0
 18  5  1  0
 21 20  1  0
 21 16  1  0
 24 26  1  0
  2  3  2  0
  4 24  2  0
  5 25  2  0
  7  8  1  0
 10 11  1  0
 12 13  1  0
 14 15  1  0
 16 22  1  0
 17 23  1  0
 19 20  2  0
M  END
>  <rmsd>  (112) 
0.225296423

$$$$
MolPort-002-603-648 2374897 CHEMBL1575533 CSSS00160651546 LN00678916 MCULE-6865837890 PubChem-662949 ZINC000002374897
     RDKit          3D

 30 34  0  0  0  0  0  0  0  0999 V2000
   15.2393   41.1341    7.9289 C   0  0  0  0  0  0  0  0  0  0  0  0
   14.2628   39.5328   10.0883 C   0  0  0  0  0  0  0  0  0  0  0  0
   13.1493   38.6960    9.9488 C   0  0  0  0  0  0  0  0  0  0  0  0
   12.1883   38.6337   10.9623 C   0  0  0  0  0  0  0  0  0  0  0  0
   12.3364   39.4117   12.1150 C   0  0  0  0  0  0  0  0  0  0  0  0
   13.4459   40.2509   12.2545 C   0  0  0  0  0  0  0  0  0  0  0  0
   14.4076   40.3123   11.2415 C   0  0  0  0  0  0  0  0  0  0  0  0
   11.3146   39.3458   13.1921 C   0  0  0  0  0  0  0  0  0  0  0  0
   15.7776   42.3658    8.2336 C   0  0  0  0  0  0  0  0  0  0  0  0
   16.8874   44.0540    9.4023 C   0  0  0  0  0  0  0  0  0  0  0  0
   17.7331   44.4771   10.4300 C   0  0  0  0  0  0  0  0  0  0  0  0
   18.0168   45.8378   10.5846 C   0  0  0  0  0  0  0  0  0  0  0  0
   17.4551   46.7808    9.7164 C   0  0  0  0  0  0  0  0  0  0  0  0
   16.6038   46.3728    8.6846 C   0  0  0  0  0  0  0  0  0  0  0  0
   16.3133   45.0171    8.5157 C   0  0  0  0  0  0  0  0  0  0  0  0
   15.2405   43.2830    7.3740 C   0  0  0  0  0  0  0  0  0  0  0  0
   13.8244   44.4932    4.8761 C   0  0  0  0  0  0  0  0  0  0  0  0
   12.7416   45.2189    4.1468 C   0  0  0  0  0  0  0  0  0  0  0  0
   12.6576   46.6514    4.6425 C   0  0  0  0  0  0  0  0  0  0  0  0
   11.6508   45.6297    5.1194 C   0  0  0  0  0  0  0  0  0  0  0  0
   14.3620   41.3813    6.8742 C   0  0  0  0  0  0  0  0  0  0  0  0
   15.4594   39.6325    8.8108 S   0  0  0  0  0  0  0  0  0  0  0  0
   16.8397   39.5863    9.4034 O   0  0  0  0  0  0  0  0  0  0  0  0
   15.3070   38.4700    7.8700 O   0  0  0  0  0  0  0  0  0  0  0  0
   15.0161   44.8922    4.7809 O   0  0  0  0  0  0  0  0  0  0  0  0
   16.5918   42.7285    9.2545 N   0  0  0  0  0  0  0  0  0  0  0  0
   15.4763   44.6111    7.5152 N   0  0  0  0  0  0  0  0  0  0  0  0
   14.3826   42.6884    6.5212 N   0  0  0  0  0  0  0  0  0  0  0  0
   13.5139   43.2955    5.5968 N   0  0  0  0  0  0  0  0  0  0  0  0
   13.4906   40.4184    6.2888 N   0  0  0  0  0  0  0  0  0  0  0  0
  1  9  1  0
  3  4  2  0
  5  6  2  0
  7  2  2  0
  8  5  1  0
 10 26  2  0
 11 12  2  0
 13 14  2  0
 15 27  2  0
 15 10  1  0
 16 28  1  0
 16  9  2  0
 18 17  1  0
 18 19  1  0
 19 20  1  0
 20 18  1  0
 21 30  1  0
 22  1  1  0
 22  2  1  0
 28 29  1  0
 28 21  1  0
 29 17  1  0
  2  3  1  0
  4  5  1  0
  6  7  1  0
  9 26  1  0
 10 11  1  0
 12 13  1  0
 14 15  1  0
 16 27  1  0
 17 25  2  0
 21  1  2  0
 22 23  2  0
 22 24  2  0
M  END
>  <rmsd>  (113) 
0.225087047

$$$$
MolPort-007-955-792 ChemDiv-L068-0667 MCULE-2924407057 PubChem-46376133
     RDKit          3D

 30 32  0  0  0  0  0  0  0  0999 V2000
   14.3279   42.7139    6.5663 C   0  0  0  0  0  0  0  0  0  0  0  0
   13.9140   44.3178    4.6529 C   0  0  0  0  0  0  0  0  0  0  0  0
   13.0110   44.7344    3.5492 C   0  0  0  0  0  0  0  0  0  0  0  0
   15.3022   41.8702    8.6879 C   0  0  0  0  0  0  0  0  0  0  0  0
   16.1753   41.7650    7.6113 C   0  0  0  0  0  0  0  0  0  0  0  0
   17.4393   41.2020    7.7978 C   0  0  0  0  0  0  0  0  0  0  0  0
   17.8124   40.7755    9.0789 C   0  0  0  0  0  0  0  0  0  0  0  0
   16.9292   40.8865   10.1678 C   0  0  0  0  0  0  0  0  0  0  0  0
   15.6316   41.4297    9.9720 C   0  0  0  0  0  0  0  0  0  0  0  0
   14.5277   40.6568   12.0789 C   0  0  2  0  0  0  0  0  0  0  0  0
   13.9935   39.2992   11.6162 C   0  0  0  0  0  0  0  0  0  0  0  0
   12.7191   39.4274   10.7962 C   0  0  0  0  0  0  0  0  0  0  0  0
   13.6676   41.2640   13.1483 C   0  0  0  0  0  0  0  0  0  0  0  0
   15.4442   40.8192   14.8743 C   0  0  0  0  0  0  0  0  0  0  0  0
   16.0567   41.6299   16.0161 C   0  0  0  0  0  0  0  0  0  0  0  0
   14.1292   42.6297   16.6058 C   0  0  0  0  0  0  0  0  0  0  0  0
   13.2856   41.9395   15.5339 C   0  0  0  0  0  0  0  0  0  0  0  0
   15.6359   42.2279    6.3940 C   0  0  0  0  0  0  0  0  0  0  0  0
   16.3288   42.1080    5.0918 C   0  0  0  0  0  0  0  0  0  0  0  0
   18.4313   41.9142    3.8250 C   0  0  0  0  0  0  0  0  0  0  0  0
   13.4883   43.3050    5.5684 N   0  0  0  0  0  0  0  0  0  0  0  0
   14.1619   41.4103   14.4880 N   0  0  0  0  0  0  0  0  0  0  0  0
   15.0306   44.8846    4.7906 O   0  0  0  0  0  0  0  0  0  0  0  0
   14.6725   41.5595   10.9871 O   0  0  0  0  0  0  0  0  0  0  0  0
   12.5082   41.6672   12.8567 O   0  0  0  0  0  0  0  0  0  0  0  0
   15.1284   41.7538   17.0643 O   0  0  0  0  0  0  0  0  0  0  0  0
   17.7228   42.0397    5.0486 O   0  0  0  0  0  0  0  0  0  0  0  0
   15.6603   42.0420    4.0241 O   0  0  0  0  0  0  0  0  0  0  0  0
   13.8474   42.5311    8.1719 S   0  0  0  0  0  0  0  0  0  0  0  0
   17.6176   40.3707   11.8783 Br  0  0  0  0  0  0  0  0  0  0  0  0
  1 21  1  0
  1 29  1  0
  3  2  1  0
  4 29  1  0
  5  6  2  0
  5 18  1  0
  7  8  2  0
  8 30  1  0
  9 24  1  0
  9  4  2  0
 10 24  1  0
 10 11  1  6
 10 13  1  0
 11 12  1  0
 13 22  1  0
 14 22  1  0
 14 15  1  0
 15 26  1  0
 16 26  1  0
 16 17  1  0
 17 22  1  0
 18 19  1  0
 19 27  1  0
 20 27  1  0
 21  2  1  0
  2 23  2  0
  4  5  1  0
  6  7  1  0
  8  9  1  0
 13 25  2  0
 18  1  2  0
 19 28  2  0
M  END
>  <rmsd>  (114) 
0.221173137

$$$$
MolPort-010-948-485 ChemDiv-T479-0240 MCULE-7737912314 PubChem-53189980 ZINC000065283002 ZINC65283002
     RDKit          3D

 28 31  0  0  0  0  0  0  0  0999 V2000
   13.3604   39.4512   11.1898 C   0  0  0  0  0  0  0  0  0  0  0  0
   14.0440   40.5581   11.9688 C   0  0  0  0  0  0  0  0  0  0  0  0
   14.1083   41.8309   11.1099 C   0  0  0  0  0  0  0  0  0  0  0  0
   15.5146   42.4202   11.0162 C   0  0  0  0  0  0  0  0  0  0  0  0
   16.4719   40.0999   11.3879 C   0  0  0  0  0  0  0  0  0  0  0  0
   15.4077   40.0844   12.4878 C   0  0  0  0  0  0  0  0  0  0  0  0
   17.5441   41.6691    9.7591 C   0  0  0  0  0  0  0  0  0  0  0  0
   17.3244   42.1472    8.4486 C   0  0  0  0  0  0  0  0  0  0  0  0
   19.6646   42.4172    8.1597 C   0  0  0  0  0  0  0  0  0  0  0  0
   18.8640   41.5634   10.2078 C   0  0  0  0  0  0  0  0  0  0  0  0
   15.6413   43.0270    6.8742 C   0  0  0  0  0  0  0  0  0  0  0  0
   14.3380   42.6950    6.5691 C   0  0  0  0  0  0  0  0  0  0  0  0
   13.8743   44.3823    4.7184 C   0  0  0  0  0  0  0  0  0  0  0  0
   12.9077   44.9082    3.7383 C   0  0  0  0  0  0  0  0  0  0  0  0
   13.2615   45.9684    2.8901 C   0  0  0  0  0  0  0  0  0  0  0  0
   12.3439   46.4666    1.9606 C   0  0  0  0  0  0  0  0  0  0  0  0
   11.0658   45.9085    1.8723 C   0  0  0  0  0  0  0  0  0  0  0  0
   10.0903   46.4380    0.8842 C   0  0  0  0  0  0  0  0  0  0  0  0
   10.7051   44.8523    2.7132 C   0  0  0  0  0  0  0  0  0  0  0  0
   11.6228   44.3541    3.6427 C   0  0  0  0  0  0  0  0  0  0  0  0
   13.9679   41.6489    7.3864 C   0  0  0  0  0  0  0  0  0  0  0  0
   16.4696   41.3715   10.6601 N   0  0  0  0  0  0  0  0  0  0  0  0
   18.3941   42.5196    7.6927 N   0  0  0  0  0  0  0  0  0  0  0  0
   19.8942   41.9329    9.4058 N   0  0  0  0  0  0  0  0  0  0  0  0
   16.0122   42.1975    7.8678 N   0  0  0  0  0  0  0  0  0  0  0  0
   13.4988   43.2972    5.5780 N   0  0  0  0  0  0  0  0  0  0  0  0
   15.0273   41.3630    8.1679 N   0  0  0  0  0  0  0  0  0  0  0  0
   15.0267   44.8892    4.7964 O   0  0  0  0  0  0  0  0  0  0  0  0
  1  2  1  0
  2  3  1  0
  3  4  1  0
  4 22  1  0
  5 22  1  0
  5  6  1  0
  6  2  1  0
  7  8  2  0
  8 25  1  0
  9 23  2  0
 10 24  2  0
 12 26  1  0
 12 21  1  0
 13 14  1  0
 15 16  2  0
 17 19  2  0
 18 17  1  0
 20 14  2  0
 22  7  1  0
 25 11  1  0
 25 27  1  0
 26 13  1  0
  8 23  1  0
  9 24  1  0
 10  7  1  0
 11 12  2  0
 13 28  2  0
 14 15  1  0
 16 17  1  0
 19 20  1  0
 21 27  2  0
M  END
>  <rmsd>  (115) 
0.206293404

$$$$
MolPort-018-616-241 96190568 CSSS02267491935 MCULE-5501081623 PubChem-12828310
     RDKit          3D

 17 17  0  0  0  0  0  0  0  0999 V2000
   13.2500   39.1844   11.1675 C   0  0  0  0  0  0  0  0  0  0  0  0
   14.6826   40.4507    9.6168 C   0  0  0  0  0  0  0  0  0  0  0  0
   14.8221   41.3916    8.4905 C   0  0  0  0  0  0  0  0  0  0  0  0
   13.8648   41.7655    7.5382 C   0  0  0  0  0  0  0  0  0  0  0  0
   12.5372   41.1351    7.3806 C   0  0  0  0  0  0  0  0  0  0  0  0
   10.1696   41.3349    6.7349 C   0  0  0  0  0  0  0  0  0  0  0  0
   14.3263   42.7843    6.6762 C   0  0  0  0  0  0  0  0  0  0  0  0
   13.8925   44.3290    4.6811 C   0  0  0  0  0  0  0  0  0  0  0  0
   12.9320   44.7389    3.6243 C   0  0  0  0  0  0  0  0  0  0  0  0
   15.6326   43.2090    6.9185 C   0  0  0  0  0  0  0  0  0  0  0  0
   13.4190   40.0739   10.0741 O   0  0  0  0  0  0  0  0  0  0  0  0
   15.7185   40.0238   10.1967 O   0  0  0  0  0  0  0  0  0  0  0  0
   12.3870   39.9060    7.6203 O   0  0  0  0  0  0  0  0  0  0  0  0
   11.4598   41.8962    6.9223 O   0  0  0  0  0  0  0  0  0  0  0  0
   15.0168   44.8923    4.7464 O   0  0  0  0  0  0  0  0  0  0  0  0
   13.5194   43.3022    5.6074 N   0  0  0  0  0  0  0  0  0  0  0  0
   16.1990   42.3139    8.2207 S   0  0  0  0  0  0  0  0  0  0  0  0
  1 11  1  0
  2 11  1  0
  2  3  1  0
  3 17  1  0
  4  5  1  0
  4  7  1  0
  5 14  1  0
  6 14  1  0
  7 16  1  0
  9  8  1  0
 10 17  1  0
 16  8  1  0
  2 12  2  0
  3  4  2  0
  5 13  2  0
  7 10  2  0
  8 15  2  0
M  END
>  <rmsd>  (116) 
0.203004271

$$$$
MolPort-002-319-884 6273700 LN01124744 MCULE-2831407268 ZINC000006273700
     RDKit          3D

 25 25  0  0  0  0  0  0  0  0999 V2000
   11.3965   38.9892   12.2352 C   0  0  0  0  0  0  0  0  0  0  0  0
   12.5036   39.9981   11.9948 C   0  0  0  0  0  0  0  0  0  0  0  0
   13.8322   39.2892   11.7856 C   0  0  0  0  0  0  0  0  0  0  0  0
   13.8983   38.6408   10.4080 C   0  0  0  0  0  0  0  0  0  0  0  0
   15.0383   40.4440    9.1513 C   0  0  0  0  0  0  0  0  0  0  0  0
   14.9756   41.4724    8.1096 C   0  0  0  0  0  0  0  0  0  0  0  0
   14.3113   42.7045    6.5659 C   0  0  0  0  0  0  0  0  0  0  0  0
   13.8889   44.3811    4.7037 C   0  0  0  0  0  0  0  0  0  0  0  0
   12.9408   44.8928    3.6553 C   0  0  0  0  0  0  0  0  0  0  0  0
   13.3013   44.3880    2.2394 C   0  0  0  0  0  0  0  0  0  0  0  0
   13.2448   42.8568    2.0862 C   0  0  0  0  0  0  0  0  0  0  0  0
   13.9265   39.6289    9.3831 O   0  0  0  0  0  0  0  0  0  0  0  0
   16.0939   40.2986    9.8263 O   0  0  0  0  0  0  0  0  0  0  0  0
   15.0393   44.8875    4.8040 O   0  0  0  0  0  0  0  0  0  0  0  0
   15.9955   42.3001    7.8131 N   0  0  0  0  0  0  0  0  0  0  0  0
   15.5751   43.0815    6.8341 N   0  0  0  0  0  0  0  0  0  0  0  0
   13.4891   43.3028    5.5592 N   0  0  0  0  0  0  0  0  0  0  0  0
   13.8878   41.6918    7.3447 N   0  0  0  0  0  0  0  0  0  0  0  0
   12.9907   46.2770    3.6582 F   0  0  0  0  0  0  0  0  0  0  0  0
   11.6456   44.5185    3.9747 F   0  0  0  0  0  0  0  0  0  0  0  0
   12.4099   44.9487    1.3394 F   0  0  0  0  0  0  0  0  0  0  0  0
   14.5736   44.8242    1.9063 F   0  0  0  0  0  0  0  0  0  0  0  0
   14.2275   42.2501    2.8479 F   0  0  0  0  0  0  0  0  0  0  0  0
   13.4559   42.5232    0.7603 F   0  0  0  0  0  0  0  0  0  0  0  0
   12.0072   42.3713    2.4692 F   0  0  0  0  0  0  0  0  0  0  0  0
  1  2  1  0
  2  3  1  0
  3  4  1  0
  4 12  1  0
  5 12  1  0
  5  6  1  0
  6 18  1  0
  7 17  1  0
  9  8  1  0
  9 19  1  0
  9 20  1  0
  9 10  1  0
 10 21  1  0
 10 22  1  0
 10 11  1  0
 11 23  1  0
 11 24  1  0
 11 25  1  0
 16 15  1  0
 16  7  1  0
 17  8  1  0
  5 13  2  0
  6 15  2  0
  7 18  2  0
  8 14  2  0
M  END
>  <rmsd>  (117) 
0.174373895

$$$$
