MolPort-005-107-313 CSSS00160421858 MCULE-3921337657 PubChem-45224063
     RDKit          3D

 27 29  0  0  0  0  0  0  0  0999 V2000
   12.3620   47.1312    3.0410 C   0  0  0  0  0  0  0  0  0  0  0  0
   13.2923   45.9521    2.8168 C   0  0  2  0  0  0  0  0  0  0  0  0
   13.2628   45.4783    1.3615 C   0  0  0  0  0  0  0  0  0  0  0  0
   11.9114   45.0225    0.9022 C   0  0  0  0  0  0  0  0  0  0  0  0
   10.0003   45.3912   -0.4617 C   0  0  0  0  0  0  0  0  0  0  0  0
    9.4258   44.1977   -0.0192 C   0  0  0  0  0  0  0  0  0  0  0  0
   10.1204   43.4062    0.8968 C   0  0  0  0  0  0  0  0  0  0  0  0
   11.3720   43.8150    1.3601 C   0  0  0  0  0  0  0  0  0  0  0  0
   13.8847   44.3803    4.6987 C   0  0  0  0  0  0  0  0  0  0  0  0
   14.3137   42.7242    6.5737 C   0  0  0  0  0  0  0  0  0  0  0  0
   15.3158   41.4727    8.3463 C   0  0  0  0  0  0  0  0  0  0  0  0
   15.6809   40.5988    9.4971 C   0  0  0  0  0  0  0  0  0  0  0  0
   15.4894   41.3358   10.8169 C   0  0  0  0  0  0  0  0  0  0  0  0
   12.2370   42.6468   11.3525 C   0  0  0  0  0  0  0  0  0  0  0  0
   11.2811   43.7809   11.4483 C   0  0  0  0  0  0  0  0  0  0  0  0
   11.9061   41.3117   11.5290 C   0  0  0  0  0  0  0  0  0  0  0  0
   13.1208   40.6796   11.3402 C   0  0  0  0  0  0  0  0  0  0  0  0
   13.3420   39.2088   11.4307 C   0  0  0  0  0  0  0  0  0  0  0  0
   11.2211   45.7735    0.0011 N   0  0  0  0  0  0  0  0  0  0  0  0
   12.9584   44.8683    3.7289 N   0  0  0  0  0  0  0  0  0  0  0  0
   13.4896   43.3093    5.5611 N   0  0  0  0  0  0  0  0  0  0  0  0
   15.5780   43.1157    6.8475 N   0  0  0  0  0  0  0  0  0  0  0  0
   16.1337   42.4208    7.8385 N   0  0  0  0  0  0  0  0  0  0  0  0
   14.0764   41.5899   11.0715 N   0  0  0  0  0  0  0  0  0  0  0  0
   13.5470   42.7986   11.0817 N   0  0  0  0  0  0  0  0  0  0  0  0
   15.0348   44.8900    4.7886 O   0  0  0  0  0  0  0  0  0  0  0  0
   13.8167   41.4685    7.5764 S   0  0  0  0  0  0  0  0  0  0  0  0
  2  1  1  6
  2  3  1  0
  2 20  1  0
  3  4  1  0
  5 19  2  0
  6  7  2  0
  8  4  2  0
  9 21  1  0
 10 27  1  0
 11 27  1  0
 12 11  1  0
 12 13  1  0
 13 24  1  0
 14 16  1  0
 15 14  1  0
 17 24  1  0
 18 17  1  0
 20  9  1  0
 21 10  1  0
 22 23  1  0
 24 25  1  0
  4 19  1  0
  5  6  1  0
  7  8  1  0
  9 26  2  0
 10 22  2  0
 11 23  2  0
 14 25  2  0
 16 17  2  0
M  END
>  <rmsd>  (1) 
0.210953459

$$$$
