MolPort-003-131-707 4496623 CSSS03437127437 MCULE-1324457230 PubChem-7254686 ZINC000004496623
     RDKit          3D

 23 25  0  0  0  0  0  0  0  0999 V2000
   14.3673   42.7535    6.6412 C   0  0  0  0  0  0  0  0  0  0  0  0
   13.8827   44.3325    4.6892 C   0  0  0  0  0  0  0  0  0  0  0  0
   12.9090   44.7368    3.6379 C   0  0  0  0  0  0  0  0  0  0  0  0
   14.2492   44.0090    1.4909 C   0  0  0  0  0  0  0  0  0  0  0  0
   15.4947   43.4421    1.7829 C   0  0  0  0  0  0  0  0  0  0  0  0
   16.6370   43.8738    1.1022 C   0  0  0  0  0  0  0  0  0  0  0  0
   16.5344   44.8698    0.1260 C   0  0  0  0  0  0  0  0  0  0  0  0
   15.2892   45.4327   -0.1708 C   0  0  0  0  0  0  0  0  0  0  0  0
   14.1465   45.0014    0.5100 C   0  0  0  0  0  0  0  0  0  0  0  0
   16.1113   42.0918    8.2033 C   0  0  0  0  0  0  0  0  0  0  0  0
   14.9028   41.4293    8.3615 C   0  0  0  0  0  0  0  0  0  0  0  0
   14.7506   40.4627    9.3604 C   0  0  0  0  0  0  0  0  0  0  0  0
   15.8557   40.1844   10.1923 C   0  0  0  0  0  0  0  0  0  0  0  0
   17.0754   40.8653   10.0190 C   0  0  0  0  0  0  0  0  0  0  0  0
   17.2130   41.8334    9.0133 C   0  0  0  0  0  0  0  0  0  0  0  0
   13.2803   38.8386   10.5298 C   0  0  0  0  0  0  0  0  0  0  0  0
   13.0135   39.5366   11.8502 C   0  0  0  0  0  0  0  0  0  0  0  0
   13.5280   43.3011    5.6174 N   0  0  0  0  0  0  0  0  0  0  0  0
   13.9267   41.7947    7.4905 N   0  0  0  0  0  0  0  0  0  0  0  0
   12.7854   43.4502    2.3555 S   0  0  0  0  0  0  0  0  0  0  0  0
   15.9845   43.1810    6.9346 S   0  0  0  0  0  0  0  0  0  0  0  0
   15.0063   44.8985    4.7380 O   0  0  0  0  0  0  0  0  0  0  0  0
   13.5268   39.7984    9.5084 O   0  0  0  0  0  0  0  0  0  0  0  0
  1 18  1  0
  1 21  1  0
  3  2  1  0
  3 20  1  0
  4 20  1  0
  5  6  2  0
  7  8  2  0
  9  4  2  0
 10 21  1  0
 11 12  2  0
 11 19  1  0
 12 23  1  0
 13 14  2  0
 15 10  2  0
 16 23  1  0
 16 17  1  0
 18  2  1  0
  1 19  2  0
  2 22  2  0
  4  5  1  0
  6  7  1  0
  8  9  1  0
 10 11  1  0
 12 13  1  0
 14 15  1  0
M  END
>  <rmsd>  (1) 
0.241799742

$$$$
