MolPort-007-714-559 CHEMBL1734373 ChemDiv-E002-1899 MCULE-5246444866 PubChem-16016863 ZINC000006780261
     RDKit          3D

 25 27  0  0  0  0  0  0  0  0999 V2000
   15.1358   41.5923    8.5110 C   0  0  0  0  0  0  0  0  0  0  0  0
   16.8958   40.5778    9.9511 C   0  0  0  0  0  0  0  0  0  0  0  0
   17.2763   41.5772   11.0277 C   0  0  0  0  0  0  0  0  0  0  0  0
   14.4957   40.0276   10.3923 C   0  0  0  0  0  0  0  0  0  0  0  0
   14.8053   38.7903   10.9808 C   0  0  0  0  0  0  0  0  0  0  0  0
   13.8628   38.1210   11.7666 C   0  0  0  0  0  0  0  0  0  0  0  0
   12.6030   38.6856   11.9792 C   0  0  0  0  0  0  0  0  0  0  0  0
   12.2868   39.9210   11.4091 C   0  0  0  0  0  0  0  0  0  0  0  0
   13.2296   40.5899   10.6236 C   0  0  0  0  0  0  0  0  0  0  0  0
   14.2352   42.7671    6.6251 C   0  0  0  0  0  0  0  0  0  0  0  0
   13.9199   44.3358    4.6544 C   0  0  0  0  0  0  0  0  0  0  0  0
   13.4178   45.6013    2.4991 C   0  0  0  0  0  0  0  0  0  0  0  0
   12.4911   46.5298    2.0117 C   0  0  0  0  0  0  0  0  0  0  0  0
   12.8023   47.3330    0.9113 C   0  0  0  0  0  0  0  0  0  0  0  0
   14.0405   47.2018    0.2793 C   0  0  0  0  0  0  0  0  0  0  0  0
   14.9624   46.2590    0.7400 C   0  0  0  0  0  0  0  0  0  0  0  0
   14.6568   45.4536    1.8417 C   0  0  0  0  0  0  0  0  0  0  0  0
   15.4844   40.7249    9.6071 N   0  0  0  0  0  0  0  0  0  0  0  0
   15.9969   42.4901    7.9771 N   0  0  0  0  0  0  0  0  0  0  0  0
   15.4946   43.1475    6.9334 N   0  0  0  0  0  0  0  0  0  0  0  0
   13.4706   43.3090    5.5440 N   0  0  0  0  0  0  0  0  0  0  0  0
   13.0428   44.7869    3.6176 N   0  0  0  0  0  0  0  0  0  0  0  0
   15.0511   44.8704    4.8108 O   0  0  0  0  0  0  0  0  0  0  0  0
   15.5436   44.4993    2.2166 F   0  0  0  0  0  0  0  0  0  0  0  0
   13.6765   41.5624    7.6561 S   0  0  0  0  0  0  0  0  0  0  0  0
  1 18  1  0
  1 25  1  0
  2 18  1  0
  2  3  1  0
  5  6  2  0
  7  8  2  0
  9  4  2  0
 10 21  1  0
 10 25  1  0
 11 22  1  0
 13 14  2  0
 15 16  2  0
 17 24  1  0
 17 12  2  0
 18  4  1  0
 19 20  1  0
 21 11  1  0
 22 12  1  0
  1 19  2  0
  4  5  1  0
  6  7  1  0
  8  9  1  0
 10 20  2  0
 11 23  2  0
 12 13  1  0
 14 15  1  0
 16 17  1  0
M  END
>  <rmsd>  (1) 
0.207984403

$$$$
