MolPort-005-291-984 12422538 CSSS03437107179 MCULE-1450102348 PubChem-16880185 ZINC000012422538
     RDKit          3D

 26 29  0  0  0  0  0  0  0  0999 V2000
   16.4605   41.0473    9.7685 N   0  0  0  0  0  0  0  0  0  0  0  0
   13.4778   43.3141    5.5392 N   0  0  0  0  0  0  0  0  0  0  0  0
   10.9506   45.5186    3.0204 N   0  0  0  0  0  0  0  0  0  0  0  0
   16.4843   39.7282   10.3881 C   0  0  0  0  0  0  0  0  0  0  0  0
   15.3767   39.5972   11.4230 C   0  0  0  0  0  0  0  0  0  0  0  0
   14.0283   39.4476   10.7457 C   0  0  0  0  0  0  0  0  0  0  0  0
   12.9440   39.3488   11.7971 C   0  0  0  0  0  0  0  0  0  0  0  0
   15.7050   41.4417    8.6195 C   0  0  0  0  0  0  0  0  0  0  0  0
   15.0366   40.6477    7.6875 C   0  0  0  0  0  0  0  0  0  0  0  0
   14.3102   41.3041    6.6674 C   0  0  0  0  0  0  0  0  0  0  0  0
   14.2569   42.7206    6.5860 C   0  0  0  0  0  0  0  0  0  0  0  0
   14.9126   43.4925    7.5793 C   0  0  0  0  0  0  0  0  0  0  0  0
   14.8571   44.8951    7.7125 C   0  0  0  0  0  0  0  0  0  0  0  0
   15.5175   45.5330    8.7945 C   0  0  0  0  0  0  0  0  0  0  0  0
   16.2257   44.7817    9.7614 C   0  0  0  0  0  0  0  0  0  0  0  0
   16.2607   43.3975    9.5975 C   0  0  0  0  0  0  0  0  0  0  0  0
   15.6252   42.8033    8.5470 C   0  0  0  0  0  0  0  0  0  0  0  0
   16.7921   42.2958   10.3972 C   0  0  0  0  0  0  0  0  0  0  0  0
   13.8533   44.4689    4.7809 C   0  0  0  0  0  0  0  0  0  0  0  0
   12.8563   45.1330    3.9364 C   0  0  0  0  0  0  0  0  0  0  0  0
   13.0786   46.2405    3.1369 C   0  0  0  0  0  0  0  0  0  0  0  0
   11.8289   46.4371    2.5804 C   0  0  0  0  0  0  0  0  0  0  0  0
   11.4811   47.5165    1.6196 C   0  0  0  0  0  0  0  0  0  0  0  0
   17.4073   42.4032   11.4905 O   0  0  0  0  0  0  0  0  0  0  0  0
   15.0415   44.8903    4.8010 O   0  0  0  0  0  0  0  0  0  0  0  0
   11.6058   44.7498    3.8359 O   0  0  0  0  0  0  0  0  0  0  0  0
  1  8  1  0
  2 19  1  0
  3 26  1  0
  4  1  1  0
  4  5  1  0
  5  6  1  0
  6  7  1  0
  9 10  2  0
 11 12  2  0
 11  2  1  0
 13 14  2  0
 15 16  2  0
 16 18  1  0
 17  8  2  0
 17 12  1  0
 18  1  1  0
 19 20  1  0
 20 26  1  0
 21 22  1  0
 23 22  1  0
  8  9  1  0
 10 11  1  0
 12 13  1  0
 14 15  1  0
 16 17  1  0
 18 24  2  0
 19 25  2  0
 20 21  2  0
 22  3  2  0
M  END
>  <rmsd>  (1) 
0.244289249

$$$$
