MolPort-020-275-220 MCULE-2387876618 PubChem-110252897
     RDKit          3D

 22 24  0  0  0  0  0  0  0  0999 V2000
   13.2819   35.3232   10.3858 C   0  0  0  0  0  0  0  0  0  0  0  0
   13.7997   36.3996    9.4926 C   0  0  0  0  0  0  0  0  0  0  0  0
   13.7288   38.0717   11.3760 C   0  0  0  0  0  0  0  0  0  0  0  0
   12.9213   39.3620   11.4813 C   0  0  0  0  0  0  0  0  0  0  0  0
   13.6061   40.4748   10.6938 C   0  0  0  0  0  0  0  0  0  0  0  0
   13.7547   40.0671    9.2274 C   0  0  2  0  0  0  0  0  0  0  0  0
   14.5475   38.7652    9.1071 C   0  0  0  0  0  0  0  0  0  0  0  0
   14.3927   41.1580    8.4281 C   0  0  0  0  0  0  0  0  0  0  0  0
   15.6882   41.6085    8.7111 C   0  0  0  0  0  0  0  0  0  0  0  0
   15.5356   43.1664    6.9363 C   0  0  0  0  0  0  0  0  0  0  0  0
   14.2394   42.7213    6.6469 C   0  0  0  0  0  0  0  0  0  0  0  0
   13.8430   44.3261    4.6757 C   0  0  0  0  0  0  0  0  0  0  0  0
   15.4217   45.9114    3.8996 C   0  0  0  0  0  0  0  0  0  0  0  0
   14.5313   46.3333    2.9143 C   0  0  0  0  0  0  0  0  0  0  0  0
   13.2846   45.7148    2.8423 C   0  0  0  0  0  0  0  0  0  0  0  0
   14.0898   36.1114    8.3008 O   0  0  0  0  0  0  0  0  0  0  0  0
   13.9588   37.7435    9.9701 N   0  0  0  0  0  0  0  0  0  0  0  0
   16.2292   42.6017    7.9591 N   0  0  0  0  0  0  0  0  0  0  0  0
   13.7036   41.7266    7.4036 N   0  0  0  0  0  0  0  0  0  0  0  0
   13.4607   43.2804    5.5794 N   0  0  0  0  0  0  0  0  0  0  0  0
   15.0646   44.9212    4.7582 N   0  0  0  0  0  0  0  0  0  0  0  0
   12.9642   44.7279    3.7192 N   0  0  0  0  0  0  0  0  0  0  0  0
  1  2  1  0
  2 17  1  0
  3 17  1  0
  3  4  1  0
  4  5  1  0
  5  6  1  0
  6  7  1  0
  6  8  1  6
  7 17  1  0
  8 19  2  0
  9 18  2  0
 10 11  2  0
 11 20  1  0
 12 22  2  0
 13 21  2  0
 14 15  2  0
 20 12  1  0
  2 16  2  0
  8  9  1  0
 10 18  1  0
 11 19  1  0
 12 21  1  0
 13 14  1  0
 15 22  1  0
M  END
>  <rmsd>  (1) 
0.240737572

$$$$
