Molport-047-071-756 PubChem-132766831
     RDKit          3D

 32 35  0  0  0  0  0  0  0  0999 V2000
   12.3497   46.1562    1.7971 C   0  0  0  0  0  0  0  0  0  0  0  0
   13.3151   45.7260    2.8417 C   0  0  0  0  0  0  0  0  0  0  0  0
   14.5647   46.3366    2.9295 C   0  0  0  0  0  0  0  0  0  0  0  0
   15.4421   45.9054    3.9225 C   0  0  0  0  0  0  0  0  0  0  0  0
   16.7843   46.5296    4.0512 C   0  0  0  0  0  0  0  0  0  0  0  0
   13.8456   44.3269    4.6750 C   0  0  0  0  0  0  0  0  0  0  0  0
   14.2388   42.7345    6.6352 C   0  0  0  0  0  0  0  0  0  0  0  0
   13.7041   41.7133    7.4202 C   0  0  0  0  0  0  0  0  0  0  0  0
   14.4793   41.1881    8.4539 C   0  0  0  0  0  0  0  0  0  0  0  0
   16.2375   42.6705    7.9030 C   0  0  0  0  0  0  0  0  0  0  0  0
   17.6058   43.1887    8.1623 C   0  0  0  0  0  0  0  0  0  0  0  0
   13.9262   40.0941    9.3054 C   0  0  2  0  0  0  0  0  0  0  0  0
   13.8301   40.5380   10.7678 C   0  0  0  0  0  0  0  0  0  0  0  0
   13.3351   39.4248   11.7053 C   0  0  0  0  0  0  0  0  0  0  0  0
   13.2193   38.0634   11.0172 C   0  0  0  0  0  0  0  0  0  0  0  0
   14.7780   38.8281    9.1816 C   0  0  0  0  0  0  0  0  0  0  0  0
   15.1460   36.5962   10.2581 C   0  0  0  0  0  0  0  0  0  0  0  0
   15.1509   35.7253   11.4486 C   0  0  0  0  0  0  0  0  0  0  0  0
   14.6284   36.0678   12.6217 C   0  0  0  0  0  0  0  0  0  0  0  0
   14.6583   35.1646   13.7753 C   0  0  0  0  0  0  0  0  0  0  0  0
   15.1989   33.8904   13.8326 C   0  0  0  0  0  0  0  0  0  0  0  0
   13.9983   34.2106   17.1677 C   0  0  0  0  0  0  0  0  0  0  0  0
   14.1396   35.4441   15.0210 C   0  0  0  0  0  0  0  0  0  0  0  0
   15.0700   44.9140    4.7731 N   0  0  0  0  0  0  0  0  0  0  0  0
   13.4508   43.2810    5.5709 N   0  0  0  0  0  0  0  0  0  0  0  0
   15.7304   41.6755    8.6761 N   0  0  0  0  0  0  0  0  0  0  0  0
   15.4945   43.1922    6.8926 N   0  0  0  0  0  0  0  0  0  0  0  0
   14.3936   37.8226   10.1778 N   0  0  0  0  0  0  0  0  0  0  0  0
   15.0062   33.4245   15.0819 N   0  0  0  0  0  0  0  0  0  0  0  0
   14.3763   34.3581   15.7750 N   0  0  0  0  0  0  0  0  0  0  0  0
   12.9793   44.7372    3.7111 N   0  0  0  0  0  0  0  0  0  0  0  0
   15.8488   36.2393    9.2751 O   0  0  0  0  0  0  0  0  0  0  0  0
  1  2  1  0
  2 31  2  0
  3  4  2  0
  5  4  1  0
  6 24  2  0
  6 25  1  0
  7 27  2  0
  8  9  2  0
 10 26  2  0
 11 10  1  0
 12  9  1  6
 12 13  1  0
 13 14  1  0
 14 15  1  0
 15 28  1  0
 16 28  1  0
 16 12  1  0
 17 18  1  0
 19 20  1  0
 20 21  1  0
 22 30  1  0
 25  7  1  0
 28 17  1  0
 30 29  1  0
 30 23  1  0
  2  3  1  0
  4 24  1  0
  6 31  1  0
  7  8  1  0
  9 26  1  0
 10 27  1  0
 17 32  2  0
 18 19  2  0
 21 29  2  0
 23 20  2  0
M  END
>  <rmsd>  (1) 
0.248925224

$$$$
