MolPort-016-648-860 CSSS00160367009 MCULE-7229641129 PubChem-56832365
     RDKit          3D

 25 27  0  0  0  0  0  0  0  0999 V2000
   15.0649   43.8799   13.5054 C   0  0  0  0  0  0  0  0  0  0  0  0
   12.4840   41.6725   12.4154 C   0  0  0  0  0  0  0  0  0  0  0  0
   13.5855   40.9120   12.0650 C   0  0  0  0  0  0  0  0  0  0  0  0
   14.6925   41.6465   12.4517 C   0  0  0  0  0  0  0  0  0  0  0  0
   16.1459   41.3277   12.2349 C   0  0  1  0  0  0  0  0  0  0  0  0
   16.4761   39.8532   12.5123 C   0  0  0  0  0  0  0  0  0  0  0  0
   17.9105   39.6713   12.9871 C   0  0  0  0  0  0  0  0  0  0  0  0
   18.9148   40.1493   11.9510 C   0  0  0  0  0  0  0  0  0  0  0  0
   18.9320   41.6673   11.9307 C   0  0  0  0  0  0  0  0  0  0  0  0
   18.0029   42.2368   10.8532 C   0  0  0  0  0  0  0  0  0  0  0  0
   16.3419   40.8471    9.8418 C   0  0  0  0  0  0  0  0  0  0  0  0
   15.6082   41.5036    8.7208 C   0  0  0  0  0  0  0  0  0  0  0  0
   14.3146   41.0840    8.3992 C   0  0  0  0  0  0  0  0  0  0  0  0
   13.6213   41.6898    7.3474 C   0  0  0  0  0  0  0  0  0  0  0  0
   14.2154   42.7170    6.6061 C   0  0  0  0  0  0  0  0  0  0  0  0
   13.9093   44.3714    4.6726 C   0  0  0  0  0  0  0  0  0  0  0  0
   12.9976   44.8665    3.6090 C   0  0  0  0  0  0  0  0  0  0  0  0
   15.5171   43.1309    6.9280 C   0  0  0  0  0  0  0  0  0  0  0  0
   16.2111   42.5260    7.9795 C   0  0  0  0  0  0  0  0  0  0  0  0
   14.2474   42.7945   12.9900 N   0  0  0  0  0  0  0  0  0  0  0  0
   12.9252   42.8182   12.9778 N   0  0  0  0  0  0  0  0  0  0  0  0
   16.5938   41.8102   10.9132 N   0  0  0  0  0  0  0  0  0  0  0  0
   13.4714   43.3140    5.5352 N   0  0  0  0  0  0  0  0  0  0  0  0
   13.5335   39.3380   11.2913 Cl  0  0  0  0  0  0  0  0  0  0  0  0
   15.0501   44.8894    4.7979 O   0  0  0  0  0  0  0  0  0  0  0  0
  1 20  1  0
  2  3  1  0
  3 24  1  0
  4 20  1  0
  5  4  1  6
  5  6  1  0
  5 22  1  0
  6  7  1  0
  7  8  1  0
  8  9  1  0
  9 10  1  0
 10 22  1  0
 11 22  1  0
 11 12  1  0
 13 14  2  0
 15 23  1  0
 15 18  2  0
 17 16  1  0
 19 12  2  0
 20 21  1  0
 23 16  1  0
  2 21  2  0
  3  4  2  0
 12 13  1  0
 14 15  1  0
 16 25  2  0
 18 19  1  0
M  END
>  <rmsd>  (1) 
0.237430453

$$$$
