MolPort-010-852-351 41108820 ChemDiv-G952-3207 MCULE-3308973110 PubChem-52103595 ZINC000041108820
     RDKit          3D

 26 29  0  0  0  0  0  0  0  0999 V2000
   14.6033   41.6213    8.4799 N   0  0  0  0  0  0  0  0  0  0  0  0
   13.7356   41.8495    7.5084 N   0  0  0  0  0  0  0  0  0  0  0  0
   16.4689   42.0753    9.5666 N   0  0  0  0  0  0  0  0  0  0  0  0
   15.8168   41.1141   10.2338 N   0  0  0  0  0  0  0  0  0  0  0  0
   13.4942   43.3139    5.5700 N   0  0  0  0  0  0  0  0  0  0  0  0
   14.2238   42.8399    6.7086 C   0  0  0  0  0  0  0  0  0  0  0  0
   15.6876   42.3460    8.5070 C   0  0  0  0  0  0  0  0  0  0  0  0
   14.6684   40.8381    9.5562 C   0  0  0  0  0  0  0  0  0  0  0  0
   13.6164   39.8686    9.9830 C   0  0  0  0  0  0  0  0  0  0  0  0
   14.2097   38.4587   10.1474 C   0  0  0  0  0  0  0  0  0  0  0  0
   14.5539   38.1604   11.6063 C   0  0  0  0  0  0  0  0  0  0  0  0
   13.3089   38.2337   12.5013 C   0  0  0  0  0  0  0  0  0  0  0  0
   12.2593   39.2433   12.0151 C   0  0  0  0  0  0  0  0  0  0  0  0
   12.9030   40.3884   11.2393 C   0  0  0  0  0  0  0  0  0  0  0  0
   13.9146   44.3282    4.6466 C   0  0  0  0  0  0  0  0  0  0  0  0
   13.0183   44.7312    3.5480 C   0  0  0  0  0  0  0  0  0  0  0  0
   11.7678   44.1172    3.3940 C   0  0  0  0  0  0  0  0  0  0  0  0
   10.9148   44.5017    2.3556 C   0  0  0  0  0  0  0  0  0  0  0  0
   11.3022   45.5074    1.4555 C   0  0  0  0  0  0  0  0  0  0  0  0
   12.5501   46.1198    1.6084 C   0  0  0  0  0  0  0  0  0  0  0  0
   13.4036   45.7348    2.6470 C   0  0  0  0  0  0  0  0  0  0  0  0
    9.2038   45.3238    0.1372 C   0  0  0  0  0  0  0  0  0  0  0  0
    9.3902   43.9968   -0.5759 C   0  0  0  0  0  0  0  0  0  0  0  0
   15.7542   43.4479    7.2484 S   0  0  0  0  0  0  0  0  0  0  0  0
   15.0447   44.8749    4.7634 O   0  0  0  0  0  0  0  0  0  0  0  0
   10.4697   45.9172    0.4071 O   0  0  0  0  0  0  0  0  0  0  0  0
  1  2  1  0
  3  4  1  0
  5 15  1  0
  6 24  1  0
  6  5  1  0
  7 24  1  0
  7  1  1  0
  8  1  1  0
  9  8  1  0
  9 10  1  0
 10 11  1  0
 11 12  1  0
 12 13  1  0
 13 14  1  0
 14  9  1  0
 15 16  1  0
 17 18  2  0
 19 20  2  0
 19 26  1  0
 21 16  2  0
 22 26  1  0
 22 23  1  0
  6  2  2  0
  7  3  2  0
  8  4  2  0
 15 25  2  0
 16 17  1  0
 18 19  1  0
 20 21  1  0
M  END
>  <rmsd>  (1) 
0.23595506

$$$$
