MolPort-020-293-066 MCULE-4133020795 PubChem-110265533
     RDKit          3D

 27 30  0  0  0  0  0  0  0  0999 V2000
   12.2969   46.1064    1.7952 C   0  0  0  0  0  0  0  0  0  0  0  0
   13.2779   45.6961    2.8332 C   0  0  0  0  0  0  0  0  0  0  0  0
   14.5227   46.3191    2.9005 C   0  0  0  0  0  0  0  0  0  0  0  0
   15.4150   45.9062    3.8878 C   0  0  0  0  0  0  0  0  0  0  0  0
   13.8420   44.3208    4.6750 C   0  0  0  0  0  0  0  0  0  0  0  0
   14.2444   42.7291    6.6563 C   0  0  0  0  0  0  0  0  0  0  0  0
   15.5394   43.1847    6.9387 C   0  0  0  0  0  0  0  0  0  0  0  0
   16.2569   42.6160    7.9910 C   0  0  0  0  0  0  0  0  0  0  0  0
   15.6817   41.6002    8.7532 C   0  0  0  0  0  0  0  0  0  0  0  0
   14.3849   41.1647    8.4488 C   0  0  0  0  0  0  0  0  0  0  0  0
   13.7296   40.0765    9.2378 C   0  0  2  0  0  0  0  0  0  0  0  0
   13.5727   40.4751   10.6996 C   0  0  0  0  0  0  0  0  0  0  0  0
   12.9028   39.3437   11.4616 C   0  0  0  0  0  0  0  0  0  0  0  0
   13.7190   38.0566   11.3050 C   0  0  0  0  0  0  0  0  0  0  0  0
   14.5167   38.7644    9.1252 C   0  0  0  0  0  0  0  0  0  0  0  0
   12.6207   37.2958    9.3115 C   0  0  0  0  0  0  0  0  0  0  0  0
   12.7953   36.1363    8.3905 C   0  0  0  0  0  0  0  0  0  0  0  0
   12.6072   34.1935    7.5529 C   0  0  0  0  0  0  0  0  0  0  0  0
   13.4207   34.9565    6.7381 C   0  0  0  0  0  0  0  0  0  0  0  0
   16.7528   46.5441    3.9948 C   0  0  0  0  0  0  0  0  0  0  0  0
   15.0616   44.9204    4.7527 N   0  0  0  0  0  0  0  0  0  0  0  0
   12.9613   44.7135    3.7166 N   0  0  0  0  0  0  0  0  0  0  0  0
   13.4639   43.2794    5.5856 N   0  0  0  0  0  0  0  0  0  0  0  0
   13.7070   41.7362    7.4166 N   0  0  0  0  0  0  0  0  0  0  0  0
   13.9047   37.6728    9.8980 N   0  0  0  0  0  0  0  0  0  0  0  0
   12.2113   34.9436    8.5975 N   0  0  0  0  0  0  0  0  0  0  0  0
   13.5370   36.1870    7.2697 N   0  0  0  0  0  0  0  0  0  0  0  0
  1  2  1  0
  2 22  2  0
  3  4  2  0
  5 21  2  0
  5 23  1  0
  6 24  2  0
  7  8  2  0
  9 10  2  0
 11 10  1  6
 11 12  1  0
 12 13  1  0
 13 14  1  0
 14 25  1  0
 15 25  1  0
 15 11  1  0
 16 25  1  0
 16 17  1  0
 18 26  1  0
 19 27  1  0
 20  4  1  0
 23  6  1  0
 27 17  1  0
  2  3  1  0
  4 21  1  0
  5 22  1  0
  6  7  1  0
  8  9  1  0
 10 24  1  0
 17 26  2  0
 18 19  2  0
M  END
>  <rmsd>  (1) 
0.248348862

$$$$
