MolPort-029-888-758 CSSS00160083815 MCULE-7451351117 PubChem-72842500
     RDKit          3D

 27 29  0  0  0  0  0  0  0  0999 V2000
   18.2805   45.3265   -0.9890 N   0  0  0  0  0  0  0  0  0  0  0  0
   14.4085   44.4040    1.0906 N   0  0  0  0  0  0  0  0  0  0  0  0
   13.0177   44.8410    3.6512 N   0  0  0  0  0  0  0  0  0  0  0  0
   13.4736   43.3188    5.5347 N   0  0  0  0  0  0  0  0  0  0  0  0
   16.9755   45.6838   -1.4355 C   0  0  0  0  0  0  0  0  0  0  0  0
   15.7772   44.9340   -0.9588 C   0  0  1  0  0  0  0  0  0  0  0  0
   15.8840   43.4496   -1.3215 C   0  0  0  0  0  0  0  0  0  0  0  0
   14.9809   42.5648   -0.4572 C   0  0  0  0  0  0  0  0  0  0  0  0
   13.8643   43.3855    0.1821 C   0  0  0  0  0  0  0  0  0  0  0  0
   13.3542   45.3843    1.3009 C   0  0  0  0  0  0  0  0  0  0  0  0
   13.3918   45.9021    2.7293 C   0  0  0  0  0  0  0  0  0  0  0  0
   13.9050   44.3743    4.6671 C   0  0  0  0  0  0  0  0  0  0  0  0
   14.2107   42.7439    6.6224 C   0  0  0  0  0  0  0  0  0  0  0  0
   13.6210   41.7146    7.3644 C   0  0  0  0  0  0  0  0  0  0  0  0
   14.2973   41.1300    8.4403 C   0  0  0  0  0  0  0  0  0  0  0  0
   14.2473   39.4866   10.3021 C   0  0  0  0  0  0  0  0  0  0  0  0
   14.0646   40.3852   11.5173 C   0  0  0  0  0  0  0  0  0  0  0  0
   13.2527   39.6015   12.5285 C   0  0  0  0  0  0  0  0  0  0  0  0
   12.5673   38.5099   11.7429 C   0  0  0  0  0  0  0  0  0  0  0  0
   13.5081   38.1970   10.6027 C   0  0  0  0  0  0  0  0  0  0  0  0
   15.5832   41.5831    8.7745 C   0  0  0  0  0  0  0  0  0  0  0  0
   16.1796   42.6100    8.0395 C   0  0  0  0  0  0  0  0  0  0  0  0
   15.4955   43.1890    6.9675 C   0  0  0  0  0  0  0  0  0  0  0  0
   15.5798   45.1236    0.5500 C   0  0  0  0  0  0  0  0  0  0  0  0
   16.8304   46.6470   -2.2319 O   0  0  0  0  0  0  0  0  0  0  0  0
   15.0503   44.8874    4.7903 O   0  0  0  0  0  0  0  0  0  0  0  0
   13.6708   40.1035    9.1555 O   0  0  0  0  0  0  0  0  0  0  0  0
  1  5  1  0
  3 12  1  0
  4 13  1  0
  6  5  1  1
  6  7  1  0
  7  8  1  0
  8  9  1  0
  9  2  1  0
 10  2  1  0
 10 11  1  0
 11  3  1  0
 12  4  1  0
 14 15  2  0
 15 27  1  0
 16 27  1  0
 16 17  1  0
 17 18  1  0
 18 19  1  0
 19 20  1  0
 20 16  1  0
 21 22  2  0
 23 13  2  0
 24  2  1  0
 24  6  1  0
  5 25  2  0
 12 26  2  0
 13 14  1  0
 15 21  1  0
 22 23  1  0
M  END
>  <rmsd>  (1) 
0.236687362

$$$$
