MolPort-002-865-759 5681527 CHEMBL1549343 CSSS00138423839 MCULE-5667514739 PubChem-4303516 ZINC000005681527 ZINC05681527
     RDKit          3D

 27 29  0  0  0  0  0  0  0  0999 V2000
   14.5363   35.9450   11.9076 F   0  0  0  0  0  0  0  0  0  0  0  0
   15.1927   37.2415   13.6298 F   0  0  0  0  0  0  0  0  0  0  0  0
   13.0674   36.5109   13.5156 F   0  0  0  0  0  0  0  0  0  0  0  0
   14.1479   36.9533   12.7708 C   0  0  0  0  0  0  0  0  0  0  0  0
   13.7939   38.1805   11.9818 C   0  0  0  0  0  0  0  0  0  0  0  0
   12.5105   38.7397   12.0523 C   0  0  0  0  0  0  0  0  0  0  0  0
   12.1999   39.8846   11.3156 C   0  0  0  0  0  0  0  0  0  0  0  0
   13.1691   40.4754   10.5017 C   0  0  0  0  0  0  0  0  0  0  0  0
   14.4550   39.9246   10.4091 C   0  0  0  0  0  0  0  0  0  0  0  0
   14.7596   38.7810   11.1626 C   0  0  0  0  0  0  0  0  0  0  0  0
   15.5029   40.5548    9.5746 C   0  0  0  0  0  0  0  0  0  0  0  0
   14.2673   42.7577    6.6067 C   0  0  0  0  0  0  0  0  0  0  0  0
   13.9000   44.3626    4.6740 C   0  0  0  0  0  0  0  0  0  0  0  0
   12.9930   44.8463    3.6182 C   0  0  0  0  0  0  0  0  0  0  0  0
   11.7183   44.2814    3.4654 C   0  0  0  0  0  0  0  0  0  0  0  0
   10.8571   44.7396    2.4640 C   0  0  0  0  0  0  0  0  0  0  0  0
   11.2643   45.7663    1.6080 C   0  0  0  0  0  0  0  0  0  0  0  0
   12.5325   46.3350    1.7529 C   0  0  0  0  0  0  0  0  0  0  0  0
   13.3938   45.8767    2.7544 C   0  0  0  0  0  0  0  0  0  0  0  0
   16.0129   42.4229    7.9760 C   0  0  0  0  0  0  0  0  0  0  0  0
   16.7109   40.2683    9.7991 O   0  0  0  0  0  0  0  0  0  0  0  0
   15.0443   44.8777    4.8029 O   0  0  0  0  0  0  0  0  0  0  0  0
   17.1730   42.6303    8.4210 O   0  0  0  0  0  0  0  0  0  0  0  0
   15.1857   41.4809    8.5177 N   0  0  0  0  0  0  0  0  0  0  0  0
   13.4773   43.3091    5.5495 N   0  0  0  0  0  0  0  0  0  0  0  0
   15.5235   43.1456    6.9225 N   0  0  0  0  0  0  0  0  0  0  0  0
   13.7831   41.5332    7.6222 S   0  0  0  0  0  0  0  0  0  0  0  0
  4  1  1  0
  4  2  1  0
  4  3  1  0
  4  5  1  0
  6  7  2  0
  8  9  2  0
  9 11  1  0
 10  5  2  0
 11 24  1  0
 12 27  1  0
 12 25  1  0
 13 14  1  0
 15 16  2  0
 17 18  2  0
 19 14  2  0
 20 26  1  0
 20 24  1  0
 24 27  1  0
 25 13  1  0
  5  6  1  0
  7  8  1  0
  9 10  1  0
 11 21  2  0
 12 26  2  0
 13 22  2  0
 14 15  1  0
 16 17  1  0
 18 19  1  0
 20 23  2  0
M  END
>  <rmsd>  (1) 
0.19551152

$$$$
