MolPort-002-864-401 1385280 CHEMBL1326881 CSSS00025732746 MCULE-5033354806 PubChem-1473622 ZINC000001385280 ZINC01385280
     RDKit          3D

 27 29  0  0  0  0  0  0  0  0999 V2000
    9.7575   44.7399   -0.4605 C   0  0  0  0  0  0  0  0  0  0  0  0
   11.7062   45.0827    1.0239 C   0  0  0  0  0  0  0  0  0  0  0  0
   11.2441   44.1434    1.9595 C   0  0  0  0  0  0  0  0  0  0  0  0
   11.9832   43.8784    3.1156 C   0  0  0  0  0  0  0  0  0  0  0  0
   13.1920   44.5472    3.3528 C   0  0  0  0  0  0  0  0  0  0  0  0
   13.6513   45.4843    2.4162 C   0  0  0  0  0  0  0  0  0  0  0  0
   12.9122   45.7496    1.2599 C   0  0  0  0  0  0  0  0  0  0  0  0
   13.9715   44.2660    4.5709 C   0  0  0  0  0  0  0  0  0  0  0  0
   14.2314   42.7601    6.6156 C   0  0  0  0  0  0  0  0  0  0  0  0
   13.5851   42.5164    7.8247 C   0  0  0  0  0  0  0  0  0  0  0  0
   14.2761   41.9426    8.8924 C   0  0  0  0  0  0  0  0  0  0  0  0
   13.5591   41.7138   10.1647 C   0  0  0  0  0  0  0  0  0  0  0  0
   13.5351   40.3905   10.8264 C   0  0  0  0  0  0  0  0  0  0  0  0
   13.0849   40.2767   12.1504 C   0  0  0  0  0  0  0  0  0  0  0  0
   13.0380   39.0286   12.7785 C   0  0  0  0  0  0  0  0  0  0  0  0
   13.4349   37.8821   12.0854 C   0  0  0  0  0  0  0  0  0  0  0  0
   13.8757   37.9831   10.7635 C   0  0  0  0  0  0  0  0  0  0  0  0
   13.9223   39.2310   10.1358 C   0  0  0  0  0  0  0  0  0  0  0  0
   15.6420   41.6428    8.7136 C   0  0  0  0  0  0  0  0  0  0  0  0
   16.4804   41.1099    9.8269 C   0  0  0  0  0  0  0  0  0  0  0  0
   15.5790   42.3729    6.4927 C   0  0  0  0  0  0  0  0  0  0  0  0
   10.9906   45.3701   -0.1416 O   0  0  0  0  0  0  0  0  0  0  0  0
   15.0476   44.8884    4.7860 O   0  0  0  0  0  0  0  0  0  0  0  0
   12.9170   42.6714   10.6759 O   0  0  0  0  0  0  0  0  0  0  0  0
   16.2217   41.8537    7.5350 O   0  0  0  0  0  0  0  0  0  0  0  0
   16.1864   42.4876    5.3958 O   0  0  0  0  0  0  0  0  0  0  0  0
   13.4785   43.3241    5.5330 N   0  0  0  0  0  0  0  0  0  0  0  0
  1 22  1  0
  2 22  1  0
  3  4  2  0
  5  6  2  0
  5  8  1  0
  7  2  2  0
  8 27  1  0
 10 11  1  0
 11 12  1  0
 12 13  1  0
 14 15  2  0
 16 17  2  0
 18 13  2  0
 19 25  1  0
 20 19  1  0
 21 25  1  0
 21  9  1  0
 27  9  1  0
  2  3  1  0
  4  5  1  0
  6  7  1  0
  8 23  2  0
  9 10  2  0
 11 19  2  0
 12 24  2  0
 13 14  1  0
 15 16  1  0
 17 18  1  0
 21 26  2  0
M  END
>  <rmsd>  (1) 
0.248479337

$$$$
