Molport-020-278-640 MCULE-6882409117 PubChem-110255512
     RDKit          3D

 30 33  0  0  0  0  0  0  0  0999 V2000
   12.3393   46.1189    1.7778 C   0  0  0  0  0  0  0  0  0  0  0  0
   13.3079   45.7037    2.8255 C   0  0  0  0  0  0  0  0  0  0  0  0
   14.5536   46.3232    2.9076 C   0  0  0  0  0  0  0  0  0  0  0  0
   15.4339   45.9060    3.9037 C   0  0  0  0  0  0  0  0  0  0  0  0
   13.8482   44.3230    4.6704 C   0  0  0  0  0  0  0  0  0  0  0  0
   14.2264   42.7259    6.6514 C   0  0  0  0  0  0  0  0  0  0  0  0
   14.3617   41.1742    8.4385 C   0  0  0  0  0  0  0  0  0  0  0  0
   16.2079   42.5847    8.0032 C   0  0  0  0  0  0  0  0  0  0  0  0
   15.5199   43.1717    6.9436 C   0  0  0  0  0  0  0  0  0  0  0  0
   17.5837   43.0361    8.3369 C   0  0  0  0  0  0  0  0  0  0  0  0
   13.7240   40.0851    9.2346 C   0  0  2  0  0  0  0  0  0  0  0  0
   13.6195   40.4779   10.7097 C   0  0  0  0  0  0  0  0  0  0  0  0
   12.9690   39.3543   11.5147 C   0  0  0  0  0  0  0  0  0  0  0  0
   13.7734   38.0676   11.3554 C   0  0  0  0  0  0  0  0  0  0  0  0
   14.5051   38.7810    9.0799 C   0  0  0  0  0  0  0  0  0  0  0  0
   13.5570   36.4510    9.4433 C   0  0  0  0  0  0  0  0  0  0  0  0
   13.3408   36.1816    8.0026 C   0  0  0  0  0  0  0  0  0  0  0  0
   12.9890   36.9658    5.7886 C   0  0  0  0  0  0  0  0  0  0  0  0
   12.8919   35.6507    5.3339 C   0  0  0  0  0  0  0  0  0  0  0  0
   13.2337   34.8634    7.5404 C   0  0  0  0  0  0  0  0  0  0  0  0
   16.7723   46.5399    4.0268 C   0  0  0  0  0  0  0  0  0  0  0  0
   15.0685   44.9192    4.7627 N   0  0  0  0  0  0  0  0  0  0  0  0
   12.9790   44.7201    3.7033 N   0  0  0  0  0  0  0  0  0  0  0  0
   13.4573   43.2813    5.5751 N   0  0  0  0  0  0  0  0  0  0  0  0
   13.6792   41.7366    7.4063 N   0  0  0  0  0  0  0  0  0  0  0  0
   15.6213   41.5994    8.7298 N   0  0  0  0  0  0  0  0  0  0  0  0
   13.9130   37.7561    9.9355 N   0  0  0  0  0  0  0  0  0  0  0  0
   13.2075   37.2005    7.1091 N   0  0  0  0  0  0  0  0  0  0  0  0
   13.0150   34.6281    6.2199 N   0  0  0  0  0  0  0  0  0  0  0  0
   13.4117   35.5046   10.2654 O   0  0  0  0  0  0  0  0  0  0  0  0
  1  2  1  0
  2 23  2  0
  3  4  2  0
  5 22  2  0
  5 24  1  0
  7 25  2  0
  8 26  2  0
  9  6  2  0
 10  8  1  0
 11  7  1  6
 11 12  1  0
 12 13  1  0
 13 14  1  0
 14 27  1  0
 15 27  1  0
 15 11  1  0
 16 17  1  0
 18 28  2  0
 19 29  2  0
 20 17  2  0
 21  4  1  0
 24  6  1  0
 27 16  1  0
  2  3  1  0
  4 22  1  0
  5 23  1  0
  6 25  1  0
  7 26  1  0
  8  9  1  0
 16 30  2  0
 17 28  1  0
 18 19  1  0
 20 29  1  0
M  END
>  <rmsd>  (1) 
0.240191489

$$$$
