MolPort-010-691-620 ChemDiv-L497-0025 MCULE-6783665137 PubChem-50829217
     RDKit          3D

 30 33  0  0  0  0  0  0  0  0999 V2000
   16.5338   42.5102    5.4389 C   0  0  0  0  0  0  0  0  0  0  0  0
   15.6650   42.5232    6.6483 C   0  0  0  0  0  0  0  0  0  0  0  0
   14.3075   42.8512    6.7101 C   0  0  0  0  0  0  0  0  0  0  0  0
   13.9754   44.1969    4.5763 C   0  0  0  0  0  0  0  0  0  0  0  0
   13.1554   44.3519    3.3379 C   0  0  1  0  0  0  0  0  0  0  0  0
   12.6348   45.7911    3.2084 C   0  0  0  0  0  0  0  0  0  0  0  0
   13.8803   45.2747    1.2947 C   0  0  0  0  0  0  0  0  0  0  0  0
   13.9886   44.0394    2.0922 C   0  0  0  0  0  0  0  0  0  0  0  0
   12.8311   47.6050    1.4244 C   0  0  0  0  0  0  0  0  0  0  0  0
   12.0560   48.4971    2.1827 C   0  0  0  0  0  0  0  0  0  0  0  0
   11.7782   49.7810    1.7056 C   0  0  0  0  0  0  0  0  0  0  0  0
   12.2727   50.1872    0.4641 C   0  0  0  0  0  0  0  0  0  0  0  0
   13.0450   49.3092   -0.3000 C   0  0  0  0  0  0  0  0  0  0  0  0
   13.3222   48.0253    0.1780 C   0  0  0  0  0  0  0  0  0  0  0  0
   13.7257   42.6095    7.9608 C   0  0  0  0  0  0  0  0  0  0  0  0
   14.6446   42.1238    8.8805 C   0  0  0  0  0  0  0  0  0  0  0  0
   14.1034   39.6408   12.1198 C   0  0  0  0  0  0  0  0  0  0  0  0
   12.8564   38.7832   12.1256 C   0  0  0  0  0  0  0  0  0  0  0  0
   12.7431   38.2719   10.7190 C   0  0  0  0  0  0  0  0  0  0  0  0
   13.4324   39.3284    9.8930 C   0  0  0  0  0  0  0  0  0  0  0  0
   13.5217   43.3110    5.6036 N   0  0  0  0  0  0  0  0  0  0  0  0
   13.1098   46.2844    1.9272 N   0  0  0  0  0  0  0  0  0  0  0  0
   14.4381   39.9671   10.7353 N   0  0  0  0  0  0  0  0  0  0  0  0
   15.0220   44.8834    4.7345 O   0  0  0  0  0  0  0  0  0  0  0  0
   14.4240   45.4147    0.1676 O   0  0  0  0  0  0  0  0  0  0  0  0
   12.8861   42.1227   10.8795 O   0  0  0  0  0  0  0  0  0  0  0  0
   15.2514   42.3903   11.4494 O   0  0  0  0  0  0  0  0  0  0  0  0
   10.8108   50.8796    2.6645 Cl  0  0  0  0  0  0  0  0  0  0  0  0
   16.1488   41.9531    8.1520 S   0  0  0  0  0  0  0  0  0  0  0  0
   14.2850   41.6852   10.5391 S   0  0  0  0  0  0  0  0  0  0  0  0
  1  2  1  0
  2 29  1  0
  3 21  1  0
  3 15  1  0
  5  4  1  1
  5  6  1  0
  6 22  1  0
  8  7  1  0
  8  5  1  0
 10 11  2  0
 11 28  1  0
 12 13  2  0
 14  9  2  0
 16 29  1  0
 17 23  1  0
 17 18  1  0
 18 19  1  0
 19 20  1  0
 20 23  1  0
 21  4  1  0
 22  7  1  0
 22  9  1  0
 30 16  1  0
 30 23  1  0
  2  3  2  0
  4 24  2  0
  7 25  2  0
  9 10  1  0
 11 12  1  0
 13 14  1  0
 15 16  2  0
 30 26  2  0
 30 27  2  0
M  END
>  <rmsd>  (1) 
0.249630034

$$$$
