MolPort-020-269-161 19749405 MCULE-9600677370 PubChem-92634656 ZINC000019749405 ZINC19749405
     RDKit          3D

 30 32  0  0  0  0  0  0  0  0999 V2000
   17.0918   37.2550    8.7522 C   0  0  0  0  0  0  0  0  0  0  0  0
   16.3534   38.2118    9.6207 C   0  0  0  0  0  0  0  0  0  0  0  0
   16.8588   39.3674   10.1940 C   0  0  0  0  0  0  0  0  0  0  0  0
   15.8070   39.8750   10.9273 C   0  0  0  0  0  0  0  0  0  0  0  0
   13.4319   39.2316   11.3678 C   0  0  0  0  0  0  0  0  0  0  0  0
   15.8243   41.1113   11.7626 C   0  0  0  0  0  0  0  0  0  0  0  0
   18.2462   39.9253   10.1024 C   0  0  0  0  0  0  0  0  0  0  0  0
   19.5509   39.3416    8.0562 C   0  0  0  0  0  0  0  0  0  0  0  0
   18.1272   41.4016    8.0481 C   0  0  0  0  0  0  0  0  0  0  0  0
   17.1615   42.3330    8.7101 C   0  0  0  0  0  0  0  0  0  0  0  0
   15.5547   43.1276    6.9904 C   0  0  0  0  0  0  0  0  0  0  0  0
   14.2850   42.7450    6.6089 C   0  0  0  0  0  0  0  0  0  0  0  0
   13.8966   41.6998    7.4211 C   0  0  0  0  0  0  0  0  0  0  0  0
   13.9002   44.3643    4.6868 C   0  0  0  0  0  0  0  0  0  0  0  0
   12.9496   44.8724    3.6573 C   0  0  0  0  0  0  0  0  0  0  0  0
   12.2303   46.0815    4.1586 C   0  0  0  0  0  0  0  0  0  0  0  0
   11.0487   45.9271    4.8940 C   0  0  0  0  0  0  0  0  0  0  0  0
   10.3732   47.0492    5.3822 C   0  0  0  0  0  0  0  0  0  0  0  0
   10.8791   48.3298    5.1391 C   0  0  0  0  0  0  0  0  0  0  0  0
   12.0607   48.4887    4.4096 C   0  0  0  0  0  0  0  0  0  0  0  0
   12.7395   47.3682    3.9200 C   0  0  0  0  0  0  0  0  0  0  0  0
   14.7458   39.0607   10.7713 N   0  0  0  0  0  0  0  0  0  0  0  0
   15.0651   38.0468    9.9829 N   0  0  0  0  0  0  0  0  0  0  0  0
   18.6054   40.2249    8.7207 N   0  0  0  0  0  0  0  0  0  0  0  0
   15.8864   42.3175    8.0107 N   0  0  0  0  0  0  0  0  0  0  0  0
   14.9128   41.4598    8.2724 N   0  0  0  0  0  0  0  0  0  0  0  0
   13.4898   43.3064    5.5593 N   0  0  0  0  0  0  0  0  0  0  0  0
   18.5247   41.6676    6.8815 O   0  0  0  0  0  0  0  0  0  0  0  0
   15.0415   44.8871    4.7902 O   0  0  0  0  0  0  0  0  0  0  0  0
   13.8869   47.5386    3.2164 F   0  0  0  0  0  0  0  0  0  0  0  0
  1  2  1  0
  2  3  1  0
  4 22  1  0
  5 22  1  0
  6  4  1  0
  7  3  1  0
  7 24  1  0
  8 24  1  0
 10  9  1  0
 10 25  1  0
 12 13  1  0
 12 27  1  0
 15 14  1  0
 15 16  1  0
 17 18  2  0
 19 20  2  0
 21 30  1  0
 21 16  2  0
 22 23  1  0
 24  9  1  0
 25 11  1  0
 25 26  1  0
 27 14  1  0
  2 23  2  0
  3  4  2  0
  9 28  2  0
 11 12  2  0
 13 26  2  0
 14 29  2  0
 16 17  1  0
 18 19  1  0
 20 21  1  0
M  END
>  <rmsd>  (1) 
0.157895431

$$$$
