MolPort-035-706-981 CSSS03437789236 MCULE-4701646082 PubChem-91938306
     RDKit          3D

 23 24  0  0  0  0  0  0  0  0999 V2000
   14.7152   36.3133    6.2438 C   0  0  0  0  0  0  0  0  0  0  0  0
   14.7220   36.2665    7.7569 C   0  0  0  0  0  0  0  0  0  0  0  0
   14.5314   37.8382    9.6429 C   0  0  0  0  0  0  0  0  0  0  0  0
   14.3891   39.2560   10.1259 C   0  0  1  0  0  0  0  0  0  0  0  0
   13.4976   39.2987   11.3589 C   0  0  0  0  0  0  0  0  0  0  0  0
   14.3452   41.0609    8.3738 C   0  0  0  0  0  0  0  0  0  0  0  0
   13.6423   41.6776    7.3345 C   0  0  0  0  0  0  0  0  0  0  0  0
   14.2290   42.7112    6.5958 C   0  0  0  0  0  0  0  0  0  0  0  0
   13.9042   44.3804    4.6743 C   0  0  0  0  0  0  0  0  0  0  0  0
   12.9890   44.8967    3.6143 C   0  0  0  0  0  0  0  0  0  0  0  0
   11.7239   45.4590    4.2328 C   0  0  0  0  0  0  0  0  0  0  0  0
   12.6380   43.7952    2.6330 C   0  0  0  0  0  0  0  0  0  0  0  0
   15.5325   43.1258    6.9104 C   0  0  0  0  0  0  0  0  0  0  0  0
   16.2371   42.5140    7.9508 C   0  0  0  0  0  0  0  0  0  0  0  0
   15.6427   41.4821    8.6807 C   0  0  0  0  0  0  0  0  0  0  0  0
   15.7579   39.7944   10.4914 C   0  0  0  0  0  0  0  0  0  0  0  0
   14.5609   37.5797    8.2706 O   0  0  0  0  0  0  0  0  0  0  0  0
   14.6806   36.8958   10.4708 O   0  0  0  0  0  0  0  0  0  0  0  0
   13.7427   40.0295    9.1021 O   0  0  0  0  0  0  0  0  0  0  0  0
   15.0483   44.8930    4.7947 O   0  0  0  0  0  0  0  0  0  0  0  0
   16.4032   39.2834   11.4462 O   0  0  0  0  0  0  0  0  0  0  0  0
   13.4747   43.3155    5.5364 N   0  0  0  0  0  0  0  0  0  0  0  0
   16.3471   40.8627    9.7502 N   0  0  0  0  0  0  0  0  0  0  0  0
  1  2  1  0
  2 17  1  0
  3 17  1  0
  4  3  1  0
  4  5  1  1
  4 19  1  0
  4 16  1  0
  6 19  1  0
  7  8  2  0
  8 22  1  0
 10  9  1  0
 10 11  1  0
 10 12  1  0
 13 14  2  0
 15 23  1  0
 15  6  2  0
 22  9  1  0
 23 16  1  0
  3 18  2  0
  6  7  1  0
  8 13  1  0
  9 20  2  0
 14 15  1  0
 16 21  2  0
M  END
>  <rmsd>  (1) 
0.23260738

$$$$
