MolPort-003-323-677 6804279 CSC027238687 CSSS00027238687 ChemDiv-D039-0111 MCULE-6769502420 PubChem-8087288 Z198974524 ZINC000006804279 ZINC06804279
     RDKit          3D

 25 26  0  0  0  0  0  0  0  0999 V2000
   12.7687   39.2246   11.8043 C   0  0  0  0  0  0  0  0  0  0  0  0
   13.9195   38.9178   10.8689 C   0  0  0  0  0  0  0  0  0  0  0  0
   15.0058   40.6851    9.5410 C   0  0  0  0  0  0  0  0  0  0  0  0
   14.9510   41.6394    8.4148 C   0  0  0  0  0  0  0  0  0  0  0  0
   15.9353   42.5373    8.0187 C   0  0  0  0  0  0  0  0  0  0  0  0
   17.2671   42.7206    8.6611 C   0  0  0  0  0  0  0  0  0  0  0  0
   14.3022   42.8135    6.6588 C   0  0  0  0  0  0  0  0  0  0  0  0
   13.8998   44.3351    4.6641 C   0  0  0  0  0  0  0  0  0  0  0  0
   13.2059   45.7307    2.6272 C   0  0  0  0  0  0  0  0  0  0  0  0
   14.3995   46.4628    2.5541 C   0  0  0  0  0  0  0  0  0  0  0  0
   14.5757   47.4304    1.5618 C   0  0  0  0  0  0  0  0  0  0  0  0
   13.5617   47.6842    0.6241 C   0  0  0  0  0  0  0  0  0  0  0  0
   12.3686   46.9477    0.7025 C   0  0  0  0  0  0  0  0  0  0  0  0
   12.1940   45.9801    1.6957 C   0  0  0  0  0  0  0  0  0  0  0  0
   12.7004   48.9551   -1.3776 C   0  0  0  0  0  0  0  0  0  0  0  0
   14.9727   49.4520   -0.4928 C   0  0  0  0  0  0  0  0  0  0  0  0
   13.9026   41.8252    7.5320 C   0  0  0  0  0  0  0  0  0  0  0  0
   12.5928   41.1122    7.5107 C   0  0  0  0  0  0  0  0  0  0  0  0
   13.9182   39.8469    9.7954 O   0  0  0  0  0  0  0  0  0  0  0  0
   16.0325   40.6281   10.2716 O   0  0  0  0  0  0  0  0  0  0  0  0
   15.0324   44.8791    4.7669 O   0  0  0  0  0  0  0  0  0  0  0  0
   15.5429   43.2559    6.9470 N   0  0  0  0  0  0  0  0  0  0  0  0
   13.5015   43.3102    5.5799 N   0  0  0  0  0  0  0  0  0  0  0  0
   12.9881   44.7296    3.6310 N   0  0  0  0  0  0  0  0  0  0  0  0
   13.7421   48.6812   -0.3991 N   0  0  0  0  0  0  0  0  0  0  0  0
  1  2  1  0
  2 19  1  0
  3 19  1  0
  3  4  1  0
  5 22  1  0
  6  5  1  0
  7 23  1  0
  8 24  1  0
 10 11  2  0
 12 13  2  0
 12 25  1  0
 14  9  2  0
 15 25  1  0
 16 25  1  0
 17  4  1  0
 18 17  1  0
 22  7  1  0
 23  8  1  0
 24  9  1  0
  3 20  2  0
  4  5  2  0
  7 17  2  0
  8 21  2  0
  9 10  1  0
 11 12  1  0
 13 14  1  0
M  END
>  <rmsd>  (1) 
0.205451518

$$$$
