MolPort-007-967-231 ChemDiv-L497-0056 MCULE-7478783920 PubChem-46385455 ZINC000033129565 ZINC33129565
     RDKit          3D

 28 30  0  0  0  0  0  0  0  0999 V2000
   16.3252   40.4462   -1.1527 C   0  0  0  0  0  0  0  0  0  0  0  0
   14.7574   41.2111    0.6098 C   0  0  0  0  0  0  0  0  0  0  0  0
   15.3369   42.4920    0.6175 C   0  0  0  0  0  0  0  0  0  0  0  0
   14.8579   43.4881    1.4682 C   0  0  0  0  0  0  0  0  0  0  0  0
   13.7875   43.2197    2.3214 C   0  0  0  0  0  0  0  0  0  0  0  0
   13.2931   44.2733    3.2527 C   0  0  0  0  0  0  0  0  0  0  0  0
   14.0075   44.1833    4.5569 C   0  0  0  0  0  0  0  0  0  0  0  0
   14.2501   42.8597    6.7130 C   0  0  0  0  0  0  0  0  0  0  0  0
   15.6038   42.5121    6.6947 C   0  0  0  0  0  0  0  0  0  0  0  0
   16.5066   42.4751    5.5107 C   0  0  0  0  0  0  0  0  0  0  0  0
   14.5112   42.1498    8.8993 C   0  0  0  0  0  0  0  0  0  0  0  0
   13.6274   42.6386    7.9477 C   0  0  0  0  0  0  0  0  0  0  0  0
   13.8570   39.2107   10.0268 C   0  0  0  0  0  0  0  0  0  0  0  0
   13.6763   38.0376   10.9573 C   0  0  0  0  0  0  0  0  0  0  0  0
   13.3876   38.6723   12.2862 C   0  0  0  0  0  0  0  0  0  0  0  0
   12.7539   40.0022   11.9417 C   0  0  0  0  0  0  0  0  0  0  0  0
   13.2070   41.9491    2.3299 C   0  0  0  0  0  0  0  0  0  0  0  0
   13.6749   40.9365    1.4842 C   0  0  0  0  0  0  0  0  0  0  0  0
   13.3750   38.5503    0.7910 C   0  0  0  0  0  0  0  0  0  0  0  0
   15.2475   40.2234   -0.2526 O   0  0  0  0  0  0  0  0  0  0  0  0
   15.0388   44.8804    4.7512 O   0  0  0  0  0  0  0  0  0  0  0  0
   13.3475   42.8915   11.1654 O   0  0  0  0  0  0  0  0  0  0  0  0
   15.3372   41.4780   11.3402 O   0  0  0  0  0  0  0  0  0  0  0  0
   13.0291   39.6933    1.5601 O   0  0  0  0  0  0  0  0  0  0  0  0
   13.5057   43.3152    5.5772 N   0  0  0  0  0  0  0  0  0  0  0  0
   13.0731   40.3236   10.5524 N   0  0  0  0  0  0  0  0  0  0  0  0
   16.0345   41.9498    8.2174 S   0  0  0  0  0  0  0  0  0  0  0  0
   14.0839   41.7352   10.5484 S   0  0  0  0  0  0  0  0  0  0  0  0
  1 20  1  0
  2 20  1  0
  3  4  2  0
  5 17  2  0
  6  5  1  0
  6  7  1  0
  7 25  1  0
  9 27  1  0
 10  9  1  0
 11 27  1  0
 12  8  1  0
 13 26  1  0
 13 14  1  0
 14 15  1  0
 15 16  1  0
 16 26  1  0
 18 24  1  0
 18  2  2  0
 19 24  1  0
 25  8  1  0
 28 11  1  0
 28 26  1  0
  2  3  1  0
  4  5  1  0
  7 21  2  0
  8  9  2  0
 11 12  2  0
 17 18  1  0
 28 22  2  0
 28 23  2  0
M  END
>  <rmsd>  (1) 
0.249598399

$$$$
