MolPort-005-095-744 CSSS00159509504 MCULE-3732932308 PubChem-45218315
     RDKit          3D

 36 40  0  0  0  0  0  0  0  0999 V2000
   15.7343   42.4163    8.1440 N   0  0  0  0  0  0  0  0  0  0  0  0
   14.7375   41.5766    8.3901 N   0  0  0  0  0  0  0  0  0  0  0  0
   13.4763   43.3180    5.5316 N   0  0  0  0  0  0  0  0  0  0  0  0
   16.3666   42.2011   11.4112 N   0  0  0  0  0  0  0  0  0  0  0  0
   14.7103   37.7130   12.6335 N   0  0  0  0  0  0  0  0  0  0  0  0
   15.4626   43.1923    7.0809 C   0  0  0  0  0  0  0  0  0  0  0  0
   14.2105   42.8002    6.6471 C   0  0  0  0  0  0  0  0  0  0  0  0
   13.7713   41.7871    7.4759 C   0  0  0  0  0  0  0  0  0  0  0  0
   13.9300   44.3393    4.6295 C   0  0  0  0  0  0  0  0  0  0  0  0
   13.0679   44.7453    3.4980 C   0  0  0  0  0  0  0  0  0  0  0  0
   11.8442   44.0861    3.3064 C   0  0  0  0  0  0  0  0  0  0  0  0
   11.0006   44.4379    2.2513 C   0  0  0  0  0  0  0  0  0  0  0  0
   11.3680   45.4608    1.3766 C   0  0  0  0  0  0  0  0  0  0  0  0
   12.5814   46.1274    1.5528 C   0  0  0  0  0  0  0  0  0  0  0  0
   13.4336   45.7754    2.6046 C   0  0  0  0  0  0  0  0  0  0  0  0
   16.9463   42.4940    8.9434 C   0  0  0  0  0  0  0  0  0  0  0  0
   16.6419   43.0615   10.2943 C   0  0  0  0  0  0  0  0  0  0  0  0
   16.1662   42.7684   12.7446 C   0  0  0  0  0  0  0  0  0  0  0  0
   15.0086   42.0605   13.4394 C   0  0  0  0  0  0  0  0  0  0  0  0
   15.2429   40.5492   13.4356 C   0  0  0  0  0  0  0  0  0  0  0  0
   15.4086   40.0020   12.0063 C   0  0  2  0  0  0  0  0  0  0  0  0
   14.1084   40.1522   11.1997 C   0  0  0  0  0  0  0  0  0  0  0  0
   13.0184   39.2048   11.6991 C   0  0  0  0  0  0  0  0  0  0  0  0
   13.5639   37.7797   11.7301 C   0  0  0  0  0  0  0  0  0  0  0  0
   15.1695   36.3321   12.6316 C   0  0  0  0  0  0  0  0  0  0  0  0
   15.2167   35.8089   14.0271 C   0  0  0  0  0  0  0  0  0  0  0  0
   14.3778   34.7528   14.4012 C   0  0  0  0  0  0  0  0  0  0  0  0
   14.4240   34.2511   15.7076 C   0  0  0  0  0  0  0  0  0  0  0  0
   15.3092   34.8026   16.6400 C   0  0  0  0  0  0  0  0  0  0  0  0
   16.1509   35.8550   16.2660 C   0  0  0  0  0  0  0  0  0  0  0  0
   16.1067   36.3574   14.9608 C   0  0  0  0  0  0  0  0  0  0  0  0
   15.7944   38.5185   12.0669 C   0  0  0  0  0  0  0  0  0  0  0  0
   16.5375   40.7511   11.2913 C   0  0  0  0  0  0  0  0  0  0  0  0
   15.0586   44.8786    4.7960 O   0  0  0  0  0  0  0  0  0  0  0  0
   16.5953   44.3150   10.4305 O   0  0  0  0  0  0  0  0  0  0  0  0
   14.6098   46.4378    2.7360 F   0  0  0  0  0  0  0  0  0  0  0  0
  1  6  1  0
  1  2  1  0
  3  9  1  0
  7  8  1  0
  7  3  1  0
  9 10  1  0
 11 12  2  0
 13 14  2  0
 15 36  1  0
 15 10  2  0
 16  1  1  0
 16 17  1  0
 17  4  1  0
 18  4  1  0
 18 19  1  0
 19 20  1  0
 21 20  1  1
 21 22  1  0
 21 33  1  0
 22 23  1  0
 23 24  1  0
 24  5  1  0
 25  5  1  0
 25 26  1  0
 27 28  2  0
 29 30  2  0
 31 26  2  0
 32  5  1  0
 32 21  1  0
 33  4  1  0
  6  7  2  0
  8  2  2  0
  9 34  2  0
 10 11  1  0
 12 13  1  0
 14 15  1  0
 17 35  2  0
 26 27  1  0
 28 29  1  0
 30 31  1  0
M  END
>  <rmsd>  (1) 
0.248104423

$$$$
