Molport-046-988-330 MCULE-4942212263 PubChem-110130929
     RDKit          3D

 24 26  0  0  0  0  0  0  0  0999 V2000
   12.8962   44.9345    3.7542 C   0  0  0  0  0  0  0  0  0  0  0  0
   13.8792   44.3912    4.7268 C   0  0  0  0  0  0  0  0  0  0  0  0
   14.3195   42.6609    6.5572 C   0  0  0  0  0  0  0  0  0  0  0  0
   14.8139   41.1809    8.1789 C   0  0  0  0  0  0  0  0  0  0  0  0
   16.0272   41.8603    8.1129 C   0  0  0  0  0  0  0  0  0  0  0  0
   17.2062   41.5732    8.9426 C   0  0  0  0  0  0  0  0  0  0  0  0
   18.3822   42.3191    8.8073 C   0  0  0  0  0  0  0  0  0  0  0  0
   19.4047   41.0302   10.5113 C   0  0  0  0  0  0  0  0  0  0  0  0
   18.2331   40.2845   10.6528 C   0  0  0  0  0  0  0  0  0  0  0  0
   18.1726   39.1762   11.6597 C   0  0  2  0  0  0  0  0  0  0  0  0
   18.1561   37.7918   10.9968 C   0  0  0  0  0  0  0  0  0  0  0  0
   16.8013   37.4786   10.3585 C   0  0  0  0  0  0  0  0  0  0  0  0
   15.6902   37.6103   11.3937 C   0  0  0  0  0  0  0  0  0  0  0  0
   17.0024   39.3453   12.6353 C   0  0  0  0  0  0  0  0  0  0  0  0
   14.6326   39.8341   11.9440 C   0  0  0  0  0  0  0  0  0  0  0  0
   13.3624   39.4361   11.2717 C   0  0  0  0  0  0  0  0  0  0  0  0
   15.0289   44.8999    4.7913 O   0  0  0  0  0  0  0  0  0  0  0  0
   14.7136   40.9811   12.4589 O   0  0  0  0  0  0  0  0  0  0  0  0
   13.4988   43.2995    5.5714 N   0  0  0  0  0  0  0  0  0  0  0  0
   13.8707   41.6336    7.3095 N   0  0  0  0  0  0  0  0  0  0  0  0
   19.4533   42.0307    9.5927 N   0  0  0  0  0  0  0  0  0  0  0  0
   17.1637   40.5718    9.8616 N   0  0  0  0  0  0  0  0  0  0  0  0
   15.7506   38.9361   12.0016 N   0  0  0  0  0  0  0  0  0  0  0  0
   15.9129   43.0596    6.9344 S   0  0  0  0  0  0  0  0  0  0  0  0
  1  2  1  0
  2 19  1  0
  3 24  1  0
  4 20  1  0
  5 24  1  0
  5  6  1  0
  6 22  2  0
  7 21  2  0
  8  9  2  0
 10  9  1  6
 10 11  1  0
 11 12  1  0
 12 13  1  0
 13 23  1  0
 14 23  1  0
 14 10  1  0
 16 15  1  0
 19  3  1  0
 23 15  1  0
  2 17  2  0
  3 20  2  0
  4  5  2  0
  6  7  1  0
  8 21  1  0
  9 22  1  0
 15 18  2  0
M  END
>  <rmsd>  (1) 
0.209469035

$$$$
