MolPort-006-579-754 ChemDiv-V018-7053 MCULE-7734573866 PubChem-46040718 ZINC000037544477 ZINC37544477
     RDKit          3D

 30 32  0  0  0  0  0  0  0  0999 V2000
   11.9036   44.2754    1.7326 C   0  0  0  0  0  0  0  0  0  0  0  0
   12.9752   44.7879    3.5910 C   0  0  0  0  0  0  0  0  0  0  0  0
   13.9033   44.3438    4.6655 C   0  0  0  0  0  0  0  0  0  0  0  0
   14.2630   42.7537    6.6439 C   0  0  0  0  0  0  0  0  0  0  0  0
   13.6903   41.7517    7.4336 C   0  0  0  0  0  0  0  0  0  0  0  0
   14.4029   41.1630    8.4918 C   0  0  0  0  0  0  0  0  0  0  0  0
   15.7078   41.6127    8.7548 C   0  0  0  0  0  0  0  0  0  0  0  0
   16.2886   42.6132    7.9725 C   0  0  0  0  0  0  0  0  0  0  0  0
   15.5691   43.1807    6.9196 C   0  0  0  0  0  0  0  0  0  0  0  0
   14.3906   39.8451   10.6256 C   0  0  0  0  0  0  0  0  0  0  0  0
   13.2898   39.5965   11.6430 C   0  0  0  0  0  0  0  0  0  0  0  0
   12.4675   38.3789   11.2319 C   0  0  0  0  0  0  0  0  0  0  0  0
   11.0069   37.5182    9.3986 C   0  0  0  0  0  0  0  0  0  0  0  0
   11.5724   36.4000    8.5876 C   0  0  0  0  0  0  0  0  0  0  0  0
   11.3887   36.3811    7.2014 C   0  0  0  0  0  0  0  0  0  0  0  0
   11.9359   35.3486    6.4265 C   0  0  0  0  0  0  0  0  0  0  0  0
   12.6422   34.3160    7.0603 C   0  0  0  0  0  0  0  0  0  0  0  0
   12.8260   34.3326    8.4458 C   0  0  0  0  0  0  0  0  0  0  0  0
   12.2944   35.3755    9.2087 C   0  0  0  0  0  0  0  0  0  0  0  0
   11.6957   35.3029    4.9456 C   0  0  0  0  0  0  0  0  0  0  0  0
   12.6898   39.3284    8.8904 C   0  0  0  0  0  0  0  0  0  0  0  0
   12.7089   43.7251    2.7284 O   0  0  0  0  0  0  0  0  0  0  0  0
   15.0328   44.8907    4.7673 O   0  0  0  0  0  0  0  0  0  0  0  0
   12.2709   39.3878    7.7019 O   0  0  0  0  0  0  0  0  0  0  0  0
   13.4921   43.3109    5.5709 N   0  0  0  0  0  0  0  0  0  0  0  0
   13.8038   40.1402    9.3192 N   0  0  0  0  0  0  0  0  0  0  0  0
   12.0618   38.4302    9.8260 N   0  0  0  0  0  0  0  0  0  0  0  0
   10.5552   34.5649    4.6908 F   0  0  0  0  0  0  0  0  0  0  0  0
   12.7696   34.7125    4.3021 F   0  0  0  0  0  0  0  0  0  0  0  0
   11.5286   36.5816    4.4425 F   0  0  0  0  0  0  0  0  0  0  0  0
  1 22  1  0
  2 22  1  0
  2  3  1  0
  3 25  1  0
  5  6  2  0
  6 26  1  0
  7  8  2  0
  9  4  2  0
 10 26  1  0
 10 11  1  0
 11 12  1  0
 12 27  1  0
 13 27  1  0
 13 14  1  0
 15 16  2  0
 17 18  2  0
 19 14  2  0
 20 16  1  0
 20 28  1  0
 20 29  1  0
 20 30  1  0
 21 26  1  0
 25  4  1  0
 27 21  1  0
  3 23  2  0
  4  5  1  0
  6  7  1  0
  8  9  1  0
 14 15  1  0
 16 17  1  0
 18 19  1  0
 21 24  2  0
M  END
>  <rmsd>  (1) 
0.243412167

$$$$
