MolPort-007-723-581 6818374 ChemDiv-E157-6421 MCULE-1653935554 PubChem-22518106 ZINC000006818374 ZINC06818374
     RDKit          3D

 23 24  0  0  0  0  0  0  0  0999 V2000
   13.4058   47.2485    3.4672 C   0  0  0  0  0  0  0  0  0  0  0  0
   13.5491   45.9316    2.7278 C   0  0  0  0  0  0  0  0  0  0  0  0
   12.9890   44.7896    3.5663 C   0  0  0  0  0  0  0  0  0  0  0  0
   13.9115   44.3469    4.6631 C   0  0  0  0  0  0  0  0  0  0  0  0
   14.2377   42.7838    6.6369 C   0  0  0  0  0  0  0  0  0  0  0  0
   15.1357   41.6314    8.5251 C   0  0  0  0  0  0  0  0  0  0  0  0
   13.5232   39.2689   11.2322 C   0  0  0  0  0  0  0  0  0  0  0  0
   13.5578   41.7640   11.5575 C   0  0  0  0  0  0  0  0  0  0  0  0
   12.4076   41.6904   12.3618 C   0  0  0  0  0  0  0  0  0  0  0  0
   11.8579   42.8447   12.9268 C   0  0  0  0  0  0  0  0  0  0  0  0
   12.4521   44.0870   12.6943 C   0  0  0  0  0  0  0  0  0  0  0  0
   11.8677   45.3144   13.2945 C   0  0  0  0  0  0  0  0  0  0  0  0
   13.5959   44.1753   11.8979 C   0  0  0  0  0  0  0  0  0  0  0  0
   14.1448   43.0207   11.3337 C   0  0  0  0  0  0  0  0  0  0  0  0
   15.0512   44.8706    4.8009 O   0  0  0  0  0  0  0  0  0  0  0  0
   15.8659   39.2571    9.4538 O   0  0  0  0  0  0  0  0  0  0  0  0
   16.6679   41.2218   10.6715 O   0  0  0  0  0  0  0  0  0  0  0  0
   13.4740   43.3106    5.5475 N   0  0  0  0  0  0  0  0  0  0  0  0
   15.4784   43.2035    6.9705 N   0  0  0  0  0  0  0  0  0  0  0  0
   15.9780   42.5608    8.0243 N   0  0  0  0  0  0  0  0  0  0  0  0
   14.1201   40.5720   10.9726 N   0  0  0  0  0  0  0  0  0  0  0  0
   13.6914   41.5658    7.6608 S   0  0  0  0  0  0  0  0  0  0  0  0
   15.5032   40.6391    9.9210 S   0  0  0  0  0  0  0  0  0  0  0  0
  1  2  1  0
  2  3  1  0
  3  4  1  0
  4 18  1  0
  5 22  1  0
  6 22  1  0
  7 21  1  0
  9 10  2  0
 11 13  2  0
 12 11  1  0
 14  8  2  0
 18  5  1  0
 19 20  1  0
 21  8  1  0
 23  6  1  0
 23 21  1  0
  4 15  2  0
  5 19  2  0
  6 20  2  0
  8  9  1  0
 10 11  1  0
 13 14  1  0
 23 16  2  0
 23 17  2  0
M  END
>  <rmsd>  (1) 
0.200395226

$$$$
