MolPort-020-281-700 MCULE-7223028372 PubChem-110257379
     RDKit          3D

 20 22  0  0  0  0  0  0  0  0999 V2000
   14.8085   36.5620    9.8561 C   0  0  0  0  0  0  0  0  0  0  0  0
   13.9581   38.1167   11.3802 C   0  0  0  0  0  0  0  0  0  0  0  0
   13.0802   39.3493   11.5848 C   0  0  0  0  0  0  0  0  0  0  0  0
   13.6188   40.5042   10.7465 C   0  0  0  0  0  0  0  0  0  0  0  0
   13.7634   40.0765    9.2855 C   0  0  2  0  0  0  0  0  0  0  0  0
   14.5917   38.7926    9.1943 C   0  0  0  0  0  0  0  0  0  0  0  0
   14.3727   41.1684    8.4645 C   0  0  0  0  0  0  0  0  0  0  0  0
   13.6417   41.7139    7.4067 C   0  0  0  0  0  0  0  0  0  0  0  0
   14.2009   42.7340    6.6329 C   0  0  0  0  0  0  0  0  0  0  0  0
   16.1865   42.6727    7.9419 C   0  0  0  0  0  0  0  0  0  0  0  0
   15.6593   41.6529    8.7353 C   0  0  0  0  0  0  0  0  0  0  0  0
   13.8590   44.3275    4.6641 C   0  0  0  0  0  0  0  0  0  0  0  0
   15.4769   45.9034    3.9399 C   0  0  0  0  0  0  0  0  0  0  0  0
   14.6118   46.3287    2.9307 C   0  0  0  0  0  0  0  0  0  0  0  0
   12.9958   44.7554    3.6531 C   0  0  0  0  0  0  0  0  0  0  0  0
   13.9551   37.7300    9.9704 N   0  0  0  0  0  0  0  0  0  0  0  0
   15.4542   43.1868    6.9179 N   0  0  0  0  0  0  0  0  0  0  0  0
   13.4394   43.2838    5.5512 N   0  0  0  0  0  0  0  0  0  0  0  0
   15.0821   44.9135    4.7834 N   0  0  0  0  0  0  0  0  0  0  0  0
   13.3903   45.7454    2.8093 N   0  0  0  0  0  0  0  0  0  0  0  0
  1 16  1  0
  2 16  1  0
  2  3  1  0
  3  4  1  0
  4  5  1  0
  5  6  1  0
  5  7  1  6
  6 16  1  0
  8  9  2  0
  9 18  1  0
 10 17  2  0
 11  7  2  0
 13 19  2  0
 14 20  2  0
 15 12  2  0
 18 12  1  0
  7  8  1  0
  9 17  1  0
 10 11  1  0
 12 19  1  0
 13 14  1  0
 15 20  1  0
M  END
>  <rmsd>  (1) 
0.249390125

$$$$
