MolPort-007-723-587 ChemDiv-E157-6434 MCULE-8263968904 PubChem-22518109 ZINC000009405031 ZINC09405031
     RDKit          3D

 29 31  0  0  0  0  0  0  0  0999 V2000
   13.5531   39.4279   11.3215 C   0  0  0  0  0  0  0  0  0  0  0  0
   14.2264   41.8339   11.6211 C   0  0  0  0  0  0  0  0  0  0  0  0
   13.2627   41.9936   12.6318 C   0  0  0  0  0  0  0  0  0  0  0  0
   13.1037   43.2233   13.2770 C   0  0  0  0  0  0  0  0  0  0  0  0
   13.9073   44.3083   12.9199 C   0  0  0  0  0  0  0  0  0  0  0  0
   13.7372   45.6165   13.6037 C   0  0  0  0  0  0  0  0  0  0  0  0
   14.8684   44.1644   11.9171 C   0  0  0  0  0  0  0  0  0  0  0  0
   15.0270   42.9345   11.2730 C   0  0  0  0  0  0  0  0  0  0  0  0
   15.1740   41.4152    8.3497 C   0  0  0  0  0  0  0  0  0  0  0  0
   14.2488   42.6980    6.5616 C   0  0  0  0  0  0  0  0  0  0  0  0
   13.9039   44.3826    4.6954 C   0  0  0  0  0  0  0  0  0  0  0  0
   13.0011   44.8915    3.6298 C   0  0  0  0  0  0  0  0  0  0  0  0
   12.5846   44.3997    1.2026 C   0  0  0  0  0  0  0  0  0  0  0  0
   11.4675   45.2626    1.0335 C   0  0  0  0  0  0  0  0  0  0  0  0
   10.8838   46.0768    2.1367 C   0  0  0  0  0  0  0  0  0  0  0  0
   10.8570   45.3658   -0.2213 C   0  0  0  0  0  0  0  0  0  0  0  0
   11.3332   44.6310   -1.3076 C   0  0  0  0  0  0  0  0  0  0  0  0
   12.4277   43.7827   -1.1470 C   0  0  0  0  0  0  0  0  0  0  0  0
   13.0453   43.6699    0.0996 C   0  0  0  0  0  0  0  0  0  0  0  0
   14.3873   40.5646   10.9562 N   0  0  0  0  0  0  0  0  0  0  0  0
   16.0349   42.3322    7.8572 N   0  0  0  0  0  0  0  0  0  0  0  0
   15.5203   43.0468    6.8581 N   0  0  0  0  0  0  0  0  0  0  0  0
   13.4654   43.3073    5.5313 N   0  0  0  0  0  0  0  0  0  0  0  0
   15.5513   40.3451    9.6840 S   0  0  0  0  0  0  0  0  0  0  0  0
   13.6924   41.4553    7.5500 S   0  0  0  0  0  0  0  0  0  0  0  0
   15.5213   38.9247    9.1929 O   0  0  0  0  0  0  0  0  0  0  0  0
   16.9267   40.6461   10.2095 O   0  0  0  0  0  0  0  0  0  0  0  0
   15.0535   44.8812    4.8250 O   0  0  0  0  0  0  0  0  0  0  0  0
   13.2746   44.2141    2.4114 O   0  0  0  0  0  0  0  0  0  0  0  0
  1 20  1  0
  3  4  2  0
  5  7  2  0
  6  5  1  0
  8  2  2  0
  9 25  1  0
 10 23  1  0
 10 25  1  0
 12 11  1  0
 12 29  1  0
 13 29  1  0
 14 16  2  0
 15 14  1  0
 17 18  2  0
 19 13  2  0
 20  2  1  0
 21 22  1  0
 23 11  1  0
 24 20  1  0
 24  9  1  0
  2  3  1  0
  4  5  1  0
  7  8  1  0
  9 21  2  0
 10 22  2  0
 11 28  2  0
 13 14  1  0
 16 17  1  0
 18 19  1  0
 24 26  2  0
 24 27  2  0
M  END
>  <rmsd>  (1) 
0.212955073

$$$$
