MolPort-002-607-856 2401556 PubChem-1635589 ZINC000002401556 ZINC02401556
     RDKit          3D

 26 29  0  0  0  0  0  0  0  0999 V2000
   12.8234   39.0104   11.4832 C   0  0  0  0  0  0  0  0  0  0  0  0
   14.3145   39.2198   11.2975 C   0  0  0  0  0  0  0  0  0  0  0  0
   14.5989   39.8243    9.9346 C   0  0  0  0  0  0  0  0  0  0  0  0
   14.2392   41.3017    9.9234 C   0  0  0  0  0  0  0  0  0  0  0  0
   14.2027   42.8083    6.6832 C   0  0  0  0  0  0  0  0  0  0  0  0
   14.0062   44.2169    4.5635 C   0  0  0  0  0  0  0  0  0  0  0  0
   13.2798   44.4174    3.3057 C   0  0  0  0  0  0  0  0  0  0  0  0
   12.1123   43.7791    2.9444 C   0  0  0  0  0  0  0  0  0  0  0  0
   11.8080   44.2817    1.6913 C   0  0  0  0  0  0  0  0  0  0  0  0
   12.8061   45.1878    1.3751 C   0  0  0  0  0  0  0  0  0  0  0  0
   15.5704   42.6238    6.8131 C   0  0  0  0  0  0  0  0  0  0  0  0
   16.6620   42.8374    5.9786 C   0  0  0  0  0  0  0  0  0  0  0  0
   17.9253   42.4674    6.4716 C   0  0  0  0  0  0  0  0  0  0  0  0
   19.0655   42.6667    5.6914 C   0  0  0  0  0  0  0  0  0  0  0  0
   20.3207   42.2973    6.1806 C   0  0  0  0  0  0  0  0  0  0  0  0
   20.4430   41.7259    7.4507 C   0  0  0  0  0  0  0  0  0  0  0  0
   19.3137   41.5158    8.2485 C   0  0  0  0  0  0  0  0  0  0  0  0
   19.4871   40.9013    9.5957 C   0  0  0  0  0  0  0  0  0  0  0  0
   18.0436   41.8827    7.7721 C   0  0  0  0  0  0  0  0  0  0  0  0
   15.7185   42.0497    8.0407 C   0  0  0  0  0  0  0  0  0  0  0  0
   14.5170   41.8783    8.6166 N   0  0  0  0  0  0  0  0  0  0  0  0
   13.5813   42.3341    7.7912 N   0  0  0  0  0  0  0  0  0  0  0  0
   13.4895   43.3142    5.5481 N   0  0  0  0  0  0  0  0  0  0  0  0
   16.9252   41.6765    8.5349 N   0  0  0  0  0  0  0  0  0  0  0  0
   15.0542   44.8795    4.7854 O   0  0  0  0  0  0  0  0  0  0  0  0
   13.6655   45.2402    2.3640 O   0  0  0  0  0  0  0  0  0  0  0  0
  1  2  1  0
  2  3  1  0
  3  4  1  0
  4 21  1  0
  5 23  1  0
  5 11  1  0
  6  7  1  0
  7 26  1  0
  8  9  1  0
 10 26  1  0
 12 13  2  0
 14 15  2  0
 16 17  2  0
 18 17  1  0
 19 24  2  0
 19 13  1  0
 20 21  1  0
 20 11  2  0
 21 22  1  0
 23  6  1  0
  5 22  2  0
  6 25  2  0
  7  8  2  0
  9 10  2  0
 11 12  1  0
 13 14  1  0
 15 16  1  0
 17 19  1  0
 20 24  1  0
M  END
>  <rmsd>  (1) 
0.200935543

$$$$
