MolPort-047-071-969 PubChem-132767160
     RDKit          3D

 33 36  0  0  0  0  0  0  0  0999 V2000
   16.8075   46.5287    4.0711 C   0  0  0  0  0  0  0  0  0  0  0  0
   15.4630   45.9135    3.9239 C   0  0  0  0  0  0  0  0  0  0  0  0
   13.8504   44.3294    4.6684 C   0  0  0  0  0  0  0  0  0  0  0  0
   12.9617   44.7470    3.6740 C   0  0  0  0  0  0  0  0  0  0  0  0
   13.3410   45.7645    2.7968 C   0  0  0  0  0  0  0  0  0  0  0  0
   14.5996   46.3545    2.9193 C   0  0  0  0  0  0  0  0  0  0  0  0
   14.2129   42.7201    6.6404 C   0  0  0  0  0  0  0  0  0  0  0  0
   13.6428   41.6992    7.4046 C   0  0  0  0  0  0  0  0  0  0  0  0
   14.3665   41.1351    8.4586 C   0  0  0  0  0  0  0  0  0  0  0  0
   16.2017   42.5747    8.0073 C   0  0  0  0  0  0  0  0  0  0  0  0
   15.5068   43.1604    6.9478 C   0  0  0  0  0  0  0  0  0  0  0  0
   17.5744   43.0360    8.3395 C   0  0  0  0  0  0  0  0  0  0  0  0
   13.7517   40.0438    9.2702 C   0  0  2  0  0  0  0  0  0  0  0  0
   13.6218   40.4670   10.7352 C   0  0  0  0  0  0  0  0  0  0  0  0
   12.9999   39.3433   11.5613 C   0  0  0  0  0  0  0  0  0  0  0  0
   13.8496   38.0827   11.4406 C   0  0  0  0  0  0  0  0  0  0  0  0
   14.5707   38.7579    9.1502 C   0  0  0  0  0  0  0  0  0  0  0  0
   13.7339   36.4189    9.5170 C   0  0  0  0  0  0  0  0  0  0  0  0
   12.8496   35.4548   10.1974 C   0  0  0  0  0  0  0  0  0  0  0  0
   12.0857   35.7591   11.2408 C   0  0  0  0  0  0  0  0  0  0  0  0
   11.2111   34.7787   11.9039 C   0  0  0  0  0  0  0  0  0  0  0  0
   11.0038   33.4389   11.6153 C   0  0  0  0  0  0  0  0  0  0  0  0
   10.3929   35.0232   12.9928 C   0  0  0  0  0  0  0  0  0  0  0  0
   10.2384   36.3224   13.7037 C   0  0  0  0  0  0  0  0  0  0  0  0
    9.6124   31.5855   12.5530 C   0  0  0  0  0  0  0  0  0  0  0  0
   11.6403   32.6424   10.5242 C   0  0  0  0  0  0  0  0  0  0  0  0
   15.0743   44.9206    4.7685 N   0  0  0  0  0  0  0  0  0  0  0  0
   13.4502   43.2834    5.5638 N   0  0  0  0  0  0  0  0  0  0  0  0
   15.6233   41.5828    8.7350 N   0  0  0  0  0  0  0  0  0  0  0  0
   14.0076   37.7371   10.0298 N   0  0  0  0  0  0  0  0  0  0  0  0
   10.1116   32.9491   12.4980 N   0  0  0  0  0  0  0  0  0  0  0  0
    9.7339   33.8995   13.3379 N   0  0  0  0  0  0  0  0  0  0  0  0
   14.2581   36.0597    8.4290 O   0  0  0  0  0  0  0  0  0  0  0  0
  1  2  1  0
  3 27  2  0
  3 28  1  0
  4  5  2  0
  6  2  2  0
  8  9  2  0
 10 29  2  0
 11  7  2  0
 12 10  1  0
 13  9  1  6
 13 14  1  0
 14 15  1  0
 15 16  1  0
 16 30  1  0
 17 30  1  0
 17 13  1  0
 18 19  1  0
 20 21  1  0
 22 31  1  0
 23 21  1  0
 24 23  1  0
 25 31  1  0
 26 22  1  0
 28  7  1  0
 30 18  1  0
 31 32  1  0
  2 27  1  0
  3  4  1  0
  5  6  1  0
  7  8  1  0
  9 29  1  0
 10 11  1  0
 18 33  2  0
 19 20  2  0
 21 22  2  0
 23 32  2  0
M  END
>  <rmsd>  (1) 
0.243306816

$$$$
