MolPort-051-610-737 CSSS09312299681 MCULE-6652970942
     RDKit          3D

 21 22  0  0  0  0  0  0  0  0999 V2000
   12.8512   39.7030   10.1233 F   0  0  0  0  0  0  0  0  0  0  0  0
   14.4350   38.5305   11.2189 F   0  0  0  0  0  0  0  0  0  0  0  0
   12.5709   39.1824   12.2892 F   0  0  0  0  0  0  0  0  0  0  0  0
   13.5034   39.5465   11.3319 C   0  0  0  0  0  0  0  0  0  0  0  0
   14.1967   40.8333   11.7097 C   0  0  0  0  0  0  0  0  0  0  0  0
   13.8314   41.4881   12.8970 C   0  0  0  0  0  0  0  0  0  0  0  0
   14.4659   42.6688   13.2875 C   0  0  0  0  0  0  0  0  0  0  0  0
   15.4793   43.2100   12.4969 C   0  0  0  0  0  0  0  0  0  0  0  0
   15.8553   42.5730   11.3136 C   0  0  0  0  0  0  0  0  0  0  0  0
   15.2190   41.3923   10.9060 C   0  0  0  0  0  0  0  0  0  0  0  0
   15.6605   40.7424    9.6296 C   0  0  0  0  0  0  0  0  0  0  0  0
   15.2951   41.5771    8.4479 C   0  0  0  0  0  0  0  0  0  0  0  0
   14.3075   42.7610    6.6203 C   0  0  0  0  0  0  0  0  0  0  0  0
   13.8941   44.3498    4.6853 C   0  0  0  0  0  0  0  0  0  0  0  0
   12.9392   44.8371    3.6551 C   0  0  0  0  0  0  0  0  0  0  0  0
   13.8060   41.5378    7.6597 S   0  0  0  0  0  0  0  0  0  0  0  0
   15.5659   43.1694    6.8957 N   0  0  0  0  0  0  0  0  0  0  0  0
   16.1132   42.5123    7.9166 N   0  0  0  0  0  0  0  0  0  0  0  0
   13.4931   43.3052    5.5776 N   0  0  0  0  0  0  0  0  0  0  0  0
   11.9069   46.1107    4.3470 Cl  0  0  0  0  0  0  0  0  0  0  0  0
   15.0313   44.8836    4.7781 O   0  0  0  0  0  0  0  0  0  0  0  0
  4  1  1  0
  4  5  1  0
  4  2  1  0
  4  3  1  0
  6  7  2  0
  8  9  2  0
 10  5  2  0
 11 10  1  0
 11 12  1  0
 12 16  1  0
 13 16  1  0
 13 19  1  0
 15 14  1  0
 15 20  1  0
 17 18  1  0
 19 14  1  0
  5  6  1  0
  7  8  1  0
  9 10  1  0
 12 18  2  0
 13 17  2  0
 14 21  2  0
M  END
>  <rmsd>  (1) 
0.200302303

$$$$
