MolPort-003-121-664 9058376 CSSS03437118148 MCULE-9626322807 PubChem-16939977 ZINC000009058376 ZINC09058376
     RDKit          3D

 32 35  0  0  0  0  0  0  0  0999 V2000
   13.1967   39.3408   11.2353 C   0  0  0  0  0  0  0  0  0  0  0  0
   10.9184   40.3829   11.3507 C   0  0  0  0  0  0  0  0  0  0  0  0
   11.0446   41.1905   10.1881 C   0  0  0  0  0  0  0  0  0  0  0  0
   12.5570   41.9811    8.2651 C   0  0  0  0  0  0  0  0  0  0  0  0
   13.9378   42.0668    7.7711 C   0  0  0  0  0  0  0  0  0  0  0  0
   14.3690   42.7113    6.6124 C   0  0  0  0  0  0  0  0  0  0  0  0
   13.9496   44.2342    4.6138 C   0  0  0  0  0  0  0  0  0  0  0  0
   13.0905   44.4661    3.4230 C   0  0  0  0  0  0  0  0  0  0  0  0
   10.9291   45.5361    2.8912 C   0  0  0  0  0  0  0  0  0  0  0  0
   10.9760   45.1059    1.5546 C   0  0  0  0  0  0  0  0  0  0  0  0
    9.9352   45.4193    0.6763 C   0  0  0  0  0  0  0  0  0  0  0  0
    8.8416   46.1639    1.1271 C   0  0  0  0  0  0  0  0  0  0  0  0
    7.7324   46.4929    0.1951 C   0  0  0  0  0  0  0  0  0  0  0  0
    8.7905   46.5977    2.4552 C   0  0  0  0  0  0  0  0  0  0  0  0
    9.8321   46.2839    3.3338 C   0  0  0  0  0  0  0  0  0  0  0  0
   15.7285   42.4988    6.5754 C   0  0  0  0  0  0  0  0  0  0  0  0
   17.9472   42.4505    5.8255 C   0  0  0  0  0  0  0  0  0  0  0  0
   18.3206   41.7114    6.9698 C   0  0  0  0  0  0  0  0  0  0  0  0
   17.3500   41.3541    7.9226 C   0  0  0  0  0  0  0  0  0  0  0  0
   16.0447   41.7667    7.6834 C   0  0  0  0  0  0  0  0  0  0  0  0
    9.9331   41.9281    9.7478 C   0  0  0  0  0  0  0  0  0  0  0  0
    8.7227   41.8888   10.4404 C   0  0  0  0  0  0  0  0  0  0  0  0
    8.6081   41.1120   11.5913 C   0  0  0  0  0  0  0  0  0  0  0  0
    9.6996   40.3664   12.0397 C   0  0  0  0  0  0  0  0  0  0  0  0
   11.9468   39.5786   11.8677 O   0  0  0  0  0  0  0  0  0  0  0  0
   11.6205   42.5180    7.6155 O   0  0  0  0  0  0  0  0  0  0  0  0
   15.0053   44.9061    4.7578 O   0  0  0  0  0  0  0  0  0  0  0  0
   11.9511   45.2309    3.7938 O   0  0  0  0  0  0  0  0  0  0  0  0
   14.9696   41.5187    8.3950 O   0  0  0  0  0  0  0  0  0  0  0  0
   12.2962   41.2784    9.4877 N   0  0  0  0  0  0  0  0  0  0  0  0
   13.5305   43.2977    5.6092 N   0  0  0  0  0  0  0  0  0  0  0  0
   16.6484   42.8306    5.6362 N   0  0  0  0  0  0  0  0  0  0  0  0
  1 25  1  0
  2 25  1  0
  3 30  1  0
  3 21  2  0
  4  5  1  0
  5 29  1  0
  6 31  1  0
  6 16  1  0
  8  7  1  0
  8 28  1  0
  9 28  1  0
 10 11  2  0
 12 14  2  0
 13 12  1  0
 15  9  2  0
 17 32  2  0
 18 19  2  0
 20 29  1  0
 20 16  2  0
 22 23  2  0
 24  2  2  0
 30  4  1  0
 31  7  1  0
  2  3  1  0
  4 26  2  0
  5  6  2  0
  7 27  2  0
  9 10  1  0
 11 12  1  0
 14 15  1  0
 16 32  1  0
 17 18  1  0
 19 20  1  0
 21 22  1  0
 23 24  1  0
M  END
>  <rmsd>  (1) 
0.206325769

$$$$
