MolPort-007-919-876 3582266 CHEMBL1320868 ChemDiv-K415-0151 PubChem-5868600 ZINC000003582266 ZINC03582266
     RDKit          3D

 34 37  0  0  0  0  0  0  0  0999 V2000
    9.7264   39.2980   12.1902 C   0  0  0  0  0  0  0  0  0  0  0  0
   12.1208   38.8325   11.7802 C   0  0  0  0  0  0  0  0  0  0  0  0
   12.3889   40.1642   11.4225 C   0  0  0  0  0  0  0  0  0  0  0  0
   13.6808   40.5474   11.0506 C   0  0  0  0  0  0  0  0  0  0  0  0
   14.7177   39.6046   11.0220 C   0  0  0  0  0  0  0  0  0  0  0  0
   14.4526   38.2816   11.4010 C   0  0  0  0  0  0  0  0  0  0  0  0
   13.1603   37.8972   11.7724 C   0  0  0  0  0  0  0  0  0  0  0  0
   16.0945   40.0035   10.6739 C   0  0  0  0  0  0  0  0  0  0  0  0
   17.2271   39.6079   11.3597 C   0  0  0  0  0  0  0  0  0  0  0  0
   15.7040   41.5147    8.6877 C   0  0  0  0  0  0  0  0  0  0  0  0
   14.5436   40.9098    8.1818 C   0  0  0  0  0  0  0  0  0  0  0  0
   13.8214   41.5119    7.1478 C   0  0  0  0  0  0  0  0  0  0  0  0
   14.2590   42.7164    6.5884 C   0  0  0  0  0  0  0  0  0  0  0  0
   13.8663   44.4350    4.7340 C   0  0  0  0  0  0  0  0  0  0  0  0
   12.8817   45.0110    3.8135 C   0  0  0  0  0  0  0  0  0  0  0  0
   13.1840   46.0302    3.0118 C   0  0  0  0  0  0  0  0  0  0  0  0
   12.2167   46.6263    2.0807 C   0  0  0  0  0  0  0  0  0  0  0  0
   10.9029   46.1493    1.9726 C   0  0  0  0  0  0  0  0  0  0  0  0
   10.0115   46.7467    1.0788 C   0  0  0  0  0  0  0  0  0  0  0  0
   10.4182   47.8306    0.2836 C   0  0  0  0  0  0  0  0  0  0  0  0
    8.2043   47.9893   -0.8130 C   0  0  0  0  0  0  0  0  0  0  0  0
   11.7323   48.3109    0.3883 C   0  0  0  0  0  0  0  0  0  0  0  0
   13.4626   49.8895   -0.4137 C   0  0  0  0  0  0  0  0  0  0  0  0
   12.6235   47.7022    1.2884 C   0  0  0  0  0  0  0  0  0  0  0  0
   15.4296   43.3143    7.0783 C   0  0  0  0  0  0  0  0  0  0  0  0
   16.1493   42.7145    8.1155 C   0  0  0  0  0  0  0  0  0  0  0  0
   10.8392   38.4152   12.1493 O   0  0  0  0  0  0  0  0  0  0  0  0
   15.0404   44.8959    4.7834 O   0  0  0  0  0  0  0  0  0  0  0  0
    9.5373   48.4414   -0.6161 O   0  0  0  0  0  0  0  0  0  0  0  0
   12.1333   49.3857   -0.4125 O   0  0  0  0  0  0  0  0  0  0  0  0
   18.2636   40.2723   10.8052 N   0  0  0  0  0  0  0  0  0  0  0  0
   17.7899   41.0319    9.8295 N   0  0  0  0  0  0  0  0  0  0  0  0
   16.4785   40.8885    9.7255 N   0  0  0  0  0  0  0  0  0  0  0  0
   13.4815   43.3176    5.5444 N   0  0  0  0  0  0  0  0  0  0  0  0
  1 27  1  0
  2 27  1  0
  3  4  2  0
  5  6  2  0
  5  8  1  0
  7  2  2  0
  9 31  1  0
 11 12  2  0
 13 34  1  0
 13 25  2  0
 14 15  1  0
 16 17  1  0
 18 19  2  0
 20 29  1  0
 20 22  2  0
 21 29  1  0
 22 30  1  0
 23 30  1  0
 24 17  2  0
 26 10  2  0
 33 32  1  0
 33 10  1  0
 33  8  1  0
 34 14  1  0
  2  3  1  0
  4  5  1  0
  6  7  1  0
  8  9  2  0
 10 11  1  0
 12 13  1  0
 14 28  2  0
 15 16  2  0
 17 18  1  0
 19 20  1  0
 22 24  1  0
 25 26  1  0
 31 32  2  0
M  END
>  <rmsd>  (1) 
0.236203745

$$$$
