MolPort-010-903-917 ChemDiv-M535-1350 MCULE-3932823686 PubChem-53146030 ZINC000065166055 ZINC65166055
     RDKit          3D

 29 32  0  0  0  0  0  0  0  0999 V2000
   18.3544   40.7597   11.3504 C   0  0  0  0  0  0  0  0  0  0  0  0
   17.2093   42.8979   10.7781 C   0  0  0  0  0  0  0  0  0  0  0  0
   15.9053   43.2068   11.4348 C   0  0  0  0  0  0  0  0  0  0  0  0
   14.8984   43.9604   10.8755 C   0  0  0  0  0  0  0  0  0  0  0  0
   13.8960   43.9680   11.8299 C   0  0  0  0  0  0  0  0  0  0  0  0
   14.3611   43.2221   12.9002 C   0  0  0  0  0  0  0  0  0  0  0  0
   16.5145   40.7323    9.6494 C   0  0  0  0  0  0  0  0  0  0  0  0
   15.6930   41.4261    8.6361 C   0  0  0  0  0  0  0  0  0  0  0  0
   14.3433   41.0751    8.4010 C   0  0  0  0  0  0  0  0  0  0  0  0
   13.6381   41.7137    7.3694 C   0  0  0  0  0  0  0  0  0  0  0  0
   14.2435   42.6944    6.5807 C   0  0  0  0  0  0  0  0  0  0  0  0
   13.9088   44.3629    4.6622 C   0  0  0  0  0  0  0  0  0  0  0  0
   12.9788   44.8708    3.6089 C   0  0  0  0  0  0  0  0  0  0  0  0
   13.6136   44.7161    2.2385 C   0  0  0  0  0  0  0  0  0  0  0  0
   12.5603   43.7329    2.6955 C   0  0  0  0  0  0  0  0  0  0  0  0
   15.5759   43.0444    6.8279 C   0  0  0  0  0  0  0  0  0  0  0  0
   16.2939   42.4127    7.8435 C   0  0  0  0  0  0  0  0  0  0  0  0
   13.4658   40.4647   10.6447 C   0  0  0  0  0  0  0  0  0  0  0  0
   14.0007   39.3497   11.5321 C   0  0  0  0  0  0  0  0  0  0  0  0
   12.9648   38.2585   11.8128 C   0  0  0  0  0  0  0  0  0  0  0  0
   12.1120   37.8373   10.6128 C   0  0  0  0  0  0  0  0  0  0  0  0
   12.9009   37.7763    9.3136 C   0  0  0  0  0  0  0  0  0  0  0  0
   12.8105   39.1198    8.6013 C   0  0  0  0  0  0  0  0  0  0  0  0
   17.3487   41.4609   10.5693 N   0  0  0  0  0  0  0  0  0  0  0  0
   13.4760   43.3132    5.5396 N   0  0  0  0  0  0  0  0  0  0  0  0
   13.6595   40.1281    9.2352 N   0  0  0  0  0  0  0  0  0  0  0  0
   15.5660   42.7848   12.6252 O   0  0  0  0  0  0  0  0  0  0  0  0
   16.4901   39.4720    9.6944 O   0  0  0  0  0  0  0  0  0  0  0  0
   15.0435   44.8955    4.7975 O   0  0  0  0  0  0  0  0  0  0  0  0
  1 24  1  0
  2 24  1  0
  2  3  1  0
  3 27  1  0
  4  5  1  0
  6 27  1  0
  7  8  1  0
  8  9  2  0
  9 26  1  0
 10 11  2  0
 11 25  1  0
 13 12  1  0
 13 14  1  0
 14 15  1  0
 15 13  1  0
 16 17  2  0
 18 26  1  0
 18 19  1  0
 19 20  1  0
 20 21  1  0
 21 22  1  0
 22 23  1  0
 23 26  1  0
 24  7  1  0
 25 12  1  0
  3  4  2  0
  5  6  2  0
  7 28  2  0
  9 10  1  0
 11 16  1  0
 12 29  2  0
 17  8  1  0
M  END
>  <rmsd>  (1) 
0.23722811

$$$$
