MolPort-020-280-780 MCULE-5308239970 PubChem-110256833
     RDKit          3D

 25 27  0  0  0  0  0  0  0  0999 V2000
   17.6023   43.1865    8.1671 C   0  0  0  0  0  0  0  0  0  0  0  0
   16.2343   42.6689    7.9054 C   0  0  0  0  0  0  0  0  0  0  0  0
   14.4749   41.1867    8.4531 C   0  0  0  0  0  0  0  0  0  0  0  0
   13.7014   41.7126    7.4184 C   0  0  0  0  0  0  0  0  0  0  0  0
   14.2374   42.7339    6.6346 C   0  0  0  0  0  0  0  0  0  0  0  0
   13.8462   44.3270    4.6736 C   0  0  0  0  0  0  0  0  0  0  0  0
   13.3158   45.7255    2.8399 C   0  0  0  0  0  0  0  0  0  0  0  0
   14.5649   46.3369    2.9284 C   0  0  0  0  0  0  0  0  0  0  0  0
   15.4421   45.9065    3.9219 C   0  0  0  0  0  0  0  0  0  0  0  0
   13.9202   40.0927    9.3034 C   0  0  2  0  0  0  0  0  0  0  0  0
   13.8192   40.5377   10.7658 C   0  0  0  0  0  0  0  0  0  0  0  0
   13.3630   39.4169   11.7147 C   0  0  0  0  0  0  0  0  0  0  0  0
   13.2063   38.0635   11.0201 C   0  0  0  0  0  0  0  0  0  0  0  0
   14.7701   38.8260    9.1791 C   0  0  0  0  0  0  0  0  0  0  0  0
   15.1123   36.5961   10.2800 C   0  0  0  0  0  0  0  0  0  0  0  0
   14.7233   35.5576   11.2891 C   0  0  0  0  0  0  0  0  0  0  0  0
   15.8361   35.3510   12.2985 C   0  0  0  0  0  0  0  0  0  0  0  0
   14.3932   34.2445   10.6057 C   0  0  0  0  0  0  0  0  0  0  0  0
   15.7256   41.6738    8.6773 N   0  0  0  0  0  0  0  0  0  0  0  0
   15.4928   43.1912    6.8940 N   0  0  0  0  0  0  0  0  0  0  0  0
   13.4510   43.2809    5.5694 N   0  0  0  0  0  0  0  0  0  0  0  0
   12.9801   44.7368    3.7092 N   0  0  0  0  0  0  0  0  0  0  0  0
   15.0703   44.9148    4.7726 N   0  0  0  0  0  0  0  0  0  0  0  0
   14.3564   37.8102   10.1521 N   0  0  0  0  0  0  0  0  0  0  0  0
   16.1151   36.3971    9.5395 O   0  0  0  0  0  0  0  0  0  0  0  0
  1  2  1  0
  2 20  2  0
  3 19  2  0
  4  5  2  0
  5 21  1  0
  6 23  2  0
  7 22  2  0
  8  9  2  0
 10  3  1  6
 10 11  1  0
 11 12  1  0
 12 13  1  0
 13 24  1  0
 14 24  1  0
 14 10  1  0
 16 15  1  0
 16 17  1  0
 16 18  1  0
 21  6  1  0
 24 15  1  0
  2 19  1  0
  3  4  1  0
  5 20  1  0
  6 22  1  0
  7  8  1  0
  9 23  1  0
 15 25  2  0
M  END
>  <rmsd>  (1) 
0.248085871

$$$$
