MolPort-007-723-094 ChemDiv-E157-3433 MCULE-8187297256 PubChem-22517706 ZINC000020486367 ZINC20486367
     RDKit          3D

 21 23  0  0  0  0  0  0  0  0999 V2000
   12.6858   38.7067   11.5444 C   0  0  0  0  0  0  0  0  0  0  0  0
   13.7153   39.7210   11.0940 C   0  0  0  0  0  0  0  0  0  0  0  0
   14.0731   39.4671    9.6433 C   0  0  0  0  0  0  0  0  0  0  0  0
   15.0845   40.4608    9.1851 C   0  0  0  0  0  0  0  0  0  0  0  0
   16.0316   42.0071    8.1263 C   0  0  0  0  0  0  0  0  0  0  0  0
   14.3647   42.7190    6.5971 C   0  0  0  0  0  0  0  0  0  0  0  0
   13.8654   44.3762    4.7059 C   0  0  0  0  0  0  0  0  0  0  0  0
   12.8572   44.8579    3.7263 C   0  0  0  0  0  0  0  0  0  0  0  0
   13.0992   45.9091    2.8032 C   0  0  0  0  0  0  0  0  0  0  0  0
   14.3982   46.6380    2.7255 C   0  0  0  0  0  0  0  0  0  0  0  0
   12.0925   46.3008    1.9138 C   0  0  0  0  0  0  0  0  0  0  0  0
   10.8491   45.6681    1.9234 C   0  0  0  0  0  0  0  0  0  0  0  0
   10.6017   44.6352    2.8258 C   0  0  0  0  0  0  0  0  0  0  0  0
   11.5980   44.2355    3.7180 C   0  0  0  0  0  0  0  0  0  0  0  0
   16.3486   40.5848    9.6732 N   0  0  0  0  0  0  0  0  0  0  0  0
   16.9550   41.5714    9.0001 N   0  0  0  0  0  0  0  0  0  0  0  0
   13.5218   43.3053    5.5978 N   0  0  0  0  0  0  0  0  0  0  0  0
   13.9284   41.7007    7.3918 N   0  0  0  0  0  0  0  0  0  0  0  0
   14.9042   41.3573    8.2161 N   0  0  0  0  0  0  0  0  0  0  0  0
   15.9986   43.1858    6.9381 S   0  0  0  0  0  0  0  0  0  0  0  0
   15.0106   44.8983    4.7579 O   0  0  0  0  0  0  0  0  0  0  0  0
  1  2  1  0
  2  3  1  0
  3  4  1  0
  5 20  1  0
  6 20  1  0
  6 17  1  0
  7  8  1  0
  9 11  2  0
 10  9  1  0
 12 13  2  0
 14  8  2  0
 15 16  1  0
 17  7  1  0
 19 18  1  0
 19  4  1  0
 19  5  1  0
  4 15  2  0
  5 16  2  0
  6 18  2  0
  7 21  2  0
  8  9  1  0
 11 12  1  0
 13 14  1  0
M  END
>  <rmsd>  (1) 
0.212970376

$$$$
