MolPort-020-295-380 MCULE-6693225507 PubChem-110267461
     RDKit          3D

 31 34  0  0  0  0  0  0  0  0999 V2000
   15.0213   47.4283    1.9954 C   0  0  0  0  0  0  0  0  0  0  0  0
   14.6025   46.3449    2.9223 C   0  0  0  0  0  0  0  0  0  0  0  0
   15.4637   45.9071    3.9297 C   0  0  0  0  0  0  0  0  0  0  0  0
   13.8491   44.3238    4.6706 C   0  0  0  0  0  0  0  0  0  0  0  0
   12.9631   44.7388    3.6725 C   0  0  0  0  0  0  0  0  0  0  0  0
   13.3446   45.7551    2.7947 C   0  0  0  0  0  0  0  0  0  0  0  0
   14.2299   42.7305    6.6341 C   0  0  0  0  0  0  0  0  0  0  0  0
   16.2292   42.6545    7.8996 C   0  0  0  0  0  0  0  0  0  0  0  0
   15.7000   41.6417    8.6962 C   0  0  0  0  0  0  0  0  0  0  0  0
   14.4037   41.1901    8.4255 C   0  0  0  0  0  0  0  0  0  0  0  0
   13.7778   40.1021    9.2379 C   0  0  2  0  0  0  0  0  0  0  0  0
   13.6593   40.5051   10.7102 C   0  0  0  0  0  0  0  0  0  0  0  0
   12.9952   39.3897   11.5157 C   0  0  0  0  0  0  0  0  0  0  0  0
   13.7898   38.0943   11.3734 C   0  0  0  0  0  0  0  0  0  0  0  0
   14.5577   38.7950    9.0981 C   0  0  0  0  0  0  0  0  0  0  0  0
   13.4693   36.5405    9.4203 C   0  0  0  0  0  0  0  0  0  0  0  0
   13.5444   36.2502    7.9535 C   0  0  0  0  0  0  0  0  0  0  0  0
   12.4775   37.0235    7.1858 C   0  0  0  0  0  0  0  0  0  0  0  0
   11.1078   36.4955    7.4590 C   0  0  0  0  0  0  0  0  0  0  0  0
   10.7461   35.2062    7.0475 C   0  0  0  0  0  0  0  0  0  0  0  0
    9.4587   34.7250    7.3033 C   0  0  0  0  0  0  0  0  0  0  0  0
    8.5301   35.5317    7.9683 C   0  0  0  0  0  0  0  0  0  0  0  0
    8.8876   36.8211    8.3746 C   0  0  0  0  0  0  0  0  0  0  0  0
   10.1748   37.3031    8.1186 C   0  0  0  0  0  0  0  0  0  0  0  0
   15.0730   44.9151    4.7744 N   0  0  0  0  0  0  0  0  0  0  0  0
   13.4485   43.2799    5.5664 N   0  0  0  0  0  0  0  0  0  0  0  0
   15.4897   43.1786    6.8883 N   0  0  0  0  0  0  0  0  0  0  0  0
   13.7000   41.7425    7.4026 N   0  0  0  0  0  0  0  0  0  0  0  0
   13.9551   37.7800    9.9571 N   0  0  0  0  0  0  0  0  0  0  0  0
   12.9435   35.6847   10.1815 O   0  0  0  0  0  0  0  0  0  0  0  0
    7.2829   35.0650    8.2162 F   0  0  0  0  0  0  0  0  0  0  0  0
  1  2  1  0
  3 25  2  0
  4  5  2  0
  4 26  1  0
  6  2  2  0
  7 28  2  0
  8 27  2  0
  9 10  2  0
 11 10  1  6
 11 12  1  0
 12 13  1  0
 13 14  1  0
 14 29  1  0
 15 29  1  0
 15 11  1  0
 17 16  1  0
 17 18  1  0
 18 19  1  0
 20 21  2  0
 22 23  2  0
 22 31  1  0
 24 19  2  0
 26  7  1  0
 29 16  1  0
  2  3  1  0
  4 25  1  0
  5  6  1  0
  7 27  1  0
  8  9  1  0
 10 28  1  0
 16 30  2  0
 19 20  1  0
 21 22  1  0
 23 24  1  0
M  END
>  <rmsd>  (1) 
0.239979535

$$$$
