MolPort-007-671-450 ChemDiv-C795-0043 MCULE-6412679810 PubChem-20885894 ZINC000005135296 ZINC05135296
     RDKit          3D

 25 26  0  0  0  0  0  0  0  0999 V2000
   12.8650   40.4893   10.9446 C   0  0  0  0  0  0  0  0  0  0  0  0
   14.0309   39.5279   11.0709 C   0  0  0  0  0  0  0  0  0  0  0  0
   13.5037   38.1466   11.3955 C   0  0  0  0  0  0  0  0  0  0  0  0
   14.8178   39.4726    9.7715 C   0  0  0  0  0  0  0  0  0  0  0  0
   16.8941   40.8156   10.1802 C   0  0  0  0  0  0  0  0  0  0  0  0
   16.9361   41.8369   11.3220 C   0  0  0  0  0  0  0  0  0  0  0  0
   16.5117   43.2276   10.8898 C   0  0  0  0  0  0  0  0  0  0  0  0
   16.1241   41.3834   12.5183 C   0  0  0  0  0  0  0  0  0  0  0  0
   15.2228   41.5566    8.4585 C   0  0  0  0  0  0  0  0  0  0  0  0
   14.2721   42.7536    6.6160 C   0  0  0  0  0  0  0  0  0  0  0  0
   13.8970   44.3562    4.6824 C   0  0  0  0  0  0  0  0  0  0  0  0
   13.2274   45.8410    2.7011 C   0  0  0  0  0  0  0  0  0  0  0  0
   12.2178   46.1451    1.7810 C   0  0  0  0  0  0  0  0  0  0  0  0
   12.4100   47.1464    0.8242 C   0  0  0  0  0  0  0  0  0  0  0  0
   13.6163   47.8507    0.7824 C   0  0  0  0  0  0  0  0  0  0  0  0
   14.6300   47.5539    1.6972 C   0  0  0  0  0  0  0  0  0  0  0  0
   14.4364   46.5526    2.6531 C   0  0  0  0  0  0  0  0  0  0  0  0
   15.5742   40.7021    9.5586 N   0  0  0  0  0  0  0  0  0  0  0  0
   16.0556   42.4895    7.9418 N   0  0  0  0  0  0  0  0  0  0  0  0
   15.5263   43.1567    6.9180 N   0  0  0  0  0  0  0  0  0  0  0  0
   13.4800   43.3056    5.5600 N   0  0  0  0  0  0  0  0  0  0  0  0
   12.9916   44.8071    3.6671 N   0  0  0  0  0  0  0  0  0  0  0  0
   15.0405   44.8734    4.8028 O   0  0  0  0  0  0  0  0  0  0  0  0
   13.8027   48.8207   -0.1443 F   0  0  0  0  0  0  0  0  0  0  0  0
   13.7499   41.5179    7.6306 S   0  0  0  0  0  0  0  0  0  0  0  0
  1  2  1  0
  2  3  1  0
  2  4  1  0
  4 18  1  0
  5 18  1  0
  5  6  1  0
  6  7  1  0
  6  8  1  0
  9 25  1  0
 10 21  1  0
 10 25  1  0
 11 22  1  0
 13 14  2  0
 15 24  1  0
 15 16  2  0
 17 12  2  0
 18  9  1  0
 19 20  1  0
 21 11  1  0
 22 12  1  0
  9 19  2  0
 10 20  2  0
 11 23  2  0
 12 13  1  0
 14 15  1  0
 16 17  1  0
M  END
>  <rmsd>  (1) 
0.21289295

$$$$
