MolPort-010-852-332 41076400 ChemDiv-G952-3119 MCULE-5099997512 PubChem-52095932 ZINC000041076400 ZINC41076400
     RDKit          3D

 21 23  0  0  0  0  0  0  0  0999 V2000
   14.0735   39.0239   11.9624 C   0  0  0  0  0  0  0  0  0  0  0  0
   13.1230   39.6370   10.9514 C   0  0  0  0  0  0  0  0  0  0  0  0
   13.6271   39.4046    9.5363 C   0  0  0  0  0  0  0  0  0  0  0  0
   14.6930   40.3871    9.1773 C   0  0  0  0  0  0  0  0  0  0  0  0
   15.7508   41.9271    8.2179 C   0  0  0  0  0  0  0  0  0  0  0  0
   14.2220   42.6953    6.5762 C   0  0  0  0  0  0  0  0  0  0  0  0
   13.9086   44.3857    4.6775 C   0  0  0  0  0  0  0  0  0  0  0  0
   13.0072   44.9063    3.6344 C   0  0  0  0  0  0  0  0  0  0  0  0
   11.7272   44.3579    3.4656 C   0  0  0  0  0  0  0  0  0  0  0  0
   10.8713   44.8510    2.4765 C   0  0  0  0  0  0  0  0  0  0  0  0
   11.2892   45.8963    1.6487 C   0  0  0  0  0  0  0  0  0  0  0  0
   12.5626   46.4487    1.8095 C   0  0  0  0  0  0  0  0  0  0  0  0
   13.4186   45.9557    2.7986 C   0  0  0  0  0  0  0  0  0  0  0  0
   15.9204   40.4739    9.7589 N   0  0  0  0  0  0  0  0  0  0  0  0
   16.5970   41.4562    9.1496 N   0  0  0  0  0  0  0  0  0  0  0  0
   13.4718   43.3125    5.5232 N   0  0  0  0  0  0  0  0  0  0  0  0
   13.7040   41.6775    7.3209 N   0  0  0  0  0  0  0  0  0  0  0  0
   14.6058   41.3025    8.2129 N   0  0  0  0  0  0  0  0  0  0  0  0
   15.8351   43.1201    7.0465 S   0  0  0  0  0  0  0  0  0  0  0  0
   15.0565   44.8879    4.8184 O   0  0  0  0  0  0  0  0  0  0  0  0
   10.1228   46.5683    0.3006 Br  0  0  0  0  0  0  0  0  0  0  0  0
  1  2  1  0
  2  3  1  0
  3  4  1  0
  5 19  1  0
  6 19  1  0
  6 16  1  0
  7  8  1  0
  9 10  2  0
 11 21  1  0
 11 12  2  0
 13  8  2  0
 14 15  1  0
 16  7  1  0
 18 17  1  0
 18  4  1  0
 18  5  1  0
  4 14  2  0
  5 15  2  0
  6 17  2  0
  7 20  2  0
  8  9  1  0
 10 11  1  0
 12 13  1  0
M  END
>  <rmsd>  (1) 
0.208475441

$$$$
