MolPort-010-852-387 ChemDiv-G952-3417 MCULE-2399946296 PubChem-53095823 ZINC000064980503
     RDKit          3D

 29 33  0  0  0  0  0  0  0  0999 V2000
   14.4801   41.5416    8.4357 N   0  0  0  0  0  0  0  0  0  0  0  0
   13.6263   41.8261    7.4663 N   0  0  0  0  0  0  0  0  0  0  0  0
   16.3721   41.8739    9.5199 N   0  0  0  0  0  0  0  0  0  0  0  0
   15.6661   40.9461   10.1796 N   0  0  0  0  0  0  0  0  0  0  0  0
   13.4713   43.3133    5.5372 N   0  0  0  0  0  0  0  0  0  0  0  0
   12.0461   45.7086    4.0361 N   0  0  0  0  0  0  0  0  0  0  0  0
   14.1691   42.7945    6.6753 C   0  0  0  0  0  0  0  0  0  0  0  0
   15.6046   42.2016    8.4670 C   0  0  0  0  0  0  0  0  0  0  0  0
   14.5009   40.7452    9.5039 C   0  0  0  0  0  0  0  0  0  0  0  0
   13.3893   39.8296    9.9187 C   0  0  0  0  0  0  0  0  0  0  0  0
   12.6702   40.3296   11.1762 C   0  0  0  0  0  0  0  0  0  0  0  0
   13.5060   40.0963   12.4346 C   0  0  0  0  0  0  0  0  0  0  0  0
   13.8614   38.6193   12.5641 C   0  0  0  0  0  0  0  0  0  0  0  0
   14.6642   38.1684   11.3484 C   0  0  0  0  0  0  0  0  0  0  0  0
   13.8535   38.3761   10.0691 C   0  0  0  0  0  0  0  0  0  0  0  0
   13.9373   44.3324    4.6454 C   0  0  0  0  0  0  0  0  0  0  0  0
   13.0564   44.7879    3.5332 C   0  0  0  0  0  0  0  0  0  0  0  0
   10.8229   45.3479    4.6806 C   0  0  0  0  0  0  0  0  0  0  0  0
   10.2658   46.5034    5.3734 C   0  0  0  0  0  0  0  0  0  0  0  0
   11.1355   47.5594    5.1922 C   0  0  0  0  0  0  0  0  0  0  0  0
   10.8913   48.8127    5.7504 C   0  0  0  0  0  0  0  0  0  0  0  0
    9.7176   48.9731    6.5085 C   0  0  0  0  0  0  0  0  0  0  0  0
    8.8285   47.8927    6.6946 C   0  0  0  0  0  0  0  0  0  0  0  0
    9.0995   46.6360    6.1244 C   0  0  0  0  0  0  0  0  0  0  0  0
   12.2490   47.0803    4.3818 C   0  0  0  0  0  0  0  0  0  0  0  0
   15.7335   43.3076    7.2167 S   0  0  0  0  0  0  0  0  0  0  0  0
   15.0634   44.8734    4.8008 O   0  0  0  0  0  0  0  0  0  0  0  0
   10.3272   44.1901    4.6655 O   0  0  0  0  0  0  0  0  0  0  0  0
   13.2613   47.7532    4.0513 O   0  0  0  0  0  0  0  0  0  0  0  0
  1  2  1  0
  3  4  1  0
  5 16  1  0
  6 18  1  0
  7 26  1  0
  7  5  1  0
  8 26  1  0
  8  1  1  0
  9  1  1  0
 10  9  1  0
 10 11  1  0
 11 12  1  0
 12 13  1  0
 13 14  1  0
 14 15  1  0
 15 10  1  0
 17 16  1  0
 17  6  1  0
 18 19  1  0
 20 21  2  0
 20 25  1  0
 22 23  2  0
 24 19  2  0
 25  6  1  0
  7  2  2  0
  8  3  2  0
  9  4  2  0
 16 27  2  0
 18 28  2  0
 19 20  1  0
 21 22  1  0
 23 24  1  0
 25 29  2  0
M  END
>  <rmsd>  (1) 
0.231393978

$$$$
