MolPort-046-956-540 MCULE-3347978788 PubChem-132765396
     RDKit          3D

 26 29  0  0  0  0  0  0  0  0999 V2000
   13.8837   44.3229    4.6900 C   0  0  0  0  0  0  0  0  0  0  0  0
   14.1528   46.0603    2.9588 C   0  0  0  0  0  0  0  0  0  0  0  0
   15.2333   45.8801    3.8221 C   0  0  0  0  0  0  0  0  0  0  0  0
   16.4776   46.6850    3.7108 C   0  0  0  0  0  0  0  0  0  0  0  0
   14.1880   42.7125    6.6357 C   0  0  0  0  0  0  0  0  0  0  0  0
   13.6226   41.6925    7.4000 C   0  0  0  0  0  0  0  0  0  0  0  0
   14.3662   41.1520    8.4489 C   0  0  0  0  0  0  0  0  0  0  0  0
   13.7804   40.0576    9.2780 C   0  0  2  0  0  0  0  0  0  0  0  0
   13.6666   40.4889   10.7417 C   0  0  0  0  0  0  0  0  0  0  0  0
   13.0648   39.3648   11.5823 C   0  0  0  0  0  0  0  0  0  0  0  0
   13.9221   38.1085   11.4628 C   0  0  0  0  0  0  0  0  0  0  0  0
   13.6977   36.4651    9.5677 C   0  0  0  0  0  0  0  0  0  0  0  0
   13.8359   36.1378    8.2132 C   0  0  0  0  0  0  0  0  0  0  0  0
   13.4478   34.8686    7.7880 C   0  0  0  0  0  0  0  0  0  0  0  0
   12.8172   34.3051    9.9928 C   0  0  0  0  0  0  0  0  0  0  0  0
   14.6182   38.7849    9.1570 C   0  0  0  0  0  0  0  0  0  0  0  0
   16.1539   42.6182    7.9514 C   0  0  0  0  0  0  0  0  0  0  0  0
   17.5211   43.1189    8.2478 C   0  0  0  0  0  0  0  0  0  0  0  0
   12.9722   44.9556    3.4369 S   0  0  0  0  0  0  0  0  0  0  0  0
   15.0879   44.9230    4.7774 N   0  0  0  0  0  0  0  0  0  0  0  0
   13.4351   43.2758    5.5563 N   0  0  0  0  0  0  0  0  0  0  0  0
   14.0830   37.7617   10.0530 N   0  0  0  0  0  0  0  0  0  0  0  0
   12.9468   33.9769    8.6813 N   0  0  0  0  0  0  0  0  0  0  0  0
   13.1901   35.5377   10.4265 N   0  0  0  0  0  0  0  0  0  0  0  0
   15.6169   41.6238    8.7049 N   0  0  0  0  0  0  0  0  0  0  0  0
   15.4419   43.1549    6.9266 N   0  0  0  0  0  0  0  0  0  0  0  0
  1 19  1  0
  1 21  1  0
  2 19  1  0
  3 20  1  0
  4  3  1  0
  5 26  2  0
  6  7  2  0
  8  7  1  6
  8  9  1  0
  9 10  1  0
 10 11  1  0
 11 22  1  0
 12 24  2  0
 13 14  2  0
 15 23  2  0
 16 22  1  0
 16  8  1  0
 17 25  2  0
 18 17  1  0
 21  5  1  0
 22 12  1  0
  1 20  2  0
  2  3  2  0
  5  6  1  0
  7 25  1  0
 12 13  1  0
 14 23  1  0
 15 24  1  0
 17 26  1  0
M  END
>  <rmsd>  (1) 
0.245592058

$$$$
