MolPort-051-503-666 CSSS09880955598 CUKKFBFHUUWVRM-UHFFFAOYSA-N MCULE-6661315209 PubChem-164697507
     RDKit          3D

 23 24  0  0  0  0  0  0  0  0999 V2000
   13.9306   44.3018    4.6374 C   0  0  0  0  0  0  0  0  0  0  0  0
   14.2312   42.8681    6.7074 C   0  0  0  0  0  0  0  0  0  0  0  0
   13.8182   41.9297    7.6159 C   0  0  0  0  0  0  0  0  0  0  0  0
   14.8436   41.8474    8.5125 C   0  0  0  0  0  0  0  0  0  0  0  0
   14.7940   40.9889    9.6066 C   0  0  0  0  0  0  0  0  0  0  0  0
   13.6434   40.1831    9.7579 C   0  0  0  0  0  0  0  0  0  0  0  0
   13.5128   39.2765   10.9469 C   0  0  0  0  0  0  0  0  0  0  0  0
   12.5774   40.2926    8.8281 C   0  0  0  0  0  0  0  0  0  0  0  0
   12.6577   41.1726    7.7330 C   0  0  0  0  0  0  0  0  0  0  0  0
   13.0418   44.6984    3.5091 C   0  0  0  0  0  0  0  0  0  0  0  0
   12.1342   45.8447    3.9214 C   0  0  0  0  0  0  0  0  0  0  0  0
    9.4001   47.5371    4.0182 C   0  0  0  0  0  0  0  0  0  0  0  0
   13.4859   43.3102    5.5685 N   0  0  0  0  0  0  0  0  0  0  0  0
   15.8345   42.6925    8.1726 N   0  0  0  0  0  0  0  0  0  0  0  0
   15.4570   43.3204    7.0612 N   0  0  0  0  0  0  0  0  0  0  0  0
   11.1021   45.3633    4.8266 N   0  0  0  0  0  0  0  0  0  0  0  0
   12.9367   39.9743   11.9919 F   0  0  0  0  0  0  0  0  0  0  0  0
   12.7175   38.1865   10.6381 F   0  0  0  0  0  0  0  0  0  0  0  0
   14.7571   38.8162   11.3419 F   0  0  0  0  0  0  0  0  0  0  0  0
   15.0489   44.8657    4.7741 O   0  0  0  0  0  0  0  0  0  0  0  0
    9.1689   46.2794    6.3694 O   0  0  0  0  0  0  0  0  0  0  0  0
   11.1346   47.7083    6.0608 O   0  0  0  0  0  0  0  0  0  0  0  0
   10.2081   46.7360    5.3855 S   0  0  0  0  0  0  0  0  0  0  0  0
  1 13  1  0
  2  3  1  0
  4  5  2  0
  4 14  1  0
  6  8  2  0
  7  6  1  0
  7 17  1  0
  7 18  1  0
  7 19  1  0
  9  3  2  0
 10  1  1  0
 10 11  1  0
 11 16  1  0
 13  2  1  0
 14 15  1  0
 23 16  1  0
 23 12  1  0
  1 20  2  0
  2 15  2  0
  3  4  1  0
  5  6  1  0
  8  9  1  0
 23 21  2  0
 23 22  2  0
M  END
>  <rmsd>  (1) 
0.249624446

$$$$
