MolPort-047-073-921 MCULE-9217073820 PubChem-132766369
     RDKit          3D

 29 32  0  0  0  0  0  0  0  0999 V2000
   15.2467   45.8792    3.8224 C   0  0  0  0  0  0  0  0  0  0  0  0
   14.1588   46.0548    2.9616 C   0  0  0  0  0  0  0  0  0  0  0  0
   13.8848   44.3206    4.6880 C   0  0  0  0  0  0  0  0  0  0  0  0
   14.1867   42.7154    6.6374 C   0  0  0  0  0  0  0  0  0  0  0  0
   13.6209   41.6973    7.4043 C   0  0  0  0  0  0  0  0  0  0  0  0
   14.3639   41.1599    8.4551 C   0  0  0  0  0  0  0  0  0  0  0  0
   13.7769   40.0686    9.2877 C   0  0  2  0  0  0  0  0  0  0  0  0
   13.6568   40.5069   10.7408 C   0  0  0  0  0  0  0  0  0  0  0  0
   13.0728   39.3706   11.5634 C   0  0  0  0  0  0  0  0  0  0  0  0
   13.9496   38.1231   11.4188 C   0  0  0  0  0  0  0  0  0  0  0  0
   12.8289   37.2384    9.4805 C   0  0  0  0  0  0  0  0  0  0  0  0
   12.7140   35.7871    9.6487 C   0  0  0  0  0  0  0  0  0  0  0  0
   14.6281   38.7963    9.1875 C   0  0  0  0  0  0  0  0  0  0  0  0
   16.1518   42.6252    7.9547 C   0  0  0  0  0  0  0  0  0  0  0  0
   17.5185   43.1274    8.2507 C   0  0  0  0  0  0  0  0  0  0  0  0
   16.4869   46.6767    3.7440 C   0  0  0  0  0  0  0  0  0  0  0  0
   17.9589   48.3590    2.6053 C   0  0  0  0  0  0  0  0  0  0  0  0
   18.1478   48.5594    1.1315 C   0  0  0  0  0  0  0  0  0  0  0  0
   17.0710   47.6695    0.5349 C   0  0  0  0  0  0  0  0  0  0  0  0
   12.9757   44.9513    3.4340 S   0  0  0  0  0  0  0  0  0  0  0  0
   13.4345   43.2755    5.5559 N   0  0  0  0  0  0  0  0  0  0  0  0
   14.1056   37.7016   10.0175 N   0  0  0  0  0  0  0  0  0  0  0  0
   12.6229   34.6412    9.7816 N   0  0  0  0  0  0  0  0  0  0  0  0
   15.6143   41.6329    8.7108 N   0  0  0  0  0  0  0  0  0  0  0  0
   15.4402   43.1587    6.9279 N   0  0  0  0  0  0  0  0  0  0  0  0
   15.0879   44.9216    4.7781 N   0  0  0  0  0  0  0  0  0  0  0  0
   16.7234   47.6109    2.6771 N   0  0  0  0  0  0  0  0  0  0  0  0
   17.3531   46.5378    4.6504 O   0  0  0  0  0  0  0  0  0  0  0  0
   16.0581   47.5292    1.4972 O   0  0  0  0  0  0  0  0  0  0  0  0
  1 16  1  0
  1 26  1  0
  2 20  1  0
  3 20  1  0
  3 21  1  0
  4 25  2  0
  5  6  2  0
  7  6  1  6
  7  8  1  0
  8  9  1  0
  9 10  1  0
 10 22  1  0
 11 22  1  0
 11 12  1  0
 13 22  1  0
 13  7  1  0
 14 24  2  0
 15 14  1  0
 16 27  1  0
 17 27  1  0
 17 18  1  0
 18 19  1  0
 19 29  1  0
 21  4  1  0
 27 29  1  0
  1  2  2  0
  3 26  2  0
  4  5  1  0
  6 24  1  0
 14 25  1  0
 16 28  2  0
 12 23  3  0
M  END
>  <rmsd>  (1) 
0.249114916

$$$$
