Molport-002-804-440 CSSS00104477131 MCULE-4480941808 PubChem-1813607 ZINC02176372
     RDKit          3D

 21 22  0  0  0  0  0  0  0  0999 V2000
   11.2343   39.5246   10.7931 C   0  0  0  0  0  0  0  0  0  0  0  0
   12.3416   38.8347   11.5669 C   0  0  0  0  0  0  0  0  0  0  0  0
   13.6014   39.6858   11.5712 C   0  0  0  0  0  0  0  0  0  0  0  0
   14.4059   39.4844   10.2965 C   0  0  0  0  0  0  0  0  0  0  0  0
   14.3761   41.1448    8.4613 C   0  0  0  0  0  0  0  0  0  0  0  0
   15.6732   41.5934    8.7557 C   0  0  0  0  0  0  0  0  0  0  0  0
   16.2543   42.6114    7.9961 C   0  0  0  0  0  0  0  0  0  0  0  0
   15.5433   43.1859    6.9397 C   0  0  0  0  0  0  0  0  0  0  0  0
   14.2463   42.7464    6.6355 C   0  0  0  0  0  0  0  0  0  0  0  0
   13.6720   41.7262    7.4016 C   0  0  0  0  0  0  0  0  0  0  0  0
   13.8986   44.3582    4.6674 C   0  0  0  0  0  0  0  0  0  0  0  0
   12.9820   44.8204    3.6102 C   0  0  0  0  0  0  0  0  0  0  0  0
   13.3695   45.8419    2.7299 C   0  0  0  0  0  0  0  0  0  0  0  0
   12.4989   46.2794    1.7274 C   0  0  0  0  0  0  0  0  0  0  0  0
   11.2345   45.6989    1.5976 C   0  0  0  0  0  0  0  0  0  0  0  0
   10.8407   44.6809    2.4703 C   0  0  0  0  0  0  0  0  0  0  0  0
   11.7112   44.2434    3.4727 C   0  0  0  0  0  0  0  0  0  0  0  0
   13.7657   40.1293    9.2022 O   0  0  0  0  0  0  0  0  0  0  0  0
   15.0389   44.8852    4.7807 O   0  0  0  0  0  0  0  0  0  0  0  0
   13.4852   43.3115    5.5594 N   0  0  0  0  0  0  0  0  0  0  0  0
    9.2574   43.9534    2.3086 Cl  0  0  0  0  0  0  0  0  0  0  0  0
  1  2  1  0
  2  3  1  0
  3  4  1  0
  4 18  1  0
  5 18  1  0
  6  7  2  0
  8  9  2  0
  9 20  1  0
 10  5  2  0
 11 12  1  0
 13 14  2  0
 15 16  2  0
 16 21  1  0
 17 12  2  0
 20 11  1  0
  5  6  1  0
  7  8  1  0
  9 10  1  0
 11 19  2  0
 12 13  1  0
 14 15  1  0
 16 17  1  0
M  END
>  <rmsd>  (1) 
0.246895254

$$$$
