MolPort-019-920-828 70638804 CSSS00035737450 MCULE-7100943101 PubChem-56765163 ZINC000070638804 ZINC70638804
     RDKit          3D

 16 17  0  0  0  0  0  0  0  0999 V2000
   13.3672   39.2220   11.4518 C   0  0  0  0  0  0  0  0  0  0  0  0
   15.0817   40.4577    9.1605 C   0  0  0  0  0  0  0  0  0  0  0  0
   15.0113   41.4931    8.1235 C   0  0  0  0  0  0  0  0  0  0  0  0
   16.0194   42.3838    7.8057 C   0  0  0  0  0  0  0  0  0  0  0  0
   14.3300   42.7258    6.5695 C   0  0  0  0  0  0  0  0  0  0  0  0
   13.8802   44.3917    4.7172 C   0  0  0  0  0  0  0  0  0  0  0  0
   12.9213   44.9092    3.6949 C   0  0  0  0  0  0  0  0  0  0  0  0
   11.6404   45.3650    4.3702 C   0  0  0  0  0  0  0  0  0  0  0  0
   12.6627   46.3869    3.9283 C   0  0  0  0  0  0  0  0  0  0  0  0
   13.9885   38.6412   10.3445 O   0  0  0  0  0  0  0  0  0  0  0  0
   16.1278   40.3242    9.8507 O   0  0  0  0  0  0  0  0  0  0  0  0
   15.5508   43.1306    6.8343 O   0  0  0  0  0  0  0  0  0  0  0  0
   15.0365   44.8888    4.7957 O   0  0  0  0  0  0  0  0  0  0  0  0
   13.9617   39.5992    9.3864 N   0  0  0  0  0  0  0  0  0  0  0  0
   13.4932   43.3039    5.5644 N   0  0  0  0  0  0  0  0  0  0  0  0
   13.9325   41.7009    7.3446 N   0  0  0  0  0  0  0  0  0  0  0  0
  1 10  1  0
  2  3  1  0
  3 16  1  0
  4 12  1  0
  5 12  1  0
  5 15  1  0
  7  6  1  0
  7  8  1  0
  8  9  1  0
  9  7  1  0
 14 10  1  0
 14  2  1  0
 15  6  1  0
  2 11  2  0
  3  4  2  0
  5 16  2  0
  6 13  2  0
M  END
>  <rmsd>  (1) 
0.189903185

$$$$
