MolPort-002-599-406 2422375 CSSS00160675833 MCULE-5566734325 PubChem-2019102 ZINC000002422375 ZINC02422375
     RDKit          3D

 26 29  0  0  0  0  0  0  0  0999 V2000
   14.2912   38.7783   11.6927 C   0  0  0  0  0  0  0  0  0  0  0  0
   13.0454   39.4445   11.1397 C   0  0  0  0  0  0  0  0  0  0  0  0
   13.3330   40.0627    9.7835 C   0  0  0  0  0  0  0  0  0  0  0  0
   14.1303   41.3464    9.9445 C   0  0  0  0  0  0  0  0  0  0  0  0
   14.1611   42.8256    6.6891 C   0  0  0  0  0  0  0  0  0  0  0  0
   14.0224   44.2093    4.5479 C   0  0  0  0  0  0  0  0  0  0  0  0
   13.3303   44.3912    3.2600 C   0  0  0  0  0  0  0  0  0  0  0  0
   12.1568   43.6762    2.9789 C   0  0  0  0  0  0  0  0  0  0  0  0
   11.5006   43.8465    1.7563 C   0  0  0  0  0  0  0  0  0  0  0  0
   12.0134   44.7329    0.8054 C   0  0  0  0  0  0  0  0  0  0  0  0
   13.1824   45.4490    1.0768 C   0  0  0  0  0  0  0  0  0  0  0  0
   13.8387   45.2786    2.2994 C   0  0  0  0  0  0  0  0  0  0  0  0
   15.5246   42.6355    6.8535 C   0  0  0  0  0  0  0  0  0  0  0  0
   16.6364   42.8294    6.0398 C   0  0  0  0  0  0  0  0  0  0  0  0
   17.8842   42.4528    6.5659 C   0  0  0  0  0  0  0  0  0  0  0  0
   19.0482   42.6299    5.8146 C   0  0  0  0  0  0  0  0  0  0  0  0
   20.2854   42.2500    6.3440 C   0  0  0  0  0  0  0  0  0  0  0  0
   20.3647   41.6907    7.6241 C   0  0  0  0  0  0  0  0  0  0  0  0
   19.2075   41.5055    8.3872 C   0  0  0  0  0  0  0  0  0  0  0  0
   17.9638   41.8811    7.8736 C   0  0  0  0  0  0  0  0  0  0  0  0
   15.6405   42.0743    8.0916 C   0  0  0  0  0  0  0  0  0  0  0  0
   14.4261   41.9167    8.6396 N   0  0  0  0  0  0  0  0  0  0  0  0
   13.5111   42.3661    7.7869 N   0  0  0  0  0  0  0  0  0  0  0  0
   13.4781   43.3190    5.5303 N   0  0  0  0  0  0  0  0  0  0  0  0
   16.8319   41.6919    8.6160 N   0  0  0  0  0  0  0  0  0  0  0  0
   15.0641   44.8738    4.7989 O   0  0  0  0  0  0  0  0  0  0  0  0
  1  2  1  0
  2  3  1  0
  3  4  1  0
  4 22  1  0
  5 24  1  0
  5 13  1  0
  6  7  1  0
  8  9  2  0
 10 11  2  0
 12  7  2  0
 14 15  2  0
 16 17  2  0
 18 19  2  0
 20 25  2  0
 20 15  1  0
 21 22  1  0
 21 13  2  0
 22 23  1  0
 24  6  1  0
  5 23  2  0
  6 26  2  0
  7  8  1  0
  9 10  1  0
 11 12  1  0
 13 14  1  0
 15 16  1  0
 17 18  1  0
 19 20  1  0
 21 25  1  0
M  END
>  <rmsd>  (1) 
0.247371808

$$$$
