MolPort-006-579-808 ChemDiv-V011-7223 MCULE-1721688843 PubChem-46040772 ZINC37544022
     RDKit          3D

 30 32  0  0  0  0  0  0  0  0999 V2000
   12.1430   31.8326   10.4568 C   0  0  0  0  0  0  0  0  0  0  0  0
   11.6677   34.1428    9.7128 C   0  0  0  0  0  0  0  0  0  0  0  0
   11.9963   33.8526    8.3788 C   0  0  0  0  0  0  0  0  0  0  0  0
   11.9193   34.8486    7.3920 C   0  0  0  0  0  0  0  0  0  0  0  0
   12.6685   33.3074    5.6086 C   0  0  0  0  0  0  0  0  0  0  0  0
   11.5106   36.1369    7.7487 C   0  0  0  0  0  0  0  0  0  0  0  0
   11.1770   36.4318    9.0743 C   0  0  0  0  0  0  0  0  0  0  0  0
   10.7657   37.8160    9.4504 C   0  0  0  0  0  0  0  0  0  0  0  0
   12.4074   38.4853   11.2219 C   0  0  0  0  0  0  0  0  0  0  0  0
   13.2974   39.6616   11.6079 C   0  0  0  0  0  0  0  0  0  0  0  0
   14.4133   39.7892   10.5834 C   0  0  0  0  0  0  0  0  0  0  0  0
   12.6887   39.3251    8.8572 C   0  0  0  0  0  0  0  0  0  0  0  0
   14.4317   41.1273    8.4597 C   0  0  0  0  0  0  0  0  0  0  0  0
   15.7292   41.5912    8.7327 C   0  0  0  0  0  0  0  0  0  0  0  0
   16.2963   42.6131    7.9681 C   0  0  0  0  0  0  0  0  0  0  0  0
   15.5704   43.1868    6.9229 C   0  0  0  0  0  0  0  0  0  0  0  0
   14.2715   42.7443    6.6369 C   0  0  0  0  0  0  0  0  0  0  0  0
   13.8934   44.3582    4.6783 C   0  0  0  0  0  0  0  0  0  0  0  0
   12.9571   44.8297    3.6160 C   0  0  0  0  0  0  0  0  0  0  0  0
   12.6472   43.7063    2.6460 C   0  0  0  0  0  0  0  0  0  0  0  0
   11.6722   45.3493    4.2314 C   0  0  0  0  0  0  0  0  0  0  0  0
   13.7124   41.7212    7.4088 C   0  0  0  0  0  0  0  0  0  0  0  0
   11.2607   35.4364   10.0530 C   0  0  0  0  0  0  0  0  0  0  0  0
   11.7377   33.1701   10.7139 O   0  0  0  0  0  0  0  0  0  0  0  0
   12.2424   34.5864    6.0579 O   0  0  0  0  0  0  0  0  0  0  0  0
   12.3362   39.2962    7.6460 O   0  0  0  0  0  0  0  0  0  0  0  0
   15.0309   44.8910    4.7687 O   0  0  0  0  0  0  0  0  0  0  0  0
   11.9265   38.6056    9.8444 N   0  0  0  0  0  0  0  0  0  0  0  0
   13.8475   40.0808    9.2665 N   0  0  0  0  0  0  0  0  0  0  0  0
   13.4933   43.3091    5.5732 N   0  0  0  0  0  0  0  0  0  0  0  0
  1 24  1  0
  2 24  1  0
  3  4  2  0
  4 25  1  0
  5 25  1  0
  6  7  2  0
  8  7  1  0
  8 28  1  0
  9 28  1  0
  9 10  1  0
 10 11  1  0
 11 29  1  0
 12 28  1  0
 14 15  2  0
 16 17  2  0
 17 30  1  0
 19 18  1  0
 19 20  1  0
 19 21  1  0
 22 13  2  0
 23  2  2  0
 29 12  1  0
 29 13  1  0
 30 18  1  0
  2  3  1  0
  4  6  1  0
  7 23  1  0
 12 26  2  0
 13 14  1  0
 15 16  1  0
 17 22  1  0
 18 27  2  0
M  END
>  <rmsd>  (1) 
0.249354944

$$$$
