Molport-053-137-771 MCULE-5500560604
     RDKit          3D

 22 24  0  0  0  0  0  0  0  0999 V2000
   14.2255   42.7102    6.6422 C   0  0  0  0  0  0  0  0  0  0  0  0
   16.2305   42.6081    7.8981 C   0  0  0  0  0  0  0  0  0  0  0  0
   15.6897   41.6058    8.7003 C   0  0  0  0  0  0  0  0  0  0  0  0
   14.3842   41.1752    8.4396 C   0  0  0  0  0  0  0  0  0  0  0  0
   13.7459   40.1057    9.2666 C   0  0  2  0  0  0  0  0  0  0  0  0
   13.6061   40.5475   10.7263 C   0  0  0  0  0  0  0  0  0  0  0  0
   13.0762   39.4080   11.5999 C   0  0  0  0  0  0  0  0  0  0  0  0
   13.6820   38.0473   11.2247 C   0  0  0  0  0  0  0  0  0  0  0  0
   15.4114   36.8792   10.1555 C   0  0  0  0  0  0  0  0  0  0  0  0
   16.6311   36.6417   10.9782 C   0  0  0  0  0  0  0  0  0  0  0  0
   14.4999   38.7704    9.1190 C   0  0  0  0  0  0  0  0  0  0  0  0
   13.8766   44.3137    4.6962 C   0  0  0  0  0  0  0  0  0  0  0  0
   14.1050   46.0443    2.9621 C   0  0  0  0  0  0  0  0  0  0  0  0
   15.2064   45.8849    3.8052 C   0  0  0  0  0  0  0  0  0  0  0  0
   15.4938   43.1399    6.8884 N   0  0  0  0  0  0  0  0  0  0  0  0
   14.8888   38.2104   10.4152 N   0  0  0  0  0  0  0  0  0  0  0  0
   17.7840   37.4571   10.8014 N   0  0  0  0  0  0  0  0  0  0  0  0
   13.6821   41.7371    7.4204 N   0  0  0  0  0  0  0  0  0  0  0  0
   13.4483   43.2714    5.5786 N   0  0  0  0  0  0  0  0  0  0  0  0
   15.0758   44.9271    4.7629 N   0  0  0  0  0  0  0  0  0  0  0  0
   16.6434   35.7149   11.8282 O   0  0  0  0  0  0  0  0  0  0  0  0
   12.9385   44.9334    3.4584 S   0  0  0  0  0  0  0  0  0  0  0  0
  1 19  1  0
  1 18  2  0
  2 15  2  0
  3  4  2  0
  5  4  1  6
  5  6  1  0
  6  7  1  0
  7  8  1  0
  8 16  1  0
  9 16  1  0
  9 10  1  0
 10 17  1  0
 11 16  1  0
 11  5  1  0
 12 22  1  0
 13 22  1  0
 14 20  1  0
 19 12  1  0
  1 15  1  0
  2  3  1  0
  4 18  1  0
 10 21  2  0
 12 20  2  0
 13 14  2  0
M  END
>  <rmsd>  (1) 
0.241154402

$$$$
