MolPort-016-617-167 65451904 CSSS00159537219 MCULE-6098239325 PubChem-50972509 ZINC000065451904 ZINC65451904
     RDKit          3D

 23 24  0  0  0  0  0  0  0  0999 V2000
   12.9089   44.8112    3.6827 C   0  0  0  0  0  0  0  0  0  0  0  0
   13.8822   44.3479    4.7051 C   0  0  0  0  0  0  0  0  0  0  0  0
   14.3257   42.7409    6.6440 C   0  0  0  0  0  0  0  0  0  0  0  0
   13.8788   41.7174    7.4762 C   0  0  0  0  0  0  0  0  0  0  0  0
   16.2390   42.5028    7.9824 C   0  0  0  0  0  0  0  0  0  0  0  0
   15.6293   43.1807    6.9311 C   0  0  0  0  0  0  0  0  0  0  0  0
   12.5820   41.0067    7.3730 C   0  0  0  0  0  0  0  0  0  0  0  0
   12.4165   40.5725    9.8661 C   0  0  0  0  0  0  0  0  0  0  0  0
   13.0248   39.3318   10.4326 C   0  0  0  0  0  0  0  0  0  0  0  0
   13.5078   39.3350   11.6703 C   0  0  0  0  0  0  0  0  0  0  0  0
   10.8151   39.4644    8.3017 C   0  0  0  0  0  0  0  0  0  0  0  0
    9.5749   40.2593    8.0204 C   0  0  0  0  0  0  0  0  0  0  0  0
    8.8804   40.1245    6.8022 C   0  0  0  0  0  0  0  0  0  0  0  0
    9.3448   39.1882    5.7382 C   0  0  0  0  0  0  0  0  0  0  0  0
    7.7231   40.8766    6.5754 C   0  0  0  0  0  0  0  0  0  0  0  0
    7.2502   41.7556    7.5531 C   0  0  0  0  0  0  0  0  0  0  0  0
    7.9318   41.8843    8.7653 C   0  0  0  0  0  0  0  0  0  0  0  0
    9.0888   41.1366    8.9987 C   0  0  0  0  0  0  0  0  0  0  0  0
   15.0194   44.8856    4.7643 O   0  0  0  0  0  0  0  0  0  0  0  0
   11.9992   40.9878    6.2550 O   0  0  0  0  0  0  0  0  0  0  0  0
   13.5085   43.2975    5.6039 N   0  0  0  0  0  0  0  0  0  0  0  0
   11.9696   40.3403    8.4976 N   0  0  0  0  0  0  0  0  0  0  0  0
   15.1339   41.3624    8.5359 S   0  0  0  0  0  0  0  0  0  0  0  0
  1  2  1  0
  2 21  1  0
  4 23  1  0
  4  7  1  0
  5 23  1  0
  6  3  1  0
  7 22  1  0
  8 22  1  0
  8  9  1  0
 11 22  1  0
 11 12  1  0
 13 15  2  0
 14 13  1  0
 16 17  2  0
 18 12  2  0
 21  3  1  0
  2 19  2  0
  3  4  2  0
  5  6  2  0
  7 20  2  0
  9 10  2  0
 12 13  1  0
 15 16  1  0
 17 18  1  0
M  END
>  <rmsd>  (1) 
0.242088541

$$$$
