Molport-046-951-073 MCULE-3394134079 MCULE-8905137122 PubChem-110089534
     RDKit          3D

 21 23  0  0  0  0  0  0  0  0999 V2000
   16.8200   46.5222    4.0920 C   0  0  0  0  0  0  0  0  0  0  0  0
   15.4774   45.9059    3.9319 C   0  0  0  0  0  0  0  0  0  0  0  0
   13.8565   44.3247    4.6642 C   0  0  0  0  0  0  0  0  0  0  0  0
   12.9794   44.7378    3.6575 C   0  0  0  0  0  0  0  0  0  0  0  0
   13.3688   45.7517    2.7805 C   0  0  0  0  0  0  0  0  0  0  0  0
   14.6259   46.3425    2.9152 C   0  0  0  0  0  0  0  0  0  0  0  0
   14.1946   42.7230    6.6474 C   0  0  0  0  0  0  0  0  0  0  0  0
   14.2968   41.1636    8.4355 C   0  0  0  0  0  0  0  0  0  0  0  0
   15.5861   41.6100    8.7506 C   0  0  0  0  0  0  0  0  0  0  0  0
   15.4847   43.1640    6.9689 C   0  0  0  0  0  0  0  0  0  0  0  0
   13.6360   40.0770    9.2220 C   0  0  2  0  0  0  0  0  0  0  0  0
   13.4157   40.5115   10.6755 C   0  0  0  0  0  0  0  0  0  0  0  0
   13.0949   39.3083   11.5605 C   0  0  0  0  0  0  0  0  0  0  0  0
   14.1190   38.1714   11.3954 C   0  0  0  0  0  0  0  0  0  0  0  0
   14.4155   38.7571    9.1100 C   0  0  0  0  0  0  0  0  0  0  0  0
   15.8522   37.2257   10.1381 C   0  0  0  0  0  0  0  0  0  0  0  0
   15.0790   44.9165    4.7760 N   0  0  0  0  0  0  0  0  0  0  0  0
   13.4457   43.2824    5.5591 N   0  0  0  0  0  0  0  0  0  0  0  0
   13.6359   41.7322    7.3924 N   0  0  0  0  0  0  0  0  0  0  0  0
   16.1498   42.5993    8.0104 N   0  0  0  0  0  0  0  0  0  0  0  0
   15.1140   38.4554   10.3577 N   0  0  0  0  0  0  0  0  0  0  0  0
  1  2  1  0
  3 17  2  0
  3 18  1  0
  4  5  2  0
  6  2  2  0
  8 19  2  0
  9 20  2  0
 10  7  2  0
 11  8  1  6
 11 12  1  0
 12 13  1  0
 13 14  1  0
 14 21  1  0
 15 21  1  0
 15 11  1  0
 16 21  1  0
 18  7  1  0
  2 17  1  0
  3  4  1  0
  5  6  1  0
  7 19  1  0
  8  9  1  0
 10 20  1  0
M  END
>  <rmsd>  (1) 
0.248331189

$$$$
