MolPort-002-614-447 2429038 LN00680422 PubChem-1630520 ZINC000002429038 ZINC02429038
     RDKit          3D

 29 32  0  0  0  0  0  0  0  0999 V2000
   14.2846   38.7758   11.6917 C   0  0  0  0  0  0  0  0  0  0  0  0
   13.0445   39.4671   11.1567 C   0  0  0  0  0  0  0  0  0  0  0  0
   13.3243   40.0783    9.7957 C   0  0  0  0  0  0  0  0  0  0  0  0
   14.1500   41.3456    9.9435 C   0  0  0  0  0  0  0  0  0  0  0  0
   14.1637   42.8190    6.6858 C   0  0  0  0  0  0  0  0  0  0  0  0
   14.0379   44.1909    4.5474 C   0  0  0  0  0  0  0  0  0  0  0  0
   13.3897   44.3023    3.2108 C   0  0  0  0  0  0  0  0  0  0  0  0
   13.9130   43.2480    2.2960 C   0  0  0  0  0  0  0  0  0  0  0  0
   13.2843   41.9999    2.2334 C   0  0  0  0  0  0  0  0  0  0  0  0
   13.7910   41.0011    1.3968 C   0  0  0  0  0  0  0  0  0  0  0  0
   14.9308   41.2398    0.6212 C   0  0  0  0  0  0  0  0  0  0  0  0
   16.5631   40.3762   -1.0242 C   0  0  0  0  0  0  0  0  0  0  0  0
   15.5630   42.4923    0.6917 C   0  0  0  0  0  0  0  0  0  0  0  0
   15.0566   43.4912    1.5280 C   0  0  0  0  0  0  0  0  0  0  0  0
   15.5244   42.6002    6.8300 C   0  0  0  0  0  0  0  0  0  0  0  0
   16.6259   42.7665    5.9966 C   0  0  0  0  0  0  0  0  0  0  0  0
   17.8733   42.3618    6.5026 C   0  0  0  0  0  0  0  0  0  0  0  0
   19.0280   42.5096    5.7311 C   0  0  0  0  0  0  0  0  0  0  0  0
   20.2648   42.1017    6.2404 C   0  0  0  0  0  0  0  0  0  0  0  0
   20.3526   41.5434    7.5203 C   0  0  0  0  0  0  0  0  0  0  0  0
   19.2046   41.3872    8.3035 C   0  0  0  0  0  0  0  0  0  0  0  0
   17.9615   41.7912    7.8104 C   0  0  0  0  0  0  0  0  0  0  0  0
   15.6474   42.0393    8.0672 C   0  0  0  0  0  0  0  0  0  0  0  0
   14.4382   41.9086    8.6338 N   0  0  0  0  0  0  0  0  0  0  0  0
   13.5198   42.3751    7.7935 N   0  0  0  0  0  0  0  0  0  0  0  0
   13.4779   43.3166    5.5312 N   0  0  0  0  0  0  0  0  0  0  0  0
   16.8382   41.6298    8.5723 N   0  0  0  0  0  0  0  0  0  0  0  0
   15.0638   44.8767    4.7989 O   0  0  0  0  0  0  0  0  0  0  0  0
   15.4122   40.2208   -0.2051 O   0  0  0  0  0  0  0  0  0  0  0  0
  1  2  1  0
  2  3  1  0
  3  4  1  0
  4 24  1  0
  5 26  1  0
  5 15  1  0
  7  6  1  0
  7  8  1  0
  9 10  2  0
 11 29  1  0
 11 13  2  0
 12 29  1  0
 14  8  2  0
 16 17  2  0
 18 19  2  0
 20 21  2  0
 22 27  2  0
 22 17  1  0
 23 24  1  0
 23 15  2  0
 24 25  1  0
 26  6  1  0
  5 25  2  0
  6 28  2  0
  8  9  1  0
 10 11  1  0
 13 14  1  0
 15 16  1  0
 17 18  1  0
 19 20  1  0
 21 22  1  0
 23 27  1  0
M  END
>  <rmsd>  (1) 
0.241385609

$$$$
