Molport-020-279-146 MCULE-3336476174 MCULE-7297811487 PubChem-110255900
     RDKit          3D

 25 27  0  0  0  0  0  0  0  0999 V2000
   17.5873   43.0341    8.3351 C   0  0  0  0  0  0  0  0  0  0  0  0
   16.2130   42.5793    7.9997 C   0  0  0  0  0  0  0  0  0  0  0  0
   15.5223   43.1688    6.9433 C   0  0  0  0  0  0  0  0  0  0  0  0
   14.2301   42.7199    6.6502 C   0  0  0  0  0  0  0  0  0  0  0  0
   14.3722   41.1599    8.4295 C   0  0  0  0  0  0  0  0  0  0  0  0
   13.7368   40.0688    9.2252 C   0  0  2  0  0  0  0  0  0  0  0  0
   13.6038   40.4773   10.6937 C   0  0  0  0  0  0  0  0  0  0  0  0
   12.9510   39.3567   11.5006 C   0  0  0  0  0  0  0  0  0  0  0  0
   13.7740   38.0779   11.3774 C   0  0  0  0  0  0  0  0  0  0  0  0
   14.5397   38.7746    9.0975 C   0  0  0  0  0  0  0  0  0  0  0  0
   13.5547   36.4777    9.4478 C   0  0  0  0  0  0  0  0  0  0  0  0
   13.7410   36.1404    8.0057 C   0  0  0  0  0  0  0  0  0  0  0  0
   15.1914   35.3164    6.3805 C   0  0  0  0  0  0  0  0  0  0  0  0
   13.8472   44.3238    4.6763 C   0  0  0  0  0  0  0  0  0  0  0  0
   15.4307   45.9121    3.9032 C   0  0  0  0  0  0  0  0  0  0  0  0
   14.5356   46.3251    2.9155 C   0  0  0  0  0  0  0  0  0  0  0  0
   12.9542   44.7398    3.6865 C   0  0  0  0  0  0  0  0  0  0  0  0
   13.6865   41.7255    7.4011 N   0  0  0  0  0  0  0  0  0  0  0  0
   15.6301   41.5888    8.7225 N   0  0  0  0  0  0  0  0  0  0  0  0
   13.9594   37.7535    9.9658 N   0  0  0  0  0  0  0  0  0  0  0  0
   15.0664   35.5843    7.8011 N   0  0  0  0  0  0  0  0  0  0  0  0
   13.4582   43.2786    5.5776 N   0  0  0  0  0  0  0  0  0  0  0  0
   15.0675   44.9222    4.7604 N   0  0  0  0  0  0  0  0  0  0  0  0
   13.3169   45.7301    2.8287 N   0  0  0  0  0  0  0  0  0  0  0  0
   13.0593   35.6102   10.2159 O   0  0  0  0  0  0  0  0  0  0  0  0
  1  2  1  0
  2 19  2  0
  3  4  2  0
  4 22  1  0
  5 18  2  0
  6  5  1  6
  6  7  1  0
  7  8  1  0
  8  9  1  0
  9 20  1  0
 10 20  1  0
 10  6  1  0
 12 11  1  0
 12 21  1  0
 13 21  1  0
 15 23  2  0
 16 24  2  0
 17 14  2  0
 20 11  1  0
 22 14  1  0
  2  3  1  0
  4 18  1  0
  5 19  1  0
 11 25  2  0
 14 23  1  0
 15 16  1  0
 17 24  1  0
M  END
>  <rmsd>  (1) 
0.240414381

$$$$
