MolPort-006-579-772 ChemDiv-V028-5033 MCULE-9196107021 PubChem-46040736 ZINC000037543437 ZINC37543437
     RDKit          3D

 28 30  0  0  0  0  0  0  0  0999 V2000
   11.0213   45.7279    3.1066 C   0  0  0  0  0  0  0  0  0  0  0  0
   12.9610   44.8053    3.6105 C   0  0  0  0  0  0  0  0  0  0  0  0
   13.8969   44.3532    4.6752 C   0  0  0  0  0  0  0  0  0  0  0  0
   14.2667   42.7542    6.6449 C   0  0  0  0  0  0  0  0  0  0  0  0
   13.6996   41.7455    7.4300 C   0  0  0  0  0  0  0  0  0  0  0  0
   14.4137   41.1605    8.4892 C   0  0  0  0  0  0  0  0  0  0  0  0
   15.7133   41.6205    8.7587 C   0  0  0  0  0  0  0  0  0  0  0  0
   16.2887   42.6273    7.9806 C   0  0  0  0  0  0  0  0  0  0  0  0
   15.5681   43.1912    6.9262 C   0  0  0  0  0  0  0  0  0  0  0  0
   14.3775   39.8675   10.6372 C   0  0  0  0  0  0  0  0  0  0  0  0
   13.2554   39.5950   11.6252 C   0  0  0  0  0  0  0  0  0  0  0  0
   12.4811   38.3496   11.2028 C   0  0  0  0  0  0  0  0  0  0  0  0
   11.1091   37.4208    9.3339 C   0  0  0  0  0  0  0  0  0  0  0  0
   11.7416   36.3130    8.5587 C   0  0  0  0  0  0  0  0  0  0  0  0
   12.4954   35.3343    9.2173 C   0  0  0  0  0  0  0  0  0  0  0  0
   13.0973   34.3050    8.4872 C   0  0  0  0  0  0  0  0  0  0  0  0
   12.9476   34.2531    7.0979 C   0  0  0  0  0  0  0  0  0  0  0  0
   12.1955   35.2304    6.4387 C   0  0  0  0  0  0  0  0  0  0  0  0
   11.5937   36.2601    7.1685 C   0  0  0  0  0  0  0  0  0  0  0  0
   12.7429   39.2842    8.8593 C   0  0  0  0  0  0  0  0  0  0  0  0
   11.8060   45.3325    4.1890 O   0  0  0  0  0  0  0  0  0  0  0  0
   15.0319   44.8912    4.7654 O   0  0  0  0  0  0  0  0  0  0  0  0
   12.3578   39.3206    7.6585 O   0  0  0  0  0  0  0  0  0  0  0  0
   13.4933   43.3107    5.5731 N   0  0  0  0  0  0  0  0  0  0  0  0
   13.8194   40.1322    9.3119 N   0  0  0  0  0  0  0  0  0  0  0  0
   12.1160   38.3749    9.7849 N   0  0  0  0  0  0  0  0  0  0  0  0
   13.8280   33.3600    9.1258 F   0  0  0  0  0  0  0  0  0  0  0  0
   12.0508   35.1803    5.0929 F   0  0  0  0  0  0  0  0  0  0  0  0
  1 21  1  0
  2 21  1  0
  2  3  1  0
  3 24  1  0
  5  6  2  0
  6 25  1  0
  7  8  2  0
  9  4  2  0
 10 25  1  0
 10 11  1  0
 11 12  1  0
 12 26  1  0
 13 26  1  0
 13 14  1  0
 15 16  2  0
 16 27  1  0
 17 18  2  0
 18 28  1  0
 19 14  2  0
 20 25  1  0
 24  4  1  0
 26 20  1  0
  3 22  2  0
  4  5  1  0
  6  7  1  0
  8  9  1  0
 14 15  1  0
 16 17  1  0
 18 19  1  0
 20 23  2  0
M  END
>  <rmsd>  (1) 
0.246457443

$$$$
