MolPort-020-295-094 MCULE-2560501570 PubChem-110267191
     RDKit          3D

 29 32  0  0  0  0  0  0  0  0999 V2000
   15.0163   47.4328    1.9988 C   0  0  0  0  0  0  0  0  0  0  0  0
   14.5986   46.3488    2.9254 C   0  0  0  0  0  0  0  0  0  0  0  0
   15.4625   45.9074    3.9289 C   0  0  0  0  0  0  0  0  0  0  0  0
   13.8479   44.3252    4.6724 C   0  0  0  0  0  0  0  0  0  0  0  0
   12.9588   44.7441    3.6786 C   0  0  0  0  0  0  0  0  0  0  0  0
   13.3390   45.7616    2.8016 C   0  0  0  0  0  0  0  0  0  0  0  0
   14.2308   42.7317    6.6352 C   0  0  0  0  0  0  0  0  0  0  0  0
   16.2258   42.6662    7.9082 C   0  0  0  0  0  0  0  0  0  0  0  0
   15.7010   41.6468    8.6992 C   0  0  0  0  0  0  0  0  0  0  0  0
   14.4092   41.1864    8.4222 C   0  0  0  0  0  0  0  0  0  0  0  0
   13.7866   40.0938    9.2316 C   0  0  2  0  0  0  0  0  0  0  0  0
   13.6476   40.5043   10.6994 C   0  0  0  0  0  0  0  0  0  0  0  0
   12.9904   39.3850   11.5030 C   0  0  0  0  0  0  0  0  0  0  0  0
   13.8057   38.1011   11.3785 C   0  0  0  0  0  0  0  0  0  0  0  0
   14.5861   38.7963    9.1094 C   0  0  0  0  0  0  0  0  0  0  0  0
   13.4597   36.5693    9.3841 C   0  0  0  0  0  0  0  0  0  0  0  0
   13.2099   35.3455   10.1821 C   0  0  0  0  0  0  0  0  0  0  0  0
   12.3787   34.3378    9.6684 C   0  0  0  0  0  0  0  0  0  0  0  0
   12.1522   33.1648   10.3941 C   0  0  0  0  0  0  0  0  0  0  0  0
   12.7610   32.9851   11.6383 C   0  0  0  0  0  0  0  0  0  0  0  0
   13.6005   33.9754   12.1541 C   0  0  0  0  0  0  0  0  0  0  0  0
   13.8260   35.1477   11.4272 C   0  0  0  0  0  0  0  0  0  0  0  0
   15.0730   44.9145    4.7733 N   0  0  0  0  0  0  0  0  0  0  0  0
   13.4487   43.2803    5.5676 N   0  0  0  0  0  0  0  0  0  0  0  0
   15.4863   43.1883    6.8959 N   0  0  0  0  0  0  0  0  0  0  0  0
   13.7051   41.7374    7.3986 N   0  0  0  0  0  0  0  0  0  0  0  0
   13.9928   37.7732    9.9665 N   0  0  0  0  0  0  0  0  0  0  0  0
   13.2021   36.5491    8.1487 O   0  0  0  0  0  0  0  0  0  0  0  0
   12.4768   31.5175   12.5482 Cl  0  0  0  0  0  0  0  0  0  0  0  0
  1  2  1  0
  3 23  2  0
  4  5  2  0
  4 24  1  0
  6  2  2  0
  7 26  2  0
  8 25  2  0
  9 10  2  0
 11 10  1  6
 11 12  1  0
 12 13  1  0
 13 14  1  0
 14 27  1  0
 15 27  1  0
 15 11  1  0
 16 17  1  0
 18 19  2  0
 20 21  2  0
 20 29  1  0
 22 17  2  0
 24  7  1  0
 27 16  1  0
  2  3  1  0
  4 23  1  0
  5  6  1  0
  7 25  1  0
  8  9  1  0
 10 26  1  0
 16 28  2  0
 17 18  1  0
 19 20  1  0
 21 22  1  0
M  END
>  <rmsd>  (1) 
0.241108447

$$$$
