MolPort-002-981-682 9226409 CSSS00132429909 MCULE-9893142674 PubChem-3961480 ZINC000009226409 ZINC09226409
     RDKit          3D

 20 21  0  0  0  0  0  0  0  0999 V2000
   13.1881   38.6408   11.0269 C   0  0  0  0  0  0  0  0  0  0  0  0
   13.8304   39.9342   11.4921 C   0  0  0  0  0  0  0  0  0  0  0  0
   13.8171   40.9638   10.3766 C   0  0  0  0  0  0  0  0  0  0  0  0
   14.8795   40.6370    9.3401 C   0  0  0  0  0  0  0  0  0  0  0  0
   14.2668   42.7759    6.6292 C   0  0  0  0  0  0  0  0  0  0  0  0
   13.9063   44.3519    4.6671 C   0  0  0  0  0  0  0  0  0  0  0  0
   12.9930   44.8102    3.5925 C   0  0  0  0  0  0  0  0  0  0  0  0
   13.3430   45.8355    2.6802 C   0  0  0  0  0  0  0  0  0  0  0  0
   15.0007   47.4976    1.8809 C   0  0  0  0  0  0  0  0  0  0  0  0
   12.4245   46.2171    1.6868 C   0  0  0  0  0  0  0  0  0  0  0  0
   11.1777   45.5986    1.5916 C   0  0  0  0  0  0  0  0  0  0  0  0
   10.8322   44.5896    2.4887 C   0  0  0  0  0  0  0  0  0  0  0  0
   11.7336   44.2000    3.4802 C   0  0  0  0  0  0  0  0  0  0  0  0
   14.8504   41.6193    8.2702 N   0  0  0  0  0  0  0  0  0  0  0  0
   15.8512   42.4349    7.9863 N   0  0  0  0  0  0  0  0  0  0  0  0
   15.5116   43.1847    6.9501 N   0  0  0  0  0  0  0  0  0  0  0  0
   13.4846   43.3077    5.5556 N   0  0  0  0  0  0  0  0  0  0  0  0
   13.8352   41.7945    7.4416 N   0  0  0  0  0  0  0  0  0  0  0  0
   15.0464   44.8726    4.8041 O   0  0  0  0  0  0  0  0  0  0  0  0
   14.5919   46.4635    2.7663 O   0  0  0  0  0  0  0  0  0  0  0  0
  1  2  1  0
  2  3  1  0
  3  4  1  0
  4 14  1  0
  5 16  1  0
  5 17  1  0
  6  7  1  0
  8 20  1  0
  8 10  2  0
  9 20  1  0
 11 12  2  0
 13  7  2  0
 14 15  1  0
 14 18  1  0
 17  6  1  0
  5 18  2  0
  6 19  2  0
  7  8  1  0
 10 11  1  0
 12 13  1  0
 15 16  2  0
M  END
>  <rmsd>  (1) 
0.165042549

$$$$
