MolPort-020-292-542 MCULE-8860275436 PubChem-110265010
     RDKit          3D

 30 33  0  0  0  0  0  0  0  0999 V2000
   17.5982   43.0767    8.3323 C   0  0  0  0  0  0  0  0  0  0  0  0
   16.2261   42.6059    8.0109 C   0  0  0  0  0  0  0  0  0  0  0  0
   15.5224   43.1799    6.9507 C   0  0  0  0  0  0  0  0  0  0  0  0
   14.2293   42.7302    6.6535 C   0  0  0  0  0  0  0  0  0  0  0  0
   13.6689   41.7119    7.4284 C   0  0  0  0  0  0  0  0  0  0  0  0
   14.4012   41.1602    8.4828 C   0  0  0  0  0  0  0  0  0  0  0  0
   13.7996   40.0698    9.3045 C   0  0  2  0  0  0  0  0  0  0  0  0
   13.6465   40.5055   10.7619 C   0  0  0  0  0  0  0  0  0  0  0  0
   13.0798   39.3690   11.6173 C   0  0  0  0  0  0  0  0  0  0  0  0
   13.5899   37.9924   11.1739 C   0  0  0  0  0  0  0  0  0  0  0  0
   14.6176   38.7732    9.1664 C   0  0  0  0  0  0  0  0  0  0  0  0
   14.2888   35.6011    9.1597 C   0  0  0  0  0  0  0  0  0  0  0  0
   14.1953   35.5402    7.7859 C   0  0  0  0  0  0  0  0  0  0  0  0
   13.2493   34.8074    9.5974 C   0  0  0  0  0  0  0  0  0  0  0  0
   12.8729   34.5294   11.0104 C   0  0  0  0  0  0  0  0  0  0  0  0
   15.0697   36.2249    6.7946 C   0  0  0  0  0  0  0  0  0  0  0  0
   13.8468   44.3217    4.6703 C   0  0  0  0  0  0  0  0  0  0  0  0
   12.9494   44.7258    3.6781 C   0  0  0  0  0  0  0  0  0  0  0  0
   13.3172   45.7379    2.7899 C   0  0  0  0  0  0  0  0  0  0  0  0
   14.5732   46.3361    2.8992 C   0  0  0  0  0  0  0  0  0  0  0  0
   15.4455   45.9084    3.9018 C   0  0  0  0  0  0  0  0  0  0  0  0
   15.6570   41.6162    8.7490 N   0  0  0  0  0  0  0  0  0  0  0  0
   14.8584   38.1150   10.4562 N   0  0  0  0  0  0  0  0  0  0  0  0
   12.5893   34.3076    8.5349 N   0  0  0  0  0  0  0  0  0  0  0  0
   13.4579   43.2809    5.5767 N   0  0  0  0  0  0  0  0  0  0  0  0
   15.0681   44.9205    4.7574 N   0  0  0  0  0  0  0  0  0  0  0  0
   15.4451   36.5145   10.1312 S   0  0  0  0  0  0  0  0  0  0  0  0
   16.7528   36.6013    9.3948 O   0  0  0  0  0  0  0  0  0  0  0  0
   15.6826   35.7947   11.4294 O   0  0  0  0  0  0  0  0  0  0  0  0
   13.1829   34.7665    7.4693 O   0  0  0  0  0  0  0  0  0  0  0  0
  1  2  1  0
  2 22  2  0
  3  4  2  0
  4 25  1  0
  5  6  2  0
  7  6  1  6
  7  8  1  0
  8  9  1  0
  9 10  1  0
 10 23  1  0
 11 23  1  0
 11  7  1  0
 13 30  1  0
 14 12  1  0
 15 14  1  0
 16 13  1  0
 17 26  2  0
 18 19  2  0
 20 21  2  0
 25 17  1  0
 27 23  1  0
 27 12  1  0
 30 24  1  0
  2  3  1  0
  4  5  1  0
  6 22  1  0
 12 13  2  0
 14 24  2  0
 17 18  1  0
 19 20  1  0
 21 26  1  0
 27 28  2  0
 27 29  2  0
M  END
>  <rmsd>  (1) 
0.248305634

$$$$
