MolPort-039-210-490 CSSS03437013364 MCULE-2337650426 PubChem-121017037
     RDKit          3D

 25 28  0  0  0  0  0  0  0  0999 V2000
   15.1125   45.0202    4.6957 O   0  0  0  0  0  0  0  0  0  0  0  0
   13.4624   45.7482    6.3738 O   0  0  0  0  0  0  0  0  0  0  0  0
   12.9817   40.0071    9.9412 O   0  0  0  0  0  0  0  0  0  0  0  0
    9.8751   46.1828    0.9089 O   0  0  0  0  0  0  0  0  0  0  0  0
   13.7011   44.8586    5.1864 S   0  0  0  0  0  0  0  0  0  0  0  0
   13.4389   43.2073    5.6389 N   0  0  0  0  0  0  0  0  0  0  0  0
   14.9258   41.0706    8.0545 N   0  0  0  0  0  0  0  0  0  0  0  0
   15.6269   42.1711    8.2796 N   0  0  0  0  0  0  0  0  0  0  0  0
   14.1905   42.5644    6.6683 C   0  0  0  0  0  0  0  0  0  0  0  0
   14.0239   41.2611    7.0757 C   0  0  0  0  0  0  0  0  0  0  0  0
   15.0926   39.8386    8.8078 C   0  0  0  0  0  0  0  0  0  0  0  0
   14.3732   39.9350   10.1427 C   0  0  2  0  0  0  0  0  0  0  0  0
   14.7459   38.7282   11.0169 C   0  0  0  0  0  0  0  0  0  0  0  0
   13.5223   38.1496   11.7332 C   0  0  0  0  0  0  0  0  0  0  0  0
   12.5801   39.2527   12.2223 C   0  0  0  0  0  0  0  0  0  0  0  0
   12.4285   40.3746   11.1819 C   0  0  0  0  0  0  0  0  0  0  0  0
   15.1979   43.1255    7.4306 C   0  0  0  0  0  0  0  0  0  0  0  0
   12.5892   45.2975    3.9037 C   0  0  0  0  0  0  0  0  0  0  0  0
   11.5548   44.4190    3.5337 C   0  0  0  0  0  0  0  0  0  0  0  0
   10.6915   44.8103    2.5115 C   0  0  0  0  0  0  0  0  0  0  0  0
   10.8352   46.0101    1.8793 C   0  0  0  0  0  0  0  0  0  0  0  0
    9.0170   45.0424    0.8614 C   0  0  0  0  0  0  0  0  0  0  0  0
    9.5375   44.0710    1.9440 C   0  0  0  0  0  0  0  0  0  0  0  0
   11.8470   46.9056    2.2209 C   0  0  0  0  0  0  0  0  0  0  0  0
   12.7317   46.5379    3.2478 C   0  0  0  0  0  0  0  0  0  0  0  0
  5  6  1  0
  5 18  1  0
  6  9  1  0
  7  8  1  0
 10  7  1  0
 11  7  1  0
 12 11  1  6
 12 13  1  0
 12  3  1  0
 13 14  1  0
 14 15  1  0
 15 16  1  0
 16  3  1  0
 17  9  1  0
 19 20  2  0
 21  4  1  0
 21 24  2  0
 22  4  1  0
 22 23  1  0
 23 20  1  0
 25 18  2  0
  5  1  2  0
  5  2  2  0
  9 10  2  0
 17  8  2  0
 18 19  1  0
 20 21  1  0
 24 25  1  0
M  END
>  <rmsd>  (1) 
0.247878194

$$$$
