MolPort-008-295-443 17068714 CSSS00160395868 MCULE-4790383783 PubChem-17349465 ZINC000017068714 ZINC17068714
     RDKit          3D

 23 24  0  0  0  0  0  0  0  0999 V2000
   12.8409   39.2440   11.8323 C   0  0  0  0  0  0  0  0  0  0  0  0
   13.9931   38.9499   10.8946 C   0  0  0  0  0  0  0  0  0  0  0  0
   15.0368   40.7227    9.5401 C   0  0  0  0  0  0  0  0  0  0  0  0
   14.9554   41.6646    8.4056 C   0  0  0  0  0  0  0  0  0  0  0  0
   15.9203   42.5755    7.9891 C   0  0  0  0  0  0  0  0  0  0  0  0
   17.2581   42.7967    8.6061 C   0  0  0  0  0  0  0  0  0  0  0  0
   14.2850   42.8176    6.6475 C   0  0  0  0  0  0  0  0  0  0  0  0
   13.9069   44.3391    4.6580 C   0  0  0  0  0  0  0  0  0  0  0  0
   13.0056   44.7718    3.5763 C   0  0  0  0  0  0  0  0  0  0  0  0
   13.3940   45.7752    2.6789 C   0  0  0  0  0  0  0  0  0  0  0  0
   11.3257   45.6088    1.5250 C   0  0  0  0  0  0  0  0  0  0  0  0
   10.8962   44.6055    2.3955 C   0  0  0  0  0  0  0  0  0  0  0  0
   11.7422   44.1881    3.4238 C   0  0  0  0  0  0  0  0  0  0  0  0
   13.8970   41.8302    7.5270 C   0  0  0  0  0  0  0  0  0  0  0  0
   12.6397   41.1276    7.5181 C   0  0  0  0  0  0  0  0  0  0  0  0
   13.9675   39.8666    9.8108 O   0  0  0  0  0  0  0  0  0  0  0  0
   16.0702   40.6927   10.2628 O   0  0  0  0  0  0  0  0  0  0  0  0
   15.4914   43.2450    6.9422 O   0  0  0  0  0  0  0  0  0  0  0  0
   15.0422   44.8751    4.7819 O   0  0  0  0  0  0  0  0  0  0  0  0
   13.4900   43.3112    5.5649 N   0  0  0  0  0  0  0  0  0  0  0  0
   12.5550   46.1684    1.6830 N   0  0  0  0  0  0  0  0  0  0  0  0
   11.6294   40.5635    7.5104 N   0  0  0  0  0  0  0  0  0  0  0  0
   10.2803   46.1471    0.2287 Cl  0  0  0  0  0  0  0  0  0  0  0  0
  1  2  1  0
  2 16  1  0
  3 16  1  0
  3  4  1  0
  5 18  1  0
  6  5  1  0
  7 18  1  0
  7 20  1  0
  8  9  1  0
 10 21  2  0
 11 23  1  0
 11 12  2  0
 13  9  2  0
 14 15  1  0
 14  4  1  0
 20  8  1  0
  3 17  2  0
  4  5  2  0
  7 14  2  0
  8 19  2  0
  9 10  1  0
 11 21  1  0
 12 13  1  0
 15 22  3  0
M  END
>  <rmsd>  (1) 
0.203955457

$$$$
