MolPort-020-279-174 MCULE-1711178122 PubChem-110255928
     RDKit          3D

 27 30  0  0  0  0  0  0  0  0999 V2000
   12.3143   46.1318    1.7997 C   0  0  0  0  0  0  0  0  0  0  0  0
   13.2906   45.7125    2.8385 C   0  0  0  0  0  0  0  0  0  0  0  0
   14.5372   46.3308    2.9132 C   0  0  0  0  0  0  0  0  0  0  0  0
   15.4249   45.9096    3.9011 C   0  0  0  0  0  0  0  0  0  0  0  0
   13.8439   44.3255    4.6747 C   0  0  0  0  0  0  0  0  0  0  0  0
   14.2361   42.7233    6.6482 C   0  0  0  0  0  0  0  0  0  0  0  0
   14.3866   41.1622    8.4316 C   0  0  0  0  0  0  0  0  0  0  0  0
   15.6813   41.6135    8.7167 C   0  0  0  0  0  0  0  0  0  0  0  0
   15.5315   43.1694    6.9400 C   0  0  0  0  0  0  0  0  0  0  0  0
   13.7484   40.0708    9.2297 C   0  0  2  0  0  0  0  0  0  0  0  0
   13.6018   40.4744   10.6991 C   0  0  0  0  0  0  0  0  0  0  0  0
   12.9320   39.3556   11.4940 C   0  0  0  0  0  0  0  0  0  0  0  0
   13.7450   38.0704   11.3717 C   0  0  0  0  0  0  0  0  0  0  0  0
   14.5358   38.7661    9.1019 C   0  0  0  0  0  0  0  0  0  0  0  0
   13.5159   36.4767    9.4359 C   0  0  0  0  0  0  0  0  0  0  0  0
   12.5408   34.3401    9.7871 C   0  0  0  0  0  0  0  0  0  0  0  0
   12.7083   34.0376    8.4356 C   0  0  0  0  0  0  0  0  0  0  0  0
   13.6812   36.1663    8.0788 C   0  0  0  0  0  0  0  0  0  0  0  0
   16.7646   46.5422    4.0158 C   0  0  0  0  0  0  0  0  0  0  0  0
   15.0654   44.9203    4.7596 N   0  0  0  0  0  0  0  0  0  0  0  0
   12.9677   44.7265    3.7156 N   0  0  0  0  0  0  0  0  0  0  0  0
   13.4595   43.2807    5.5785 N   0  0  0  0  0  0  0  0  0  0  0  0
   13.6993   41.7291    7.4048 N   0  0  0  0  0  0  0  0  0  0  0  0
   16.2232   42.6062    7.9647 N   0  0  0  0  0  0  0  0  0  0  0  0
   13.9344   37.7473    9.9600 N   0  0  0  0  0  0  0  0  0  0  0  0
   12.9470   35.5493   10.2560 N   0  0  0  0  0  0  0  0  0  0  0  0
   13.2747   34.9569    7.6110 N   0  0  0  0  0  0  0  0  0  0  0  0
  1  2  1  0
  2 21  2  0
  3  4  2  0
  5 20  2  0
  5 22  1  0
  7 23  2  0
  8 24  2  0
  9  6  2  0
 10  7  1  6
 10 11  1  0
 11 12  1  0
 12 13  1  0
 13 25  1  0
 14 25  1  0
 14 10  1  0
 16 26  2  0
 17 27  2  0
 18 15  2  0
 19  4  1  0
 22  6  1  0
 25 15  1  0
  2  3  1  0
  4 20  1  0
  5 21  1  0
  6 23  1  0
  7  8  1  0
  9 24  1  0
 15 26  1  0
 16 17  1  0
 18 27  1  0
M  END
>  <rmsd>  (1) 
0.240205809

$$$$
