MolPort-020-296-474 MCULE-4620783360 PubChem-110268416
     RDKit          3D

 30 33  0  0  0  0  0  0  0  0999 V2000
   10.5793   32.4360   12.5438 C   0  0  0  0  0  0  0  0  0  0  0  0
   11.0894   33.5630   11.7110 C   0  0  0  0  0  0  0  0  0  0  0  0
   12.1828   33.3989   10.8397 C   0  0  0  0  0  0  0  0  0  0  0  0
   12.6297   34.4821   10.0767 C   0  0  0  0  0  0  0  0  0  0  0  0
   11.9952   35.7246   10.1724 C   0  0  0  0  0  0  0  0  0  0  0  0
   10.9118   35.8865   11.0415 C   0  0  0  0  0  0  0  0  0  0  0  0
   10.4604   34.8084   11.8069 C   0  0  0  0  0  0  0  0  0  0  0  0
   13.8148   38.1095   11.3412 C   0  0  0  0  0  0  0  0  0  0  0  0
   12.9810   39.3850   11.4730 C   0  0  0  0  0  0  0  0  0  0  0  0
   13.6389   40.5135   10.6984 C   0  0  0  0  0  0  0  0  0  0  0  0
   13.7855   40.1006    9.2405 C   0  0  2  0  0  0  0  0  0  0  0  0
   14.5962   38.8044    9.1316 C   0  0  0  0  0  0  0  0  0  0  0  0
   14.4081   41.1925    8.4303 C   0  0  0  0  0  0  0  0  0  0  0  0
   14.2304   42.7342    6.6403 C   0  0  0  0  0  0  0  0  0  0  0  0
   16.2231   42.6745    7.9170 C   0  0  0  0  0  0  0  0  0  0  0  0
   15.6987   41.6559    8.7091 C   0  0  0  0  0  0  0  0  0  0  0  0
   13.8500   44.3234    4.6744 C   0  0  0  0  0  0  0  0  0  0  0  0
   15.4493   45.9046    3.9207 C   0  0  0  0  0  0  0  0  0  0  0  0
   14.5658   46.3246    2.9253 C   0  0  0  0  0  0  0  0  0  0  0  0
   12.9685   44.7461    3.6772 C   0  0  0  0  0  0  0  0  0  0  0  0
   12.8855   32.0902   10.7070 C   0  0  0  0  0  0  0  0  0  0  0  0
   12.5776   37.0803    9.2220 S   0  0  0  0  0  0  0  0  0  0  0  0
   11.5109   38.1388    9.1549 O   0  0  0  0  0  0  0  0  0  0  0  0
   12.8714   36.6063    7.8260 O   0  0  0  0  0  0  0  0  0  0  0  0
   14.0341   37.7134    9.9413 N   0  0  0  0  0  0  0  0  0  0  0  0
   13.7049   41.7406    7.4046 N   0  0  0  0  0  0  0  0  0  0  0  0
   15.4847   43.1932    6.9021 N   0  0  0  0  0  0  0  0  0  0  0  0
   13.4493   43.2795    5.5702 N   0  0  0  0  0  0  0  0  0  0  0  0
   15.0726   44.9147    4.7722 N   0  0  0  0  0  0  0  0  0  0  0  0
   13.3448   45.7362    2.8253 N   0  0  0  0  0  0  0  0  0  0  0  0
  1  2  1  0
  3  4  2  0
  5  6  2  0
  7  2  2  0
  8 25  1  0
  8  9  1  0
  9 10  1  0
 10 11  1  0
 11 12  1  0
 11 13  1  6
 12 25  1  0
 14 26  2  0
 14 28  1  0
 15 27  2  0
 16 13  2  0
 18 29  2  0
 19 30  2  0
 20 17  2  0
 21  3  1  0
 22  5  1  0
 22 25  1  0
 28 17  1  0
  2  3  1  0
  4  5  1  0
  6  7  1  0
 13 26  1  0
 14 27  1  0
 15 16  1  0
 17 29  1  0
 18 19  1  0
 20 30  1  0
 22 23  2  0
 22 24  2  0
M  END
>  <rmsd>  (1) 
0.244874433

$$$$
