MolPort-020-298-618 MCULE-6502622054 PubChem-110269774
     RDKit          3D

 29 32  0  0  0  0  0  0  0  0999 V2000
   12.2889   46.1208    1.8077 C   0  0  0  0  0  0  0  0  0  0  0  0
   13.2725   45.7064    2.8415 C   0  0  0  0  0  0  0  0  0  0  0  0
   14.5176   46.3287    2.9078 C   0  0  0  0  0  0  0  0  0  0  0  0
   15.4124   45.9120    3.8913 C   0  0  0  0  0  0  0  0  0  0  0  0
   13.8409   44.3242    4.6769 C   0  0  0  0  0  0  0  0  0  0  0  0
   14.2482   42.7251    6.6512 C   0  0  0  0  0  0  0  0  0  0  0  0
   15.5443   43.1788    6.9314 C   0  0  0  0  0  0  0  0  0  0  0  0
   16.2643   42.6061    7.9797 C   0  0  0  0  0  0  0  0  0  0  0  0
   15.6905   41.5882    8.7403 C   0  0  0  0  0  0  0  0  0  0  0  0
   14.3926   41.1545    8.4380 C   0  0  0  0  0  0  0  0  0  0  0  0
   13.7388   40.0649    9.2263 C   0  0  2  0  0  0  0  0  0  0  0  0
   13.5855   40.4622   10.6961 C   0  0  0  0  0  0  0  0  0  0  0  0
   12.8970   39.3462   11.4780 C   0  0  0  0  0  0  0  0  0  0  0  0
   13.6915   38.0495   11.3513 C   0  0  0  0  0  0  0  0  0  0  0  0
   14.5170   38.7547    9.1015 C   0  0  0  0  0  0  0  0  0  0  0  0
   13.3509   36.5434    9.3356 C   0  0  0  0  0  0  0  0  0  0  0  0
   13.0640   35.3175   10.1173 C   0  0  0  0  0  0  0  0  0  0  0  0
   13.6343   35.0981   11.3787 C   0  0  0  0  0  0  0  0  0  0  0  0
   12.5695   32.9836   11.5529 C   0  0  0  0  0  0  0  0  0  0  0  0
   11.9871   33.1502   10.2958 C   0  0  0  0  0  0  0  0  0  0  0  0
   12.2409   34.3198    9.5783 C   0  0  0  0  0  0  0  0  0  0  0  0
   16.7508   46.5490    3.9971 C   0  0  0  0  0  0  0  0  0  0  0  0
   15.0610   44.9231    4.7536 N   0  0  0  0  0  0  0  0  0  0  0  0
   12.9580   44.7207    3.7222 N   0  0  0  0  0  0  0  0  0  0  0  0
   13.4650   43.2797    5.5846 N   0  0  0  0  0  0  0  0  0  0  0  0
   13.7121   41.7300    7.4097 N   0  0  0  0  0  0  0  0  0  0  0  0
   13.8932   37.7331    9.9386 N   0  0  0  0  0  0  0  0  0  0  0  0
   13.3756   33.9518   12.0637 N   0  0  0  0  0  0  0  0  0  0  0  0
   13.1178   36.5380    8.0952 O   0  0  0  0  0  0  0  0  0  0  0  0
  1  2  1  0
  2 24  2  0
  3  4  2  0
  5 23  2  0
  5 25  1  0
  6 26  2  0
  7  8  2  0
  9 10  2  0
 11 10  1  6
 11 12  1  0
 12 13  1  0
 13 14  1  0
 14 27  1  0
 15 27  1  0
 15 11  1  0
 16 17  1  0
 18 28  2  0
 19 20  2  0
 21 17  2  0
 22  4  1  0
 25  6  1  0
 27 16  1  0
  2  3  1  0
  4 23  1  0
  5 24  1  0
  6  7  1  0
  8  9  1  0
 10 26  1  0
 16 29  2  0
 17 18  1  0
 19 28  1  0
 20 21  1  0
M  END
>  <rmsd>  (1) 
0.245006144

$$$$
