MolPort-006-735-402 ChemDiv-D411-0676 MCULE-3689023940 PubChem-46740345
     RDKit          3D

 34 37  0  0  0  0  0  0  0  0999 V2000
   12.0519   35.2610    4.1693 C   0  0  0  0  0  0  0  0  0  0  0  0
   12.0869   35.7421    5.6072 C   0  0  0  0  0  0  0  0  0  0  0  0
   13.3799   37.6934    5.7697 C   0  0  0  0  0  0  0  0  0  0  0  0
   13.3578   39.2103    5.9516 C   0  0  0  0  0  0  0  0  0  0  0  0
   11.2590   39.0623    7.0281 C   0  0  0  0  0  0  0  0  0  0  0  0
   11.2677   37.5442    6.8535 C   0  0  0  0  0  0  0  0  0  0  0  0
   12.6079   41.0157    7.3320 C   0  0  2  0  0  0  0  0  0  0  0  0
   13.9857   41.6261    7.3842 C   0  0  0  0  0  0  0  0  0  0  0  0
   14.3704   42.6818    6.5668 C   0  0  0  0  0  0  0  0  0  0  0  0
   13.8600   44.3912    4.7340 C   0  0  0  0  0  0  0  0  0  0  0  0
   12.8537   44.9134    3.8041 C   0  0  0  0  0  0  0  0  0  0  0  0
   13.0421   45.9533    2.9181 C   0  0  0  0  0  0  0  0  0  0  0  0
   11.8297   46.0835    2.2634 C   0  0  0  0  0  0  0  0  0  0  0  0
   10.9886   45.1189    2.7920 C   0  0  0  0  0  0  0  0  0  0  0  0
   16.1660   41.9366    8.1137 C   0  0  0  0  0  0  0  0  0  0  0  0
   17.3957   41.7595    8.9325 C   0  0  0  0  0  0  0  0  0  0  0  0
   17.3197   42.6264   10.1738 C   0  0  0  0  0  0  0  0  0  0  0  0
   14.9948   41.2055    8.2650 C   0  0  0  0  0  0  0  0  0  0  0  0
   11.7766   41.4821    8.5050 C   0  0  0  0  0  0  0  0  0  0  0  0
   11.9407   40.9637    9.8113 C   0  0  0  0  0  0  0  0  0  0  0  0
   13.1987   39.3355   11.2492 C   0  0  0  0  0  0  0  0  0  0  0  0
   11.1307   41.4713   10.8610 C   0  0  0  0  0  0  0  0  0  0  0  0
   10.4815   41.4554   13.2552 C   0  0  0  0  0  0  0  0  0  0  0  0
   10.1854   42.4711   10.5809 C   0  0  0  0  0  0  0  0  0  0  0  0
   10.0336   42.9697    9.2900 C   0  0  0  0  0  0  0  0  0  0  0  0
   10.8270   42.4768    8.2587 C   0  0  0  0  0  0  0  0  0  0  0  0
   12.0104   37.1924    5.6440 N   0  0  0  0  0  0  0  0  0  0  0  0
   12.6347   39.5497    7.1831 N   0  0  0  0  0  0  0  0  0  0  0  0
   13.5158   43.3009    5.5964 N   0  0  0  0  0  0  0  0  0  0  0  0
   15.0109   44.9037    4.7639 O   0  0  0  0  0  0  0  0  0  0  0  0
   11.6369   44.4415    3.7084 O   0  0  0  0  0  0  0  0  0  0  0  0
   12.9015   39.9559   10.0068 O   0  0  0  0  0  0  0  0  0  0  0  0
   11.2652   40.9843   12.1665 O   0  0  0  0  0  0  0  0  0  0  0  0
   15.9604   43.1076    6.9239 S   0  0  0  0  0  0  0  0  0  0  0  0
  1  2  1  0
  2 27  1  0
  3 27  1  0
  3  4  1  0
  4 28  1  0
  5 28  1  0
  5  6  1  0
  6 27  1  0
  7 28  1  1
  7  8  1  0
  7 19  1  0
  9 29  1  0
  9 34  1  0
 10 11  1  0
 11 31  1  0
 12 13  1  0
 14 31  1  0
 15 34  1  0
 16 15  1  0
 16 17  1  0
 18  8  1  0
 20 32  1  0
 20 22  2  0
 21 32  1  0
 22 33  1  0
 23 33  1  0
 24 25  2  0
 26 19  2  0
 29 10  1  0
  8  9  2  0
 10 30  2  0
 11 12  2  0
 13 14  2  0
 15 18  2  0
 19 20  1  0
 22 24  1  0
 25 26  1  0
M  END
>  <rmsd>  (1) 
0.244732052

$$$$
