MolPort-003-077-886 4328235 CSSS03437148117 MCULE-2822599927 PubChem-7190982 ZINC000004328235 ZINC04328235
     RDKit          3D

 28 30  0  0  0  0  0  0  0  0999 V2000
    9.4471   44.0056    2.4364 C   0  0  0  0  0  0  0  0  0  0  0  0
   10.7886   44.6349    2.5465 C   0  0  0  0  0  0  0  0  0  0  0  0
   11.1576   45.6529    1.6632 C   0  0  0  0  0  0  0  0  0  0  0  0
   12.4194   46.2445    1.7671 C   0  0  0  0  0  0  0  0  0  0  0  0
   13.3123   45.8179    2.7546 C   0  0  0  0  0  0  0  0  0  0  0  0
   12.9501   44.7964    3.6456 C   0  0  0  0  0  0  0  0  0  0  0  0
   11.6815   44.2083    3.5340 C   0  0  0  0  0  0  0  0  0  0  0  0
   13.8903   44.3458    4.6869 C   0  0  0  0  0  0  0  0  0  0  0  0
   14.2958   42.7529    6.6500 C   0  0  0  0  0  0  0  0  0  0  0  0
   15.8850   42.0844    8.3124 C   0  0  0  0  0  0  0  0  0  0  0  0
   18.0888   40.6137    8.3388 C   0  0  0  0  0  0  0  0  0  0  0  0
   17.3042   39.3500    8.2359 C   0  0  0  0  0  0  0  0  0  0  0  0
   16.1083   37.4497    9.3794 C   0  0  0  0  0  0  0  0  0  0  0  0
   15.3537   37.3172   10.6929 C   0  0  0  0  0  0  0  0  0  0  0  0
   14.3442   38.4090   10.8364 C   0  0  0  0  0  0  0  0  0  0  0  0
   13.2340   38.4683    9.9837 C   0  0  0  0  0  0  0  0  0  0  0  0
   12.3005   39.5003   10.1195 C   0  0  0  0  0  0  0  0  0  0  0  0
   12.4738   40.4739   11.1078 C   0  0  0  0  0  0  0  0  0  0  0  0
   13.5790   40.4144   11.9622 C   0  0  0  0  0  0  0  0  0  0  0  0
   14.5124   39.3820   11.8276 C   0  0  0  0  0  0  0  0  0  0  0  0
   15.0277   44.8826    4.7765 O   0  0  0  0  0  0  0  0  0  0  0  0
   16.9332   38.9405    7.1038 O   0  0  0  0  0  0  0  0  0  0  0  0
   13.5033   43.2999    5.5895 N   0  0  0  0  0  0  0  0  0  0  0  0
   13.8441   41.7633    7.4501 N   0  0  0  0  0  0  0  0  0  0  0  0
   14.7272   41.3925    8.3752 N   0  0  0  0  0  0  0  0  0  0  0  0
   16.9542   38.6317    9.4181 N   0  0  0  0  0  0  0  0  0  0  0  0
   17.2580   41.8184    9.4288 S   0  0  0  0  0  0  0  0  0  0  0  0
   15.8620   43.2239    7.0746 S   0  0  0  0  0  0  0  0  0  0  0  0
  1  2  1  0
  3  4  2  0
  5  6  2  0
  6  8  1  0
  7  2  2  0
  8 23  1  0
  9 28  1  0
 10 27  1  0
 10 28  1  0
 11 27  1  0
 11 12  1  0
 12 26  1  0
 13 26  1  0
 13 14  1  0
 14 15  1  0
 16 17  2  0
 18 19  2  0
 20 15  2  0
 23  9  1  0
 24 25  1  0
  2  3  1  0
  4  5  1  0
  6  7  1  0
  8 21  2  0
  9 24  2  0
 10 25  2  0
 12 22  2  0
 15 16  1  0
 17 18  1  0
 19 20  1  0
M  END
>  <rmsd>  (1) 
0.247007027

$$$$
