MolPort-002-981-680 6636089 CSSS00121599785 MCULE-5633763296 PubChem-4540015 ZINC000006636089 ZINC06636089
     RDKit          3D

 19 20  0  0  0  0  0  0  0  0999 V2000
   13.1851   38.6381   11.0279 C   0  0  0  0  0  0  0  0  0  0  0  0
   13.8278   39.9313   11.4933 C   0  0  0  0  0  0  0  0  0  0  0  0
   13.8148   40.9610   10.3779 C   0  0  0  0  0  0  0  0  0  0  0  0
   14.8771   40.6340    9.3415 C   0  0  0  0  0  0  0  0  0  0  0  0
   14.2649   42.7732    6.6306 C   0  0  0  0  0  0  0  0  0  0  0  0
   13.9069   44.3491    4.6702 C   0  0  0  0  0  0  0  0  0  0  0  0
   13.0063   44.8116    3.5994 C   0  0  0  0  0  0  0  0  0  0  0  0
   11.7368   44.2359    3.4435 C   0  0  0  0  0  0  0  0  0  0  0  0
   10.8816   44.6738    2.4281 C   0  0  0  0  0  0  0  0  0  0  0  0
    9.5387   44.0576    2.2712 C   0  0  0  0  0  0  0  0  0  0  0  0
   11.2897   45.6907    1.5608 C   0  0  0  0  0  0  0  0  0  0  0  0
   12.5528   46.2700    1.7087 C   0  0  0  0  0  0  0  0  0  0  0  0
   13.4080   45.8321    2.7242 C   0  0  0  0  0  0  0  0  0  0  0  0
   14.8483   41.6163    8.2715 N   0  0  0  0  0  0  0  0  0  0  0  0
   15.8492   42.4316    7.9876 N   0  0  0  0  0  0  0  0  0  0  0  0
   15.5098   43.1816    6.9514 N   0  0  0  0  0  0  0  0  0  0  0  0
   13.4831   43.3054    5.5571 N   0  0  0  0  0  0  0  0  0  0  0  0
   13.8330   41.7918    7.4429 N   0  0  0  0  0  0  0  0  0  0  0  0
   15.0465   44.8738    4.8016 O   0  0  0  0  0  0  0  0  0  0  0  0
  1  2  1  0
  2  3  1  0
  3  4  1  0
  4 14  1  0
  5 16  1  0
  5 17  1  0
  6  7  1  0
  8  9  2  0
 10  9  1  0
 11 12  2  0
 13  7  2  0
 14 15  1  0
 14 18  1  0
 17  6  1  0
  5 18  2  0
  6 19  2  0
  7  8  1  0
  9 11  1  0
 12 13  1  0
 15 16  2  0
M  END
>  <rmsd>  (1) 
0.163747892

$$$$
