MolPort-039-054-753 252496875 MCULE-1315327226 PubChem-119056290 ZINC000252496875
     RDKit          3D

 20 21  0  0  0  0  0  0  0  0999 V2000
   12.8054   39.2731   11.7701 C   0  0  0  0  0  0  0  0  0  0  0  0
   13.9512   38.9666   10.8285 C   0  0  0  0  0  0  0  0  0  0  0  0
   15.0339   40.7352    9.5001 C   0  0  0  0  0  0  0  0  0  0  0  0
   14.9644   41.6829    8.3733 C   0  0  0  0  0  0  0  0  0  0  0  0
   13.8756   41.8123    7.5261 C   0  0  0  0  0  0  0  0  0  0  0  0
   14.2903   42.8071    6.6573 C   0  0  0  0  0  0  0  0  0  0  0  0
   13.9038   44.3353    4.6654 C   0  0  0  0  0  0  0  0  0  0  0  0
   12.9936   44.7600    3.5958 C   0  0  0  0  0  0  0  0  0  0  0  0
   11.7220   44.2425    3.3695 C   0  0  0  0  0  0  0  0  0  0  0  0
   11.0760   44.8367    2.2764 C   0  0  0  0  0  0  0  0  0  0  0  0
   11.8506   45.8104    1.6631 C   0  0  0  0  0  0  0  0  0  0  0  0
   17.2325   42.7395    8.6253 C   0  0  0  0  0  0  0  0  0  0  0  0
   13.9462   39.8976    9.7566 O   0  0  0  0  0  0  0  0  0  0  0  0
   16.0636   40.6802   10.2263 O   0  0  0  0  0  0  0  0  0  0  0  0
   15.0362   44.8784    4.7732 O   0  0  0  0  0  0  0  0  0  0  0  0
   13.4969   43.3074    5.5767 N   0  0  0  0  0  0  0  0  0  0  0  0
   15.5289   43.2430    6.9558 N   0  0  0  0  0  0  0  0  0  0  0  0
   15.9315   42.5507    8.0047 N   0  0  0  0  0  0  0  0  0  0  0  0
   11.4725   46.5408    0.5868 F   0  0  0  0  0  0  0  0  0  0  0  0
   13.3250   45.9492    2.4521 S   0  0  0  0  0  0  0  0  0  0  0  0
  1  2  1  0
  2 13  1  0
  3 13  1  0
  3  4  1  0
  5  6  1  0
  6 16  1  0
  7  8  1  0
  8 20  1  0
  9 10  1  0
 11 19  1  0
 11 20  1  0
 12 18  1  0
 16  7  1  0
 18 17  1  0
 18  4  1  0
  3 14  2  0
  4  5  2  0
  6 17  2  0
  7 15  2  0
  8  9  2  0
 10 11  2  0
M  END
>  <rmsd>  (1) 
0.191900194

$$$$
