MolPort-002-291-296 2877491 CSSS00160334066 MCULE-4069933843 PubChem-2229791 ZINC000002877491 ZINC02877491
     RDKit          3D

 21 22  0  0  0  0  0  0  0  0999 V2000
   12.9432   44.7646    3.6211 C   0  0  0  0  0  0  0  0  0  0  0  0
   13.8926   44.3344    4.6801 C   0  0  0  0  0  0  0  0  0  0  0  0
   14.3214   42.8015    6.6567 C   0  0  0  0  0  0  0  0  0  0  0  0
   16.1162   42.5963    7.9927 C   0  0  0  0  0  0  0  0  0  0  0  0
   15.2882   41.6316    8.5535 C   0  0  0  0  0  0  0  0  0  0  0  0
   15.6185   40.8088    9.7540 C   0  0  0  0  0  0  0  0  0  0  0  0
   15.0479   41.4168   10.9997 C   0  0  0  0  0  0  0  0  0  0  0  0
   14.0022   40.7920   11.7204 C   0  0  0  0  0  0  0  0  0  0  0  0
   13.5055   41.4169   12.8756 C   0  0  0  0  0  0  0  0  0  0  0  0
   14.0377   42.6292   13.3185 C   0  0  0  0  0  0  0  0  0  0  0  0
   15.0773   43.2332   12.6120 C   0  0  0  0  0  0  0  0  0  0  0  0
   15.5805   42.6290   11.4594 C   0  0  0  0  0  0  0  0  0  0  0  0
   13.4109   39.4744   11.2806 C   0  0  0  0  0  0  0  0  0  0  0  0
   15.0243   44.8815    4.7568 O   0  0  0  0  0  0  0  0  0  0  0  0
   13.5046   43.3053    5.5954 N   0  0  0  0  0  0  0  0  0  0  0  0
   15.5697   43.2435    6.9289 N   0  0  0  0  0  0  0  0  0  0  0  0
   15.7487   44.7504   13.1683 Cl  0  0  0  0  0  0  0  0  0  0  0  0
   12.4663   39.0240   12.1882 F   0  0  0  0  0  0  0  0  0  0  0  0
   14.4095   38.5223   11.1808 F   0  0  0  0  0  0  0  0  0  0  0  0
   12.7999   39.6244   10.0499 F   0  0  0  0  0  0  0  0  0  0  0  0
   13.8300   41.5940    7.7153 S   0  0  0  0  0  0  0  0  0  0  0  0
  1  2  1  0
  2 15  1  0
  3 21  1  0
  4 16  1  0
  5 21  1  0
  6  5  1  0
  6  7  1  0
  8  9  2  0
 10 11  2  0
 11 17  1  0
 12  7  2  0
 13  8  1  0
 13 18  1  0
 13 19  1  0
 13 20  1  0
 15  3  1  0
  2 14  2  0
  3 16  2  0
  4  5  2  0
  7  8  1  0
  9 10  1  0
 11 12  1  0
M  END
>  <rmsd>  (1) 
0.233869284

$$$$
