MolPort-001-630-073 2865909 CHEMBL1306485 CSSS00132429918 MCULE-4256763631 PubChem-2219062 ZINC000002865909 ZINC02865909
     RDKit          3D

 22 23  0  0  0  0  0  0  0  0999 V2000
   13.1704   38.6475   11.0385 C   0  0  0  0  0  0  0  0  0  0  0  0
   13.8304   39.9341   11.4976 C   0  0  0  0  0  0  0  0  0  0  0  0
   13.8212   40.9624   10.3809 C   0  0  0  0  0  0  0  0  0  0  0  0
   14.8726   40.6222    9.3376 C   0  0  0  0  0  0  0  0  0  0  0  0
   14.2659   42.7649    6.6282 C   0  0  0  0  0  0  0  0  0  0  0  0
   13.9143   44.3425    4.6733 C   0  0  0  0  0  0  0  0  0  0  0  0
   12.9933   44.8251    3.6113 C   0  0  0  0  0  0  0  0  0  0  0  0
   11.1634   46.4723    3.3760 C   0  0  0  0  0  0  0  0  0  0  0  0
   10.3682   47.4526    3.9766 C   0  0  0  0  0  0  0  0  0  0  0  0
    9.3814   48.1106    3.2380 C   0  0  0  0  0  0  0  0  0  0  0  0
    9.1798   47.7945    1.8910 C   0  0  0  0  0  0  0  0  0  0  0  0
    9.9754   46.8097    1.2797 C   0  0  0  0  0  0  0  0  0  0  0  0
    9.7929   46.4432   -0.1530 C   0  0  0  0  0  0  0  0  0  0  0  0
   10.9614   46.1545    2.0236 C   0  0  0  0  0  0  0  0  0  0  0  0
   14.8475   41.6035    8.2666 N   0  0  0  0  0  0  0  0  0  0  0  0
   15.8555   42.4071    7.9748 N   0  0  0  0  0  0  0  0  0  0  0  0
   15.5176   43.1597    6.9400 N   0  0  0  0  0  0  0  0  0  0  0  0
   13.4831   43.3046    5.5591 N   0  0  0  0  0  0  0  0  0  0  0  0
   13.8286   41.7894    7.4447 N   0  0  0  0  0  0  0  0  0  0  0  0
   15.0480   44.8765    4.8000 O   0  0  0  0  0  0  0  0  0  0  0  0
   12.1416   45.8323    4.1412 O   0  0  0  0  0  0  0  0  0  0  0  0
    7.9270   48.6485    1.0032 Cl  0  0  0  0  0  0  0  0  0  0  0  0
  1  2  1  0
  2  3  1  0
  3  4  1  0
  4 15  1  0
  5 17  1  0
  5 18  1  0
  7  6  1  0
  7 21  1  0
  8 21  1  0
  9 10  2  0
 11 22  1  0
 11 12  2  0
 13 12  1  0
 14  8  2  0
 15 16  1  0
 15 19  1  0
 18  6  1  0
  5 19  2  0
  6 20  2  0
  8  9  1  0
 10 11  1  0
 12 14  1  0
 16 17  2  0
M  END
>  <rmsd>  (1) 
0.159457415

$$$$
