MolPort-035-706-971 CSSS03437789226 MCULE-7193240938 PubChem-91938296
     RDKit          3D

 29 31  0  0  0  0  0  0  0  0999 V2000
   16.3763   35.9237    7.9329 C   0  0  0  0  0  0  0  0  0  0  0  0
   14.9159   36.2896    7.7412 C   0  0  0  0  0  0  0  0  0  0  0  0
   14.6117   37.8471    9.6419 C   0  0  0  0  0  0  0  0  0  0  0  0
   14.4188   39.2605   10.1203 C   0  0  1  0  0  0  0  0  0  0  0  0
   13.4991   39.2772   11.3330 C   0  0  0  0  0  0  0  0  0  0  0  0
   14.3589   41.0719    8.3750 C   0  0  0  0  0  0  0  0  0  0  0  0
   13.6601   41.6732    7.3241 C   0  0  0  0  0  0  0  0  0  0  0  0
   14.2295   42.7306    6.6057 C   0  0  0  0  0  0  0  0  0  0  0  0
   13.8893   44.3937    4.6785 C   0  0  0  0  0  0  0  0  0  0  0  0
   12.9884   44.9063    3.6176 C   0  0  0  0  0  0  0  0  0  0  0  0
   13.5710   45.6005    2.5447 C   0  0  0  0  0  0  0  0  0  0  0  0
   12.7905   46.1039    1.5024 C   0  0  0  0  0  0  0  0  0  0  0  0
   13.4111   48.5795    0.9663 C   0  0  0  0  0  0  0  0  0  0  0  0
   11.4089   45.9162    1.5154 C   0  0  0  0  0  0  0  0  0  0  0  0
   10.8091   45.2387    2.5769 C   0  0  0  0  0  0  0  0  0  0  0  0
   11.5802   44.7335    3.6295 C   0  0  0  0  0  0  0  0  0  0  0  0
   15.5107   43.1858    6.9539 C   0  0  0  0  0  0  0  0  0  0  0  0
   16.2112   42.5893    8.0059 C   0  0  0  0  0  0  0  0  0  0  0  0
   15.6347   41.5327    8.7145 C   0  0  0  0  0  0  0  0  0  0  0  0
   15.7635   39.8370   10.5167 C   0  0  0  0  0  0  0  0  0  0  0  0
   14.6571   37.5854    8.2682 O   0  0  0  0  0  0  0  0  0  0  0  0
   14.7816   36.9122   10.4739 O   0  0  0  0  0  0  0  0  0  0  0  0
   13.7740   40.0158    9.0820 O   0  0  0  0  0  0  0  0  0  0  0  0
   15.0446   44.8869    4.7938 O   0  0  0  0  0  0  0  0  0  0  0  0
   16.4039   39.3397   11.4818 O   0  0  0  0  0  0  0  0  0  0  0  0
   13.4777   43.3195    5.5361 N   0  0  0  0  0  0  0  0  0  0  0  0
   16.3347   40.9281    9.7950 N   0  0  0  0  0  0  0  0  0  0  0  0
   13.5640   46.9688    0.1426 S   0  0  0  0  0  0  0  0  0  0  0  0
   10.7065   43.9584    4.9441 Cl  0  0  0  0  0  0  0  0  0  0  0  0
  1  2  1  0
  2 21  1  0
  3 21  1  0
  4  3  1  0
  4  5  1  1
  4 23  1  0
  4 20  1  0
  6 23  1  0
  7  8  2  0
  8 26  1  0
  9 10  1  0
 11 12  2  0
 12 28  1  0
 13 28  1  0
 14 15  2  0
 16 29  1  0
 16 10  2  0
 17 18  2  0
 19 27  1  0
 19  6  2  0
 26  9  1  0
 27 20  1  0
  3 22  2  0
  6  7  1  0
  8 17  1  0
  9 24  2  0
 10 11  1  0
 12 14  1  0
 15 16  1  0
 18 19  1  0
 20 25  2  0
M  END
>  <rmsd>  (1) 
0.23027043

$$$$
