MolPort-003-025-636 2716621 CSSS03437093488 ChemDiv-G837-0052 LN01396098 MCULE-9982983503 PubChem-2152296 ZINC000002716621
     RDKit          3D

 27 29  0  0  0  0  0  0  0  0999 V2000
   13.0260   39.4855   11.8210 C   0  0  0  0  0  0  0  0  0  0  0  0
   13.2983   38.8016   10.4939 C   0  0  0  0  0  0  0  0  0  0  0  0
   14.7434   40.4931    9.3848 C   0  0  0  0  0  0  0  0  0  0  0  0
   14.8883   41.4727    8.3976 C   0  0  0  0  0  0  0  0  0  0  0  0
   14.3576   42.7820    6.6641 C   0  0  0  0  0  0  0  0  0  0  0  0
   13.8748   44.3391    4.6876 C   0  0  0  0  0  0  0  0  0  0  0  0
   12.8983   44.7597    3.6673 C   0  0  0  0  0  0  0  0  0  0  0  0
   13.2206   45.7701    2.7493 C   0  0  0  0  0  0  0  0  0  0  0  0
   12.2937   46.1682    1.7819 C   0  0  0  0  0  0  0  0  0  0  0  0
   11.0352   45.5606    1.7243 C   0  0  0  0  0  0  0  0  0  0  0  0
   10.7088   44.5512    2.6352 C   0  0  0  0  0  0  0  0  0  0  0  0
   11.6356   44.1531    3.6026 C   0  0  0  0  0  0  0  0  0  0  0  0
   10.8848   44.5299   -1.3194 C   0  0  0  0  0  0  0  0  0  0  0  0
    8.6734   45.2055   -1.6204 C   0  0  0  0  0  0  0  0  0  0  0  0
   16.0690   42.1930    8.2904 C   0  0  0  0  0  0  0  0  0  0  0  0
   17.1494   41.9816    9.1416 C   0  0  0  0  0  0  0  0  0  0  0  0
   17.0193   41.0006   10.1359 C   0  0  0  0  0  0  0  0  0  0  0  0
   15.8276   40.2613   10.2575 C   0  0  0  0  0  0  0  0  0  0  0  0
   13.5478   39.7699    9.4805 O   0  0  0  0  0  0  0  0  0  0  0  0
   15.0066   44.8926    4.7347 O   0  0  0  0  0  0  0  0  0  0  0  0
    8.5682   46.3798    1.1827 O   0  0  0  0  0  0  0  0  0  0  0  0
   10.3686   47.2727   -0.2120 O   0  0  0  0  0  0  0  0  0  0  0  0
   13.9302   41.7984    7.4916 N   0  0  0  0  0  0  0  0  0  0  0  0
   13.5285   43.3036    5.6184 N   0  0  0  0  0  0  0  0  0  0  0  0
    9.6285   44.7518   -0.6240 N   0  0  0  0  0  0  0  0  0  0  0  0
    9.8688   46.0477    0.5056 S   0  0  0  0  0  0  0  0  0  0  0  0
   15.9391   43.2849    7.0244 S   0  0  0  0  0  0  0  0  0  0  0  0
  1  2  1  0
  2 19  1  0
  3 19  1  0
  4 23  1  0
  5 24  1  0
  5 27  1  0
  6  7  1  0
  8  9  2  0
 10 11  2  0
 12  7  2  0
 13 25  1  0
 14 25  1  0
 15 27  1  0
 15  4  2  0
 16 17  2  0
 18  3  2  0
 24  6  1  0
 26 10  1  0
 26 25  1  0
  3  4  1  0
  5 23  2  0
  6 20  2  0
  7  8  1  0
  9 10  1  0
 11 12  1  0
 15 16  1  0
 17 18  1  0
 26 21  2  0
 26 22  2  0
M  END
>  <rmsd>  (1) 
0.248390168

$$$$
