Molport-047-652-275 MCULE-3526152141 PubChem-165888020
     RDKit          3D

 25 27  0  0  0  0  0  0  0  0999 V2000
   13.4123   39.3963   11.2119 C   0  0  0  0  0  0  0  0  0  0  0  0
   14.3364   39.2900   10.0099 C   0  0  1  0  0  0  0  0  0  0  0  0
   14.5552   41.1230    8.3165 C   0  0  0  0  0  0  0  0  0  0  0  0
   13.7880   41.6734    7.3511 C   0  0  0  0  0  0  0  0  0  0  0  0
   14.2826   42.7161    6.5799 C   0  0  0  0  0  0  0  0  0  0  0  0
   16.3156   42.5701    7.8290 C   0  0  0  0  0  0  0  0  0  0  0  0
   13.8838   44.3844    4.6967 C   0  0  0  0  0  0  0  0  0  0  0  0
   13.2825   45.9607    2.8877 C   0  0  0  0  0  0  0  0  0  0  0  0
   13.1281   47.2514    3.6185 C   0  0  0  0  0  0  0  0  0  0  0  0
   14.2610   47.9607    4.0319 C   0  0  0  0  0  0  0  0  0  0  0  0
   14.1176   49.1639    4.7297 C   0  0  0  0  0  0  0  0  0  0  0  0
   12.8414   49.6579    5.0169 C   0  0  0  0  0  0  0  0  0  0  0  0
   11.7082   48.9485    4.6070 C   0  0  0  0  0  0  0  0  0  0  0  0
   11.8513   47.7451    3.9093 C   0  0  0  0  0  0  0  0  0  0  0  0
   12.6734   40.1249    8.2837 C   0  0  0  0  0  0  0  0  0  0  0  0
   14.4784   37.8713    9.5596 C   0  0  0  0  0  0  0  0  0  0  0  0
   13.8749   40.1447    8.9202 N   0  0  0  0  0  0  0  0  0  0  0  0
   15.5550   43.1460    6.8424 N   0  0  0  0  0  0  0  0  0  0  0  0
   15.8158   41.5432    8.5809 N   0  0  0  0  0  0  0  0  0  0  0  0
   13.4798   43.3104    5.5525 N   0  0  0  0  0  0  0  0  0  0  0  0
   12.5875   41.0662    7.3009 N   0  0  0  0  0  0  0  0  0  0  0  0
   12.9820   44.8641    3.7441 O   0  0  0  0  0  0  0  0  0  0  0  0
   15.0365   44.8879    4.7947 O   0  0  0  0  0  0  0  0  0  0  0  0
   15.7351   37.2827    9.5354 O   0  0  0  0  0  0  0  0  0  0  0  0
   13.4709   37.2083    9.1958 O   0  0  0  0  0  0  0  0  0  0  0  0
  2  1  1  1
  2 17  1  0
  2 16  1  0
  3 19  2  0
  4  5  2  0
  4 21  1  0
  5 20  1  0
  6 18  2  0
  7 22  1  0
  8 22  1  0
  8  9  1  0
 10 11  2  0
 12 13  2  0
 14  9  2  0
 15 17  1  0
 16 24  1  0
 17  3  1  0
 20  7  1  0
  3  4  1  0
  5 18  1  0
  6 19  1  0
  7 23  2  0
  9 10  1  0
 11 12  1  0
 13 14  1  0
 15 21  2  0
 16 25  2  0
M  END
>  <rmsd>  (1) 
0.248661831

$$$$
