MolPort-045-963-317 952873328 CSSS00159698825 MCULE-7326464191 PubChem-131938632 ZINC000952873328
     RDKit          3D

 28 30  0  0  0  0  0  0  0  0999 V2000
   12.0559   45.9950    2.1478 C   0  0  0  0  0  0  0  0  0  0  0  0
   13.1883   44.5311    3.3478 C   0  0  0  0  0  0  0  0  0  0  0  0
   13.9742   44.2575    4.5815 C   0  0  0  0  0  0  0  0  0  0  0  0
   14.2172   42.7762    6.6373 C   0  0  0  0  0  0  0  0  0  0  0  0
   13.5613   42.6106    7.8612 C   0  0  0  0  0  0  0  0  0  0  0  0
   14.2335   42.0751    8.9606 C   0  0  0  0  0  0  0  0  0  0  0  0
   15.5710   41.6770    8.8446 C   0  0  0  0  0  0  0  0  0  0  0  0
   15.7190   40.6770   11.1857 C   0  0  0  0  0  0  0  0  0  0  0  0
   14.4752   39.8863   11.2082 C   0  0  0  0  0  0  0  0  0  0  0  0
   13.9641   39.1094   10.1781 C   0  0  0  0  0  0  0  0  0  0  0  0
   12.0024   37.6633   10.0136 C   0  0  0  0  0  0  0  0  0  0  0  0
   10.9063   37.1879   10.7474 C   0  0  0  0  0  0  0  0  0  0  0  0
    9.9391   36.2488   10.1227 C   0  0  0  0  0  0  0  0  0  0  0  0
   10.7291   37.6050   12.0810 C   0  0  0  0  0  0  0  0  0  0  0  0
   11.6406   38.4905   12.6796 C   0  0  0  0  0  0  0  0  0  0  0  0
   12.7085   38.9320   11.9019 C   0  0  0  0  0  0  0  0  0  0  0  0
   16.2258   41.8241    7.6200 C   0  0  0  0  0  0  0  0  0  0  0  0
   15.5582   42.3553    6.5035 C   0  0  0  0  0  0  0  0  0  0  0  0
   17.5442   42.0246    5.0588 C   0  0  0  0  0  0  0  0  0  0  0  0
   12.7778   45.8642    3.3331 O   0  0  0  0  0  0  0  0  0  0  0  0
   15.0499   44.8806    4.7887 O   0  0  0  0  0  0  0  0  0  0  0  0
   16.3137   40.9087   12.2706 O   0  0  0  0  0  0  0  0  0  0  0  0
   16.1997   42.4381    5.2623 O   0  0  0  0  0  0  0  0  0  0  0  0
   13.4735   43.3191    5.5387 N   0  0  0  0  0  0  0  0  0  0  0  0
   16.2970   41.1565    9.9646 N   0  0  0  0  0  0  0  0  0  0  0  0
   12.8522   38.5205   10.6308 N   0  0  0  0  0  0  0  0  0  0  0  0
   13.6879   39.7678   12.3071 N   0  0  0  0  0  0  0  0  0  0  0  0
   14.5077   38.9003    8.9528 F   0  0  0  0  0  0  0  0  0  0  0  0
  1 20  1  0
  2 20  1  0
  2  3  1  0
  3 24  1  0
  5  6  2  0
  7 25  1  0
  7 17  2  0
  8  9  1  0
  9 27  1  0
 10 28  1  0
 10 26  1  0
 12 14  1  0
 13 12  1  0
 15 16  1  0
 16 26  1  0
 18 23  1  0
 18  4  2  0
 19 23  1  0
 24  4  1  0
 25  8  1  0
 26 11  1  0
  3 21  2  0
  4  5  1  0
  6  7  1  0
  8 22  2  0
  9 10  2  0
 11 12  2  0
 14 15  2  0
 16 27  2  0
 17 18  1  0
M  END
>  <rmsd>  (1) 
0.246096298

$$$$
