MolPort-002-599-853 2448110 CSSS00121610367 LN00628686 MCULE-5995874023 PubChem-2043544 ZINC000002448110 ZINC02448110
     RDKit          3D

 24 26  0  0  0  0  0  0  0  0999 V2000
   12.7753   39.6721   11.7360 C   0  0  0  0  0  0  0  0  0  0  0  0
   13.7718   38.9512   10.8478 C   0  0  0  0  0  0  0  0  0  0  0  0
   13.9118   39.6688    9.5174 C   0  0  0  0  0  0  0  0  0  0  0  0
   14.7441   40.9299    9.6802 C   0  0  0  0  0  0  0  0  0  0  0  0
   14.3491   42.6984    6.5974 C   0  0  0  0  0  0  0  0  0  0  0  0
   13.9366   44.2684    4.6286 C   0  0  0  0  0  0  0  0  0  0  0  0
   13.0352   44.5997    3.4884 C   0  0  0  0  0  0  0  0  0  0  0  0
   12.1522   45.7912    3.8234 C   0  0  0  0  0  0  0  0  0  0  0  0
   11.0169   45.3669    4.7363 C   0  0  0  0  0  0  0  0  0  0  0  0
   11.5731   46.3586    2.5449 C   0  0  0  0  0  0  0  0  0  0  0  0
   15.7199   42.4939    6.5554 C   0  0  0  0  0  0  0  0  0  0  0  0
   16.7132   42.7628    5.6191 C   0  0  0  0  0  0  0  0  0  0  0  0
   18.0166   42.3407    5.9336 C   0  0  0  0  0  0  0  0  0  0  0  0
   19.0696   42.5871    5.0501 C   0  0  0  0  0  0  0  0  0  0  0  0
   20.3628   42.1617    5.3691 C   0  0  0  0  0  0  0  0  0  0  0  0
   20.6089   41.4876    6.5703 C   0  0  0  0  0  0  0  0  0  0  0  0
   19.5639   41.2321    7.4639 C   0  0  0  0  0  0  0  0  0  0  0  0
   18.2665   41.6518    7.1610 C   0  0  0  0  0  0  0  0  0  0  0  0
   15.9965   41.8218    7.7102 C   0  0  0  0  0  0  0  0  0  0  0  0
   14.8665   41.6151    8.4031 N   0  0  0  0  0  0  0  0  0  0  0  0
   13.8495   42.1412    7.7282 N   0  0  0  0  0  0  0  0  0  0  0  0
   13.5199   43.2990    5.5951 N   0  0  0  0  0  0  0  0  0  0  0  0
   17.2438   41.3944    8.0304 N   0  0  0  0  0  0  0  0  0  0  0  0
   15.0162   44.9011    4.7685 O   0  0  0  0  0  0  0  0  0  0  0  0
  1  2  1  0
  2  3  1  0
  3  4  1  0
  4 20  1  0
  5 22  1  0
  5 11  1  0
  7  6  1  0
  7  8  1  0
  8  9  1  0
  8 10  1  0
 12 13  2  0
 14 15  2  0
 16 17  2  0
 18 23  2  0
 18 13  1  0
 19 20  1  0
 19 11  2  0
 20 21  1  0
 22  6  1  0
  5 21  2  0
  6 24  2  0
 11 12  1  0
 13 14  1  0
 15 16  1  0
 17 18  1  0
 19 23  1  0
M  END
>  <rmsd>  (1) 
0.163536385

$$$$
