MolPort-002-994-723 13942052 CSSS00121599790 MCULE-3848106283 PubChem-3502326 ZINC000013942052 ZINC13942052
     RDKit          3D

 22 23  0  0  0  0  0  0  0  0999 V2000
   13.4319   39.6183   11.9567 C   0  0  0  0  0  0  0  0  0  0  0  0
   13.6135   38.8894   10.6386 C   0  0  0  0  0  0  0  0  0  0  0  0
   13.5535   39.8677    9.4794 C   0  0  0  0  0  0  0  0  0  0  0  0
   14.8486   40.6647    9.3884 C   0  0  0  0  0  0  0  0  0  0  0  0
   14.2533   42.7752    6.6346 C   0  0  0  0  0  0  0  0  0  0  0  0
   13.9195   44.3392    4.6657 C   0  0  0  0  0  0  0  0  0  0  0  0
   13.0090   44.8127    3.5907 C   0  0  0  0  0  0  0  0  0  0  0  0
   11.1544   46.4928    3.3773 C   0  0  0  0  0  0  0  0  0  0  0  0
   10.8557   46.2576    2.0075 C   0  0  0  0  0  0  0  0  0  0  0  0
   11.5727   45.2549    1.1706 C   0  0  0  0  0  0  0  0  0  0  0  0
    9.8394   46.9907    1.3853 C   0  0  0  0  0  0  0  0  0  0  0  0
    9.1164   47.9496    2.0954 C   0  0  0  0  0  0  0  0  0  0  0  0
    9.4048   48.1844    3.4388 C   0  0  0  0  0  0  0  0  0  0  0  0
   10.4163   47.4598    4.0713 C   0  0  0  0  0  0  0  0  0  0  0  0
   14.8201   41.6229    8.2885 N   0  0  0  0  0  0  0  0  0  0  0  0
   15.8262   42.4319    8.0033 N   0  0  0  0  0  0  0  0  0  0  0  0
   15.4990   43.1763    6.9591 N   0  0  0  0  0  0  0  0  0  0  0  0
   13.4811   43.3060    5.5534 N   0  0  0  0  0  0  0  0  0  0  0  0
   13.8097   41.8048    7.4529 N   0  0  0  0  0  0  0  0  0  0  0  0
   15.0506   44.8766    4.8012 O   0  0  0  0  0  0  0  0  0  0  0  0
   12.1495   45.8200    4.1048 O   0  0  0  0  0  0  0  0  0  0  0  0
    7.8487   48.8567    1.3001 Cl  0  0  0  0  0  0  0  0  0  0  0  0
  1  2  1  0
  2  3  1  0
  3  4  1  0
  4 15  1  0
  5 17  1  0
  5 18  1  0
  7  6  1  0
  7 21  1  0
  8 21  1  0
  9 11  2  0
 10  9  1  0
 12 22  1  0
 12 13  2  0
 14  8  2  0
 15 16  1  0
 15 19  1  0
 18  6  1  0
  5 19  2  0
  6 20  2  0
  8  9  1  0
 11 12  1  0
 13 14  1  0
 16 17  2  0
M  END
>  <rmsd>  (1) 
0.165149659

$$$$
