Molport-046-956-512 MCULE-7113646903
     RDKit          3D

 27 30  0  0  0  0  0  0  0  0999 V2000
   14.3855   37.8151   10.1662 N   0  0  0  0  0  0  0  0  0  0  0  0
   13.4497   43.2797    5.5714 N   0  0  0  0  0  0  0  0  0  0  0  0
   15.0699   44.9148    4.7711 N   0  0  0  0  0  0  0  0  0  0  0  0
   15.4921   43.1919    6.8948 N   0  0  0  0  0  0  0  0  0  0  0  0
   15.7267   41.6762    8.6792 N   0  0  0  0  0  0  0  0  0  0  0  0
   18.2343   36.6463    8.6112 N   0  0  0  0  0  0  0  0  0  0  0  0
   17.1368   37.2302    9.0581 N   0  0  0  0  0  0  0  0  0  0  0  0
   13.2243   38.0557   11.0243 C   0  0  0  0  0  0  0  0  0  0  0  0
   13.3314   39.4239   11.7025 C   0  0  0  0  0  0  0  0  0  0  0  0
   13.8265   40.5374   10.7670 C   0  0  0  0  0  0  0  0  0  0  0  0
   13.9226   40.0936    9.3068 C   0  0  2  0  0  0  0  0  0  0  0  0
   14.7823   38.8344    9.1882 C   0  0  0  0  0  0  0  0  0  0  0  0
   14.4757   41.1885    8.4563 C   0  0  0  0  0  0  0  0  0  0  0  0
   13.7016   41.7131    7.4216 C   0  0  0  0  0  0  0  0  0  0  0  0
   14.2368   42.7340    6.6367 C   0  0  0  0  0  0  0  0  0  0  0  0
   13.8449   44.3250    4.6749 C   0  0  0  0  0  0  0  0  0  0  0  0
   12.9524   44.7436    3.6843 C   0  0  0  0  0  0  0  0  0  0  0  0
   13.3292   45.7614    2.8064 C   0  0  0  0  0  0  0  0  0  0  0  0
   14.5889   46.3504    2.9244 C   0  0  0  0  0  0  0  0  0  0  0  0
   15.4558   45.9079    3.9254 C   0  0  0  0  0  0  0  0  0  0  0  0
   16.2344   42.6708    7.9062 C   0  0  0  0  0  0  0  0  0  0  0  0
   17.6025   43.1887    8.1664 C   0  0  0  0  0  0  0  0  0  0  0  0
   15.0256   36.5253   10.2011 C   0  0  0  0  0  0  0  0  0  0  0  0
   16.3413   36.2783    9.5732 C   0  0  0  0  0  0  0  0  0  0  0  0
   16.9471   35.0411    9.4646 C   0  0  0  0  0  0  0  0  0  0  0  0
   18.1508   35.3218    8.8417 C   0  0  0  0  0  0  0  0  0  0  0  0
   14.4571   35.5697   10.7973 O   0  0  0  0  0  0  0  0  0  0  0  0
  1 23  1  0
  2 16  1  0
  6  7  1  0
  8  1  1  0
  8  9  1  0
  9 10  1  0
 10 11  1  0
 11 12  1  0
 11 13  1  6
 12  1  1  0
 13  5  2  0
 14 15  2  0
 15  2  1  0
 16  3  2  0
 17 18  2  0
 19 20  2  0
 21  4  2  0
 22 21  1  0
 23 24  1  0
 24 25  1  0
 26  6  1  0
 13 14  1  0
 15  4  1  0
 16 17  1  0
 18 19  1  0
 20  3  1  0
 21  5  1  0
 23 27  2  0
 24  7  2  0
 25 26  2  0
M  END
>  <rmsd>  (1) 
0.248696506

$$$$
