MolPort-007-723-742 6818444 CHEMBL1311289 ChemDiv-E157-8442 MCULE-4528937544 PubChem-22518215 ZINC000006818444 ZINC06818444
     RDKit          3D

 24 25  0  0  0  0  0  0  0  0999 V2000
   13.5517   39.4296   11.2985 C   0  0  0  0  0  0  0  0  0  0  0  0
   14.2104   41.8357   11.6350 C   0  0  0  0  0  0  0  0  0  0  0  0
   14.9871   42.9536   11.2871 C   0  0  0  0  0  0  0  0  0  0  0  0
   14.8130   44.1753   11.9423 C   0  0  0  0  0  0  0  0  0  0  0  0
   13.8601   44.2937   12.9566 C   0  0  0  0  0  0  0  0  0  0  0  0
   13.0804   43.1914   13.3139 C   0  0  0  0  0  0  0  0  0  0  0  0
   13.2538   41.9705   12.6560 C   0  0  0  0  0  0  0  0  0  0  0  0
   15.1835   41.4371    8.3586 C   0  0  0  0  0  0  0  0  0  0  0  0
   14.2518   42.7074    6.5648 C   0  0  0  0  0  0  0  0  0  0  0  0
   13.9042   44.3745    4.6767 C   0  0  0  0  0  0  0  0  0  0  0  0
   12.9637   44.9190    3.6323 C   0  0  0  0  0  0  0  0  0  0  0  0
   12.3409   43.7782    2.8487 C   0  0  0  0  0  0  0  0  0  0  0  0
   13.6817   45.8321    2.6510 C   0  0  0  0  0  0  0  0  0  0  0  0
   11.8614   45.7088    4.3108 C   0  0  0  0  0  0  0  0  0  0  0  0
   14.3869   40.5741   10.9586 N   0  0  0  0  0  0  0  0  0  0  0  0
   16.0364   42.3637    7.8694 N   0  0  0  0  0  0  0  0  0  0  0  0
   15.5183   43.0714    6.8674 N   0  0  0  0  0  0  0  0  0  0  0  0
   13.4658   43.3091    5.5319 N   0  0  0  0  0  0  0  0  0  0  0  0
   13.6475   45.8215   13.7841 Cl  0  0  0  0  0  0  0  0  0  0  0  0
   15.5668   40.3746    9.6976 S   0  0  0  0  0  0  0  0  0  0  0  0
   13.7052   41.4586    7.5506 S   0  0  0  0  0  0  0  0  0  0  0  0
   15.5673   38.9528    9.2092 O   0  0  0  0  0  0  0  0  0  0  0  0
   16.9314   40.7008   10.2364 O   0  0  0  0  0  0  0  0  0  0  0  0
   15.0520   44.8780    4.8270 O   0  0  0  0  0  0  0  0  0  0  0  0
  1 15  1  0
  3  4  2  0
  5 19  1  0
  5  6  2  0
  7  2  2  0
  8 21  1  0
  9 18  1  0
  9 21  1  0
 11 10  1  0
 11 12  1  0
 11 13  1  0
 11 14  1  0
 15  2  1  0
 16 17  1  0
 18 10  1  0
 20 15  1  0
 20  8  1  0
  2  3  1  0
  4  5  1  0
  6  7  1  0
  8 16  2  0
  9 17  2  0
 10 24  2  0
 20 22  2  0
 20 23  2  0
M  END
>  <rmsd>  (1) 
0.213097334

$$$$
