MolPort-035-706-978 CSSS03437789233 MCULE-4120249812 PubChem-91938303
     RDKit          3D

 28 30  0  0  0  0  0  0  0  0999 V2000
   14.7729   36.3594    6.2220 C   0  0  0  0  0  0  0  0  0  0  0  0
   14.7875   36.3013    7.7349 C   0  0  0  0  0  0  0  0  0  0  0  0
   14.5740   37.8546    9.6335 C   0  0  0  0  0  0  0  0  0  0  0  0
   14.4011   39.2650   10.1284 C   0  0  1  0  0  0  0  0  0  0  0  0
   13.4978   39.2786   11.3535 C   0  0  0  0  0  0  0  0  0  0  0  0
   14.3471   41.0748    8.3820 C   0  0  0  0  0  0  0  0  0  0  0  0
   13.6459   41.6826    7.3363 C   0  0  0  0  0  0  0  0  0  0  0  0
   14.2272   42.7221    6.6015 C   0  0  0  0  0  0  0  0  0  0  0  0
   13.8999   44.3809    4.6694 C   0  0  0  0  0  0  0  0  0  0  0  0
   12.9880   44.8800    3.6250 C   0  0  0  0  0  0  0  0  0  0  0  0
   13.3864   45.9172    2.7698 C   0  0  0  0  0  0  0  0  0  0  0  0
   12.5200   46.3898    1.7806 C   0  0  0  0  0  0  0  0  0  0  0  0
   11.2484   45.8284    1.6384 C   0  0  0  0  0  0  0  0  0  0  0  0
   10.8353   44.7933    2.4828 C   0  0  0  0  0  0  0  0  0  0  0  0
    9.0601   43.1951    3.1244 C   0  0  0  0  0  0  0  0  0  0  0  0
   11.7102   44.3229    3.4757 C   0  0  0  0  0  0  0  0  0  0  0  0
   15.5230   43.1523    6.9274 C   0  0  0  0  0  0  0  0  0  0  0  0
   16.2256   42.5497    7.9746 C   0  0  0  0  0  0  0  0  0  0  0  0
   15.6368   41.5113    8.6999 C   0  0  0  0  0  0  0  0  0  0  0  0
   15.7564   39.8252   10.5119 C   0  0  0  0  0  0  0  0  0  0  0  0
   14.5999   37.6068    8.2589 O   0  0  0  0  0  0  0  0  0  0  0  0
   14.7508   36.9100   10.4534 O   0  0  0  0  0  0  0  0  0  0  0  0
   13.7502   40.0372    9.1066 O   0  0  0  0  0  0  0  0  0  0  0  0
   15.0466   44.8908    4.7938 O   0  0  0  0  0  0  0  0  0  0  0  0
    9.5578   44.2522    2.3154 O   0  0  0  0  0  0  0  0  0  0  0  0
   16.3980   39.3240   11.4742 O   0  0  0  0  0  0  0  0  0  0  0  0
   13.4749   43.3170    5.5354 N   0  0  0  0  0  0  0  0  0  0  0  0
   16.3384   40.9018    9.7770 N   0  0  0  0  0  0  0  0  0  0  0  0
  1  2  1  0
  2 21  1  0
  3 21  1  0
  4  3  1  0
  4  5  1  1
  4 23  1  0
  4 20  1  0
  6 23  1  0
  7  8  2  0
  8 27  1  0
  9 10  1  0
 11 12  2  0
 13 14  2  0
 14 25  1  0
 15 25  1  0
 16 10  2  0
 17 18  2  0
 19 28  1  0
 19  6  2  0
 27  9  1  0
 28 20  1  0
  3 22  2  0
  6  7  1  0
  8 17  1  0
  9 24  2  0
 10 11  1  0
 12 13  1  0
 14 16  1  0
 18 19  1  0
 20 26  2  0
M  END
>  <rmsd>  (1) 
0.231176063

$$$$
