Molport-020-279-173 CHEMBL3449781 MCULE-9629700168 PubChem-110255927
     RDKit          3D

 25 28  0  0  0  0  0  0  0  0999 V2000
   13.9550   37.7432    9.9690 N   0  0  0  0  0  0  0  0  0  0  0  0
   13.2874   35.4384   10.3401 N   0  0  0  0  0  0  0  0  0  0  0  0
   13.8299   34.7782    7.7471 N   0  0  0  0  0  0  0  0  0  0  0  0
   13.7028   41.7273    7.4050 N   0  0  0  0  0  0  0  0  0  0  0  0
   13.4600   43.2804    5.5803 N   0  0  0  0  0  0  0  0  0  0  0  0
   12.9639   44.7270    3.7194 N   0  0  0  0  0  0  0  0  0  0  0  0
   15.0640   44.9211    4.7589 N   0  0  0  0  0  0  0  0  0  0  0  0
   16.2278   42.6035    7.9613 N   0  0  0  0  0  0  0  0  0  0  0  0
   13.7575   36.4003    9.4973 C   0  0  0  0  0  0  0  0  0  0  0  0
   13.0854   34.1619    9.9197 C   0  0  0  0  0  0  0  0  0  0  0  0
   13.3629   33.8247    8.5947 C   0  0  0  0  0  0  0  0  0  0  0  0
   14.0322   36.0550    8.1665 C   0  0  0  0  0  0  0  0  0  0  0  0
   14.5474   38.7667    9.1087 C   0  0  0  0  0  0  0  0  0  0  0  0
   13.7540   40.0680    9.2290 C   0  0  2  0  0  0  0  0  0  0  0  0
   14.3918   41.1593    8.4299 C   0  0  0  0  0  0  0  0  0  0  0  0
   14.2385   42.7220    6.6482 C   0  0  0  0  0  0  0  0  0  0  0  0
   13.8424   44.3259    4.6762 C   0  0  0  0  0  0  0  0  0  0  0  0
   13.2844   45.7138    2.8420 C   0  0  0  0  0  0  0  0  0  0  0  0
   14.5309   46.3324    2.9141 C   0  0  0  0  0  0  0  0  0  0  0  0
   15.4211   45.9111    3.8998 C   0  0  0  0  0  0  0  0  0  0  0  0
   15.5345   43.1676    6.9380 C   0  0  0  0  0  0  0  0  0  0  0  0
   15.6870   41.6103    8.7134 C   0  0  0  0  0  0  0  0  0  0  0  0
   13.6053   40.4751   10.6957 C   0  0  0  0  0  0  0  0  0  0  0  0
   12.9231   39.3609   11.4837 C   0  0  0  0  0  0  0  0  0  0  0  0
   13.7314   38.0714   11.3756 C   0  0  0  0  0  0  0  0  0  0  0  0
  1  9  1  0
  5 17  1  0
 10  2  2  0
 11  3  2  0
 12  9  2  0
 13  1  1  0
 13 14  1  0
 14 15  1  6
 14 23  1  0
 16  4  2  0
 16  5  1  0
 17  7  2  0
 18  6  2  0
 19 20  2  0
 21  8  2  0
 22 15  2  0
 23 24  1  0
 24 25  1  0
 25  1  1  0
  9  2  1  0
 10 11  1  0
 12  3  1  0
 15  4  1  0
 16 21  1  0
 17  6  1  0
 18 19  1  0
 20  7  1  0
 22  8  1  0
M  END
>  <rmsd>  (1) 
0.240865991

$$$$
