MolPort-007-711-095 ChemDiv-D485-0830 MCULE-3941068606 PubChem-20899143
     RDKit          3D

 34 38  0  0  0  0  0  0  0  0999 V2000
   13.3421   39.2162   11.2093 C   0  0  0  0  0  0  0  0  0  0  0  0
   12.1683   39.8179    9.1118 C   0  0  0  0  0  0  0  0  0  0  0  0
   11.8424   40.7995    8.1502 C   0  0  0  0  0  0  0  0  0  0  0  0
   11.0434   40.4563    7.0534 C   0  0  0  0  0  0  0  0  0  0  0  0
   10.5587   39.1550    6.9083 C   0  0  0  0  0  0  0  0  0  0  0  0
   10.8734   38.1831    7.8589 C   0  0  0  0  0  0  0  0  0  0  0  0
   11.6743   38.5120    8.9543 C   0  0  0  0  0  0  0  0  0  0  0  0
   12.3505   42.2183    8.2348 C   0  0  2  0  0  0  0  0  0  0  0  0
   10.6708   42.8509    9.8082 C   0  0  0  0  0  0  0  0  0  0  0  0
   10.3999   43.4445   11.1945 C   0  0  0  0  0  0  0  0  0  0  0  0
   10.1326   45.7268   10.5377 C   0  0  0  0  0  0  0  0  0  0  0  0
   12.3390   44.8760   10.8830 C   0  0  0  0  0  0  0  0  0  0  0  0
   12.5396   44.2300    9.5081 C   0  0  0  0  0  0  0  0  0  0  0  0
   13.8033   42.2563    7.8483 C   0  0  0  0  0  0  0  0  0  0  0  0
   14.3051   42.7838    6.6679 C   0  0  0  0  0  0  0  0  0  0  0  0
   13.9623   44.2294    4.5909 C   0  0  0  0  0  0  0  0  0  0  0  0
   13.1468   44.4511    3.3843 C   0  0  0  0  0  0  0  0  0  0  0  0
   11.9506   43.7425    3.1981 C   0  0  0  0  0  0  0  0  0  0  0  0
   11.1764   43.9507    2.0529 C   0  0  0  0  0  0  0  0  0  0  0  0
   11.5928   44.8687    1.0852 C   0  0  0  0  0  0  0  0  0  0  0  0
   12.7835   45.5787    1.2623 C   0  0  0  0  0  0  0  0  0  0  0  0
   13.5578   45.3705    2.4075 C   0  0  0  0  0  0  0  0  0  0  0  0
   15.6685   42.5750    6.7215 C   0  0  0  0  0  0  0  0  0  0  0  0
   16.6930   42.8188    5.8082 C   0  0  0  0  0  0  0  0  0  0  0  0
   17.9981   42.4479    6.1780 C   0  0  0  0  0  0  0  0  0  0  0  0
   18.2446   41.8391    7.4275 C   0  0  0  0  0  0  0  0  0  0  0  0
   17.1883   41.5844    8.3204 C   0  0  0  0  0  0  0  0  0  0  0  0
   15.9061   41.9612    7.9281 C   0  0  0  0  0  0  0  0  0  0  0  0
   12.9731   40.1535   10.2070 O   0  0  0  0  0  0  0  0  0  0  0  0
   15.0235   44.8886    4.7609 O   0  0  0  0  0  0  0  0  0  0  0  0
   14.7873   41.7802    8.5904 O   0  0  0  0  0  0  0  0  0  0  0  0
   12.1119   42.8307    9.5529 N   0  0  0  0  0  0  0  0  0  0  0  0
   10.9399   44.8047   11.3267 N   0  0  0  0  0  0  0  0  0  0  0  0
   13.5163   43.3059    5.5912 N   0  0  0  0  0  0  0  0  0  0  0  0
  1 29  1  0
  2 29  1  0
  3  4  2  0
  5  6  2  0
  7  2  2  0
  8  3  1  0
  8 32  1  1
  8 14  1  0
  9 32  1  0
  9 10  1  0
 10 33  1  0
 11 33  1  0
 12 33  1  0
 12 13  1  0
 13 32  1  0
 14 31  1  0
 15 34  1  0
 15 23  1  0
 16 17  1  0
 18 19  2  0
 20 21  2  0
 22 17  2  0
 24 25  2  0
 26 27  2  0
 28 31  1  0
 28 23  2  0
 34 16  1  0
  2  3  1  0
  4  5  1  0
  6  7  1  0
 14 15  2  0
 16 30  2  0
 17 18  1  0
 19 20  1  0
 21 22  1  0
 23 24  1  0
 25 26  1  0
 27 28  1  0
M  END
>  <rmsd>  (1) 
0.156032979

$$$$
