Molport-047-015-071 MCULE-1233663536 PubChem-155985059
     RDKit          3D

 27 29  0  0  0  0  0  0  0  0999 V2000
   16.4368   38.6715   10.6541 S   0  0  0  0  0  0  0  0  0  0  0  0
   12.9109   44.9084    3.4512 S   0  0  0  0  0  0  0  0  0  0  0  0
   17.1943   38.9034    9.3748 O   0  0  0  0  0  0  0  0  0  0  0  0
   16.3433   39.9699   11.4098 O   0  0  0  0  0  0  0  0  0  0  0  0
   17.2924   37.4931   11.6054 N   0  0  0  0  0  0  0  0  0  0  0  0
   14.8447   38.0698   10.2780 N   0  0  0  0  0  0  0  0  0  0  0  0
   13.6618   41.7231    7.4161 N   0  0  0  0  0  0  0  0  0  0  0  0
   13.4557   43.2723    5.5854 N   0  0  0  0  0  0  0  0  0  0  0  0
   15.0736   44.9316    4.7500 N   0  0  0  0  0  0  0  0  0  0  0  0
   16.6854   37.4548   12.9265 C   0  0  0  0  0  0  0  0  0  0  0  0
   16.6330   36.0240   13.4245 C   0  0  0  0  0  0  0  0  0  0  0  0
   18.6554   37.9707   11.7850 C   0  0  0  0  0  0  0  0  0  0  0  0
   19.5937   37.1896   10.8866 C   0  0  0  0  0  0  0  0  0  0  0  0
   13.9729   38.1441   11.4662 C   0  0  0  0  0  0  0  0  0  0  0  0
   12.9055   39.2389   11.4239 C   0  0  0  0  0  0  0  0  0  0  0  0
   13.4289   40.4507   10.6886 C   0  0  0  0  0  0  0  0  0  0  0  0
   13.6466   40.0625    9.2357 C   0  0  1  0  0  0  0  0  0  0  0  0
   14.3226   41.1447    8.4558 C   0  0  0  0  0  0  0  0  0  0  0  0
   15.6152   41.5742    8.7794 C   0  0  0  0  0  0  0  0  0  0  0  0
   16.2077   42.5878    8.0277 C   0  0  0  0  0  0  0  0  0  0  0  0
   15.5091   43.1623    6.9660 C   0  0  0  0  0  0  0  0  0  0  0  0
   14.2158   42.7142    6.6655 C   0  0  0  0  0  0  0  0  0  0  0  0
   13.8721   44.3138    4.6942 C   0  0  0  0  0  0  0  0  0  0  0  0
   14.0887   46.0049    2.9656 C   0  0  0  0  0  0  0  0  0  0  0  0
   15.2027   45.8806    3.7847 C   0  0  0  0  0  0  0  0  0  0  0  0
   13.9562   46.9591    1.8343 C   0  0  0  0  0  0  0  0  0  0  0  0
   14.3202   38.6904    9.0462 C   0  0  0  0  0  0  0  0  0  0  0  0
  1  5  1  0
  1  6  1  0
  8 23  1  0
 10  5  1  0
 10 11  1  0
 12  5  1  0
 12 13  1  0
 14  6  1  0
 14 15  1  0
 15 16  1  0
 16 17  1  0
 17 18  1  1
 17 27  1  0
 18  7  2  0
 19 20  2  0
 21 22  2  0
 22  8  1  0
 23  2  1  0
 24  2  1  0
 25  9  1  0
 26 24  1  0
 27  6  1  0
  1  3  2  0
  1  4  2  0
 18 19  1  0
 20 21  1  0
 22  7  1  0
 23  9  2  0
 24 25  2  0
M  END
>  <rmsd>  (1) 
0.244496763

$$$$
