Molport-046-971-651 MCULE-3715949445 PubChem-110111589
     RDKit          3D

 26 28  0  0  0  0  0  0  0  0999 V2000
   11.9135   35.6882   10.8284 C   0  0  0  0  0  0  0  0  0  0  0  0
   13.3303   35.3053   10.4419 C   0  0  0  0  0  0  0  0  0  0  0  0
   13.2188   33.9704    9.6982 C   0  0  0  0  0  0  0  0  0  0  0  0
   13.8894   36.4089    9.5512 C   0  0  0  0  0  0  0  0  0  0  0  0
   13.8632   38.0964   11.4455 C   0  0  0  0  0  0  0  0  0  0  0  0
   13.0252   39.3666   11.5519 C   0  0  0  0  0  0  0  0  0  0  0  0
   13.6667   40.4866   10.7386 C   0  0  0  0  0  0  0  0  0  0  0  0
   13.8040   40.0633    9.2752 C   0  0  2  0  0  0  0  0  0  0  0  0
   14.6258   38.7789    9.1612 C   0  0  0  0  0  0  0  0  0  0  0  0
   14.4046   41.1584    8.4523 C   0  0  0  0  0  0  0  0  0  0  0  0
   13.6632   41.7073    7.4036 C   0  0  0  0  0  0  0  0  0  0  0  0
   14.2147   42.7303    6.6281 C   0  0  0  0  0  0  0  0  0  0  0  0
   16.2129   42.6648    7.9175 C   0  0  0  0  0  0  0  0  0  0  0  0
   15.6935   41.6420    8.7124 C   0  0  0  0  0  0  0  0  0  0  0  0
   13.8520   44.3301    4.6673 C   0  0  0  0  0  0  0  0  0  0  0  0
   12.9724   44.7558    3.6683 C   0  0  0  0  0  0  0  0  0  0  0  0
   13.3631   45.7752    2.7982 C   0  0  0  0  0  0  0  0  0  0  0  0
   14.6237   46.3585    2.9323 C   0  0  0  0  0  0  0  0  0  0  0  0
   15.4776   45.9090    3.9414 C   0  0  0  0  0  0  0  0  0  0  0  0
   15.4023   34.7823   11.3329 C   0  0  0  0  0  0  0  0  0  0  0  0
   14.2019   36.1429    8.3568 O   0  0  0  0  0  0  0  0  0  0  0  0
   14.0793   35.1555   11.6361 O   0  0  0  0  0  0  0  0  0  0  0  0
   14.0664   37.7529   10.0386 N   0  0  0  0  0  0  0  0  0  0  0  0
   15.4706   43.1823    6.9025 N   0  0  0  0  0  0  0  0  0  0  0  0
   13.4424   43.2835    5.5556 N   0  0  0  0  0  0  0  0  0  0  0  0
   15.0783   44.9146    4.7792 N   0  0  0  0  0  0  0  0  0  0  0  0
  1  2  1  0
  2  3  1  0
  2  4  1  0
  2 22  1  0
  4 23  1  0
  5 23  1  0
  5  6  1  0
  6  7  1  0
  7  8  1  0
  8  9  1  0
  8 10  1  6
  9 23  1  0
 11 12  2  0
 12 25  1  0
 13 24  2  0
 14 10  2  0
 15 26  2  0
 16 17  2  0
 18 19  2  0
 20 22  1  0
 25 15  1  0
  4 21  2  0
 10 11  1  0
 12 24  1  0
 13 14  1  0
 15 16  1  0
 17 18  1  0
 19 26  1  0
M  END
>  <rmsd>  (1) 
0.24374105

$$$$
