MolPort-004-984-142 CSSS00159487125 MCULE-1343284236 PubChem-45161558
     RDKit          3D

 34 38  0  0  0  0  0  0  0  0999 V2000
   11.6824   39.6841    4.8663 C   0  0  0  0  0  0  0  0  0  0  0  0
   13.3468   40.3821    6.5415 C   0  0  0  0  0  0  0  0  0  0  0  0
   14.1958   41.4467    7.1193 C   0  0  0  0  0  0  0  0  0  0  0  0
   14.2821   42.7582    6.6440 C   0  0  0  0  0  0  0  0  0  0  0  0
   13.8581   44.4459    4.7778 C   0  0  0  0  0  0  0  0  0  0  0  0
   12.8341   45.0692    3.9002 C   0  0  0  0  0  0  0  0  0  0  0  0
   15.1553   43.4207    7.4892 C   0  0  0  0  0  0  0  0  0  0  0  0
   15.5556   44.7503    7.5750 C   0  0  0  0  0  0  0  0  0  0  0  0
   16.4355   45.1017    8.6188 C   0  0  0  0  0  0  0  0  0  0  0  0
   16.5244   47.5184    7.8691 C   0  0  0  0  0  0  0  0  0  0  0  0
   17.1767   48.7838    8.2976 C   0  0  0  0  0  0  0  0  0  0  0  0
   18.4226   49.2243    7.8541 C   0  0  0  0  0  0  0  0  0  0  0  0
   18.7869   50.4207    8.4775 C   0  0  0  0  0  0  0  0  0  0  0  0
   19.9697   51.1252    8.2517 C   0  0  0  0  0  0  0  0  0  0  0  0
   20.1911   52.3153    8.9647 C   0  0  0  0  0  0  0  0  0  0  0  0
   19.2371   52.7834    9.8887 C   0  0  0  0  0  0  0  0  0  0  0  0
   18.0506   52.0673   10.1107 C   0  0  0  0  0  0  0  0  0  0  0  0
   17.8541   50.8918    9.3906 C   0  0  0  0  0  0  0  0  0  0  0  0
   16.8536   44.1143    9.5376 C   0  0  0  0  0  0  0  0  0  0  0  0
   15.5770   42.4993    8.4084 C   0  0  0  0  0  0  0  0  0  0  0  0
   15.1836   40.1130    9.0344 C   0  0  0  0  0  0  0  0  0  0  0  0
   14.3349   40.2222   10.2916 C   0  0  2  0  0  0  0  0  0  0  0  0
   14.6224   39.0531   11.2022 C   0  0  0  0  0  0  0  0  0  0  0  0
   13.2763   38.6804   11.7456 C   0  0  0  0  0  0  0  0  0  0  0  0
   12.3332   39.6604   11.0885 C   0  0  0  0  0  0  0  0  0  0  0  0
   12.5152   40.6701    5.4575 O   0  0  0  0  0  0  0  0  0  0  0  0
   13.3768   39.2160    7.0210 O   0  0  0  0  0  0  0  0  0  0  0  0
   15.0359   44.8899    4.7666 O   0  0  0  0  0  0  0  0  0  0  0  0
   12.9709   40.2030    9.9640 O   0  0  0  0  0  0  0  0  0  0  0  0
   13.5043   43.3109    5.5728 N   0  0  0  0  0  0  0  0  0  0  0  0
   16.9069   46.4420    8.7701 N   0  0  0  0  0  0  0  0  0  0  0  0
   16.4138   42.8255    9.4262 N   0  0  0  0  0  0  0  0  0  0  0  0
   15.0119   41.2962    8.1981 N   0  0  0  0  0  0  0  0  0  0  0  0
   16.5483   49.8428    9.4569 S   0  0  0  0  0  0  0  0  0  0  0  0
  1 26  1  0
  2 26  1  0
  2  3  1  0
  4 30  1  0
  4  7  1  0
  6  5  1  0
  8  9  2  0
  9 31  1  0
 10 31  1  0
 10 11  1  0
 11 34  1  0
 12 13  1  0
 14 15  2  0
 16 17  2  0
 18 34  1  0
 18 13  2  0
 19 32  2  0
 20 33  1  0
 20  7  2  0
 21 33  1  0
 22 21  1  6
 22 23  1  0
 22 29  1  0
 23 24  1  0
 24 25  1  0
 25 29  1  0
 30  5  1  0
 33  3  1  0
  2 27  2  0
  3  4  2  0
  5 28  2  0
  7  8  1  0
  9 19  1  0
 11 12  2  0
 13 14  1  0
 15 16  1  0
 17 18  1  0
 20 32  1  0
M  END
>  <rmsd>  (1) 
0.164516121

$$$$
