MolPort-007-723-649 8588140 CHEMBL1592321 ChemDiv-E157-6989 MCULE-7455272593 PubChem-16017538 ZINC000008588140 ZINC08588140
     RDKit          3D

 30 32  0  0  0  0  0  0  0  0999 V2000
   13.5327   39.3298   11.3043 C   0  0  0  0  0  0  0  0  0  0  0  0
   13.7578   41.8260   11.5320 C   0  0  0  0  0  0  0  0  0  0  0  0
   12.6516   41.8631   12.3980 C   0  0  0  0  0  0  0  0  0  0  0  0
   12.2167   43.0725   12.9473 C   0  0  0  0  0  0  0  0  0  0  0  0
   11.0457   43.0942   13.8616 C   0  0  0  0  0  0  0  0  0  0  0  0
   12.8821   44.2604   12.6360 C   0  0  0  0  0  0  0  0  0  0  0  0
   13.9833   44.2382   11.7772 C   0  0  0  0  0  0  0  0  0  0  0  0
   14.6910   45.5009   11.4423 C   0  0  0  0  0  0  0  0  0  0  0  0
   14.4184   43.0285   11.2305 C   0  0  0  0  0  0  0  0  0  0  0  0
   15.1522   41.5266    8.4435 C   0  0  0  0  0  0  0  0  0  0  0  0
   14.2434   42.7392    6.5990 C   0  0  0  0  0  0  0  0  0  0  0  0
   13.9140   44.3574    4.6725 C   0  0  0  0  0  0  0  0  0  0  0  0
   13.0190   44.8357    3.5813 C   0  0  0  0  0  0  0  0  0  0  0  0
   13.8565   43.5763    1.6093 C   0  0  0  0  0  0  0  0  0  0  0  0
   15.0267   44.3482    1.5168 C   0  0  0  0  0  0  0  0  0  0  0  0
   15.9810   44.0665    0.5352 C   0  0  0  0  0  0  0  0  0  0  0  0
   15.7719   43.0140   -0.3600 C   0  0  0  0  0  0  0  0  0  0  0  0
   14.6085   42.2443   -0.2745 C   0  0  0  0  0  0  0  0  0  0  0  0
   13.6540   42.5259    0.7076 C   0  0  0  0  0  0  0  0  0  0  0  0
   14.2000   40.5782   10.9605 N   0  0  0  0  0  0  0  0  0  0  0  0
   16.0146   42.4301    7.9294 N   0  0  0  0  0  0  0  0  0  0  0  0
   15.5092   43.1056    6.8992 N   0  0  0  0  0  0  0  0  0  0  0  0
   13.4694   43.3089    5.5394 N   0  0  0  0  0  0  0  0  0  0  0  0
   15.5158   40.5137    9.8257 S   0  0  0  0  0  0  0  0  0  0  0  0
   13.6810   41.5294    7.6237 S   0  0  0  0  0  0  0  0  0  0  0  0
   15.7243   39.1021    9.3529 O   0  0  0  0  0  0  0  0  0  0  0  0
   16.7718   40.9943   10.4966 O   0  0  0  0  0  0  0  0  0  0  0  0
   15.0529   44.8772    4.8117 O   0  0  0  0  0  0  0  0  0  0  0  0
   12.8811   43.8331    2.5793 O   0  0  0  0  0  0  0  0  0  0  0  0
   16.9666   42.6609   -1.5892 Cl  0  0  0  0  0  0  0  0  0  0  0  0
  1 20  1  0
  3  4  2  0
  5  4  1  0
  6  7  2  0
  8  7  1  0
  9  2  2  0
 10 25  1  0
 11 23  1  0
 11 25  1  0
 13 12  1  0
 13 29  1  0
 14 29  1  0
 15 16  2  0
 17 30  1  0
 17 18  2  0
 19 14  2  0
 20  2  1  0
 21 22  1  0
 23 12  1  0
 24 20  1  0
 24 10  1  0
  2  3  1  0
  4  6  1  0
  7  9  1  0
 10 21  2  0
 11 22  2  0
 12 28  2  0
 14 15  1  0
 16 17  1  0
 18 19  1  0
 24 26  2  0
 24 27  2  0
M  END
>  <rmsd>  (1) 
0.191857189

$$$$
