Molport-020-282-180 MCULE-3806633297 PubChem-110257665
     RDKit          3D

 24 26  0  0  0  0  0  0  0  0999 V2000
   16.8225   46.5158    4.0991 C   0  0  0  0  0  0  0  0  0  0  0  0
   15.4772   45.9053    3.9391 C   0  0  0  0  0  0  0  0  0  0  0  0
   13.8521   44.3268    4.6669 C   0  0  0  0  0  0  0  0  0  0  0  0
   12.9739   44.7481    3.6648 C   0  0  0  0  0  0  0  0  0  0  0  0
   13.3650   45.7650    2.7921 C   0  0  0  0  0  0  0  0  0  0  0  0
   14.6248   46.3503    2.9269 C   0  0  0  0  0  0  0  0  0  0  0  0
   14.2144   42.7347    6.6334 C   0  0  0  0  0  0  0  0  0  0  0  0
   16.2112   42.6775    7.9256 C   0  0  0  0  0  0  0  0  0  0  0  0
   15.6927   41.6566    8.7236 C   0  0  0  0  0  0  0  0  0  0  0  0
   14.4048   41.1701    8.4637 C   0  0  0  0  0  0  0  0  0  0  0  0
   13.6638   41.7135    7.4119 C   0  0  0  0  0  0  0  0  0  0  0  0
   13.8053   40.0760    9.2881 C   0  0  2  0  0  0  0  0  0  0  0  0
   13.6703   40.4947   10.7449 C   0  0  0  0  0  0  0  0  0  0  0  0
   13.0219   39.3664   11.5269 C   0  0  0  0  0  0  0  0  0  0  0  0
   13.8627   38.0954   11.4010 C   0  0  0  0  0  0  0  0  0  0  0  0
   14.6275   38.7883    9.1757 C   0  0  0  0  0  0  0  0  0  0  0  0
   11.3249   38.1433    9.1597 C   0  0  0  0  0  0  0  0  0  0  0  0
   15.0773   44.9131    4.7792 N   0  0  0  0  0  0  0  0  0  0  0  0
   13.4425   43.2826    5.5581 N   0  0  0  0  0  0  0  0  0  0  0  0
   15.4690   43.1900    6.9079 N   0  0  0  0  0  0  0  0  0  0  0  0
   14.0942   37.6965   10.0040 N   0  0  0  0  0  0  0  0  0  0  0  0
   12.6713   36.9850    9.2904 S   0  0  0  0  0  0  0  0  0  0  0  0
   12.2255   35.8230   10.1326 O   0  0  0  0  0  0  0  0  0  0  0  0
   13.0087   36.4845    7.9143 O   0  0  0  0  0  0  0  0  0  0  0  0
  1  2  1  0
  3 18  2  0
  3 19  1  0
  4  5  2  0
  6  2  2  0
  8 20  2  0
  9 10  2  0
 11  7  2  0
 12 10  1  6
 12 13  1  0
 13 14  1  0
 14 15  1  0
 15 21  1  0
 16 21  1  0
 16 12  1  0
 19  7  1  0
 22 21  1  0
 22 17  1  0
  2 18  1  0
  3  4  1  0
  5  6  1  0
  7 20  1  0
  8  9  1  0
 10 11  1  0
 22 23  2  0
 22 24  2  0
M  END
>  <rmsd>  (1) 
0.246134788

$$$$
