MolPort-003-076-372 4325488 CHEMBL1574704 CSSS03437161374 MCULE-5013813756 PubChem-7189636 ZINC000004325488
     RDKit          3D

 26 28  0  0  0  0  0  0  0  0999 V2000
   14.3685   42.7513    6.6393 C   0  0  0  0  0  0  0  0  0  0  0  0
   13.8836   44.3321    4.6888 C   0  0  0  0  0  0  0  0  0  0  0  0
   12.9084   44.7410    3.6385 C   0  0  0  0  0  0  0  0  0  0  0  0
   12.7287   43.6448    2.5970 C   0  0  0  0  0  0  0  0  0  0  0  0
   14.5416   45.1415    0.8886 C   0  0  0  0  0  0  0  0  0  0  0  0
   13.7500   45.7372   -0.0998 C   0  0  0  0  0  0  0  0  0  0  0  0
   14.0661   47.0127   -0.5771 C   0  0  0  0  0  0  0  0  0  0  0  0
   15.1730   47.6963   -0.0651 C   0  0  0  0  0  0  0  0  0  0  0  0
   15.9637   47.1046    0.9247 C   0  0  0  0  0  0  0  0  0  0  0  0
   15.6477   45.8290    1.4017 C   0  0  0  0  0  0  0  0  0  0  0  0
   16.1145   42.0845    8.1970 C   0  0  0  0  0  0  0  0  0  0  0  0
   14.9043   41.4260    8.3587 C   0  0  0  0  0  0  0  0  0  0  0  0
   14.7516   40.4603    9.3584 C   0  0  0  0  0  0  0  0  0  0  0  0
   15.8579   40.1788   10.1875 C   0  0  0  0  0  0  0  0  0  0  0  0
   17.0795   40.8557   10.0106 C   0  0  0  0  0  0  0  0  0  0  0  0
   17.2175   41.8229    9.0041 C   0  0  0  0  0  0  0  0  0  0  0  0
   13.2791   38.8415   10.5325 C   0  0  0  0  0  0  0  0  0  0  0  0
   13.0181   39.5410   11.8532 C   0  0  0  0  0  0  0  0  0  0  0  0
   13.5284   43.3010    5.6174 N   0  0  0  0  0  0  0  0  0  0  0  0
   13.9270   41.7943    7.4902 N   0  0  0  0  0  0  0  0  0  0  0  0
   15.0066   44.8992    4.7394 O   0  0  0  0  0  0  0  0  0  0  0  0
   13.7937   42.6474    0.3407 O   0  0  0  0  0  0  0  0  0  0  0  0
   15.3075   42.9644    2.2303 O   0  0  0  0  0  0  0  0  0  0  0  0
   13.5260   39.8002    9.5100 O   0  0  0  0  0  0  0  0  0  0  0  0
   14.1316   43.5464    1.4964 S   0  0  0  0  0  0  0  0  0  0  0  0
   15.9878   43.1736    6.9282 S   0  0  0  0  0  0  0  0  0  0  0  0
  1 19  1  0
  1 26  1  0
  3  2  1  0
  3  4  1  0
  4 25  1  0
  6  7  2  0
  8  9  2  0
 10  5  2  0
 11 26  1  0
 12 13  2  0
 12 20  1  0
 13 24  1  0
 14 15  2  0
 16 11  2  0
 17 24  1  0
 17 18  1  0
 19  2  1  0
 25  5  1  0
  1 20  2  0
  2 21  2  0
  5  6  1  0
  7  8  1  0
  9 10  1  0
 11 12  1  0
 13 14  1  0
 15 16  1  0
 25 22  2  0
 25 23  2  0
M  END
>  <rmsd>  (1) 
0.240871042

$$$$
