MolPort-007-714-551 ChemDiv-E002-1886 MCULE-8664044469 PubChem-22510854 ZINC000015671749 ZINC15671749
     RDKit          3D

 27 29  0  0  0  0  0  0  0  0999 V2000
   13.1179   48.0484   -2.3711 C   0  0  0  0  0  0  0  0  0  0  0  0
   13.0904   49.1182   -1.2949 C   0  0  0  0  0  0  0  0  0  0  0  0
   13.7463   47.7920    0.7033 C   0  0  0  0  0  0  0  0  0  0  0  0
   14.7280   47.5040    1.6561 C   0  0  0  0  0  0  0  0  0  0  0  0
   14.5071   46.5164    2.6201 C   0  0  0  0  0  0  0  0  0  0  0  0
   13.2986   45.8043    2.6435 C   0  0  0  0  0  0  0  0  0  0  0  0
   13.9122   44.3485    4.6638 C   0  0  0  0  0  0  0  0  0  0  0  0
   14.2334   42.7734    6.6294 C   0  0  0  0  0  0  0  0  0  0  0  0
   15.1329   41.6021    8.5176 C   0  0  0  0  0  0  0  0  0  0  0  0
   16.9018   40.5594    9.9255 C   0  0  0  0  0  0  0  0  0  0  0  0
   17.5129   39.5031    9.0229 C   0  0  0  0  0  0  0  0  0  0  0  0
   14.5000   40.0252   10.3914 C   0  0  0  0  0  0  0  0  0  0  0  0
   14.8205   38.7980   10.9965 C   0  0  0  0  0  0  0  0  0  0  0  0
   13.8790   38.1218   11.7775 C   0  0  0  0  0  0  0  0  0  0  0  0
   12.6083   38.6689   11.9695 C   0  0  0  0  0  0  0  0  0  0  0  0
   12.2805   39.8939   11.3840 C   0  0  0  0  0  0  0  0  0  0  0  0
   13.2225   40.5696   10.6034 C   0  0  0  0  0  0  0  0  0  0  0  0
   12.3161   46.0945    1.6914 C   0  0  0  0  0  0  0  0  0  0  0  0
   12.5355   47.0818    0.7268 C   0  0  0  0  0  0  0  0  0  0  0  0
   13.9963   48.7891   -0.2467 O   0  0  0  0  0  0  0  0  0  0  0  0
   15.0514   44.8685    4.8095 O   0  0  0  0  0  0  0  0  0  0  0  0
   13.0359   44.7842    3.6169 N   0  0  0  0  0  0  0  0  0  0  0  0
   13.4710   43.3101    5.5440 N   0  0  0  0  0  0  0  0  0  0  0  0
   15.4802   43.1775    6.9581 N   0  0  0  0  0  0  0  0  0  0  0  0
   15.9822   42.5219    8.0030 N   0  0  0  0  0  0  0  0  0  0  0  0
   15.4860   40.7324    9.6107 N   0  0  0  0  0  0  0  0  0  0  0  0
   13.6858   41.5492    7.6435 S   0  0  0  0  0  0  0  0  0  0  0  0
  1  2  1  0
  2 20  1  0
  3 20  1  0
  4  5  2  0
  6 22  1  0
  6 18  2  0
  7 23  1  0
  8 27  1  0
  9 27  1  0
  9 26  1  0
 10 26  1  0
 10 11  1  0
 13 14  2  0
 15 16  2  0
 17 12  2  0
 19  3  2  0
 22  7  1  0
 23  8  1  0
 24 25  1  0
 26 12  1  0
  3  4  1  0
  5  6  1  0
  7 21  2  0
  8 24  2  0
  9 25  2  0
 12 13  1  0
 14 15  1  0
 16 17  1  0
 18 19  1  0
M  END
>  <rmsd>  (1) 
0.210551307

$$$$
