MolPort-020-292-464 MCULE-7546997450 PubChem-110264932
     RDKit          3D

 31 34  0  0  0  0  0  0  0  0999 V2000
   17.6247   42.9913    8.2745 C   0  0  0  0  0  0  0  0  0  0  0  0
   16.2397   42.5466    7.9698 C   0  0  0  0  0  0  0  0  0  0  0  0
   15.5344   43.1357    6.9194 C   0  0  0  0  0  0  0  0  0  0  0  0
   14.2265   42.7169    6.6427 C   0  0  0  0  0  0  0  0  0  0  0  0
   13.6531   41.7137    7.4279 C   0  0  0  0  0  0  0  0  0  0  0  0
   14.3877   41.1459    8.4720 C   0  0  0  0  0  0  0  0  0  0  0  0
   13.7699   40.0756    9.3086 C   0  0  2  0  0  0  0  0  0  0  0  0
   13.6544   40.5236   10.7669 C   0  0  0  0  0  0  0  0  0  0  0  0
   13.0967   39.3997   11.6445 C   0  0  0  0  0  0  0  0  0  0  0  0
   13.6033   38.0166   11.2149 C   0  0  0  0  0  0  0  0  0  0  0  0
   14.5453   38.7529    9.1603 C   0  0  0  0  0  0  0  0  0  0  0  0
   15.2996   36.7783   10.1713 C   0  0  0  0  0  0  0  0  0  0  0  0
   16.4086   36.3718   11.0910 C   0  0  0  0  0  0  0  0  0  0  0  0
   17.9475   37.0394   13.0356 C   0  0  0  0  0  0  0  0  0  0  0  0
   18.5156   35.7648   13.1890 C   0  0  0  0  0  0  0  0  0  0  0  0
   19.5039   35.5405   14.1507 C   0  0  0  0  0  0  0  0  0  0  0  0
   19.9311   36.5883   14.9697 C   0  0  0  0  0  0  0  0  0  0  0  0
   19.3685   37.8590   14.8270 C   0  0  0  0  0  0  0  0  0  0  0  0
   18.3799   38.0859   13.8644 C   0  0  0  0  0  0  0  0  0  0  0  0
   13.8526   44.3180    4.6666 C   0  0  0  0  0  0  0  0  0  0  0  0
   15.4402   45.9059    3.9010 C   0  0  0  0  0  0  0  0  0  0  0  0
   14.5578   46.3051    2.8962 C   0  0  0  0  0  0  0  0  0  0  0  0
   12.9722   44.7200    3.6594 C   0  0  0  0  0  0  0  0  0  0  0  0
   15.6580   41.5725    8.7188 N   0  0  0  0  0  0  0  0  0  0  0  0
   14.8460   38.1315   10.4532 N   0  0  0  0  0  0  0  0  0  0  0  0
   16.9268   37.2966   12.0599 N   0  0  0  0  0  0  0  0  0  0  0  0
   13.4549   43.2804    5.5726 N   0  0  0  0  0  0  0  0  0  0  0  0
   15.0689   44.9228    4.7627 N   0  0  0  0  0  0  0  0  0  0  0  0
   13.3431   45.7030    2.7971 N   0  0  0  0  0  0  0  0  0  0  0  0
   16.8814   35.2093   10.9894 O   0  0  0  0  0  0  0  0  0  0  0  0
   17.8459   39.3261   13.7377 F   0  0  0  0  0  0  0  0  0  0  0  0
  1  2  1  0
  2 24  2  0
  3  4  2  0
  4 27  1  0
  5  6  2  0
  7  6  1  6
  7  8  1  0
  8  9  1  0
  9 10  1  0
 10 25  1  0
 11 25  1  0
 11  7  1  0
 12 25  1  0
 12 13  1  0
 13 26  1  0
 15 16  2  0
 17 18  2  0
 19 31  1  0
 19 14  2  0
 21 28  2  0
 22 29  2  0
 23 20  2  0
 26 14  1  0
 27 20  1  0
  2  3  1  0
  4  5  1  0
  6 24  1  0
 13 30  2  0
 14 15  1  0
 16 17  1  0
 18 19  1  0
 20 28  1  0
 21 22  1  0
 23 29  1  0
M  END
>  <rmsd>  (1) 
0.244966507

$$$$
