MolPort-029-901-363 CSSS00160095993 MCULE-4458820928 PubChem-72911839
     RDKit          3D

 25 27  0  0  0  0  0  0  0  0999 V2000
   10.5102   43.9537   -0.5600 C   0  0  0  0  0  0  0  0  0  0  0  0
   10.6194   45.3980   -1.0098 C   0  0  0  0  0  0  0  0  0  0  0  0
   12.0472   45.8957   -0.8477 C   0  0  0  0  0  0  0  0  0  0  0  0
   13.4126   45.3202    1.2422 C   0  0  0  0  0  0  0  0  0  0  0  0
   13.4444   45.8631    2.6798 C   0  0  1  0  0  0  0  0  0  0  0  0
   12.4388   47.0176    2.7673 C   0  0  0  0  0  0  0  0  0  0  0  0
   11.8419   47.0486    1.4199 C   0  0  0  0  0  0  0  0  0  0  0  0
   13.9177   44.3644    4.6504 C   0  0  0  0  0  0  0  0  0  0  0  0
   14.1901   42.7483    6.6225 C   0  0  0  0  0  0  0  0  0  0  0  0
   13.5844   41.7312    7.3684 C   0  0  0  0  0  0  0  0  0  0  0  0
   14.2500   41.1429    8.4489 C   0  0  0  0  0  0  0  0  0  0  0  0
   14.1823   39.4976   10.3076 C   0  0  0  0  0  0  0  0  0  0  0  0
   13.4320   38.2120   10.6090 C   0  0  0  0  0  0  0  0  0  0  0  0
   12.7144   38.4266   11.9244 C   0  0  0  0  0  0  0  0  0  0  0  0
   13.4900   39.5115   12.6311 C   0  0  0  0  0  0  0  0  0  0  0  0
   14.0295   40.3921   11.5275 C   0  0  0  0  0  0  0  0  0  0  0  0
   15.5416   41.5798    8.7833 C   0  0  0  0  0  0  0  0  0  0  0  0
   16.1540   42.5944    8.0443 C   0  0  0  0  0  0  0  0  0  0  0  0
   15.4806   43.1769    6.9678 C   0  0  0  0  0  0  0  0  0  0  0  0
   12.3770   46.0657    0.5605 N   0  0  0  0  0  0  0  0  0  0  0  0
   13.0556   44.8103    3.6038 N   0  0  0  0  0  0  0  0  0  0  0  0
   13.4676   43.3213    5.5241 N   0  0  0  0  0  0  0  0  0  0  0  0
   10.9551   47.8688    1.0645 O   0  0  0  0  0  0  0  0  0  0  0  0
   15.0562   44.8864    4.7962 O   0  0  0  0  0  0  0  0  0  0  0  0
   13.6091   40.1273    9.1668 O   0  0  0  0  0  0  0  0  0  0  0  0
  1  2  1  0
  2  3  1  0
  3 20  1  0
  4 20  1  0
  4  5  1  0
  5  6  1  0
  5 21  1  1
  6  7  1  0
  7 20  1  0
  8 22  1  0
 10 11  2  0
 11 25  1  0
 12 25  1  0
 12 13  1  0
 13 14  1  0
 14 15  1  0
 15 16  1  0
 16 12  1  0
 17 18  2  0
 19  9  2  0
 21  8  1  0
 22  9  1  0
  7 23  2  0
  8 24  2  0
  9 10  1  0
 11 17  1  0
 18 19  1  0
M  END
>  <rmsd>  (1) 
0.249158487

$$$$
