MolPort-002-902-369 CHEMBL1337741 CSSS01394277748 MCULE-6597916471 PubChem-2814932
     RDKit          3D

 27 29  0  0  0  0  0  0  0  0999 V2000
   13.3994   39.3007   11.3997 C   0  0  0  0  0  0  0  0  0  0  0  0
   14.8872   39.5213   11.6503 C   0  0  1  0  0  0  0  0  0  0  0  0
   15.4480   38.8053   12.8586 C   0  0  0  0  0  0  0  0  0  0  0  0
   15.0239   37.3854   12.9196 C   0  0  0  0  0  0  0  0  0  0  0  0
   15.4170   36.7096   10.4125 C   0  0  0  0  0  0  0  0  0  0  0  0
   15.6917   37.9663    9.7873 C   0  0  0  0  0  0  0  0  0  0  0  0
   15.9732   37.9726    8.4081 C   0  0  0  0  0  0  0  0  0  0  0  0
   15.9877   36.8016    7.6551 C   0  0  0  0  0  0  0  0  0  0  0  0
   15.7178   35.5849    8.2686 C   0  0  0  0  0  0  0  0  0  0  0  0
   15.4358   35.5460    9.6317 C   0  0  0  0  0  0  0  0  0  0  0  0
   15.7515   41.4027    8.5892 C   0  0  0  0  0  0  0  0  0  0  0  0
   16.3239   42.4608    7.8555 C   0  0  0  0  0  0  0  0  0  0  0  0
   15.5804   43.0910    6.8532 C   0  0  0  0  0  0  0  0  0  0  0  0
   14.2692   42.6844    6.5694 C   0  0  0  0  0  0  0  0  0  0  0  0
   13.8896   44.3917    4.6963 C   0  0  0  0  0  0  0  0  0  0  0  0
   12.9362   44.9193    3.6862 C   0  0  0  0  0  0  0  0  0  0  0  0
   13.7053   41.6385    7.3040 C   0  0  0  0  0  0  0  0  0  0  0  0
   14.4403   41.0035    8.3068 C   0  0  0  0  0  0  0  0  0  0  0  0
   14.5731   36.9446   14.0080 O   0  0  0  0  0  0  0  0  0  0  0  0
   17.9443   40.0528    9.3360 O   0  0  0  0  0  0  0  0  0  0  0  0
   16.9157   41.5372   10.9853 O   0  0  0  0  0  0  0  0  0  0  0  0
   15.0373   44.9019    4.7873 O   0  0  0  0  0  0  0  0  0  0  0  0
   15.1050   36.5013   11.8001 N   0  0  0  0  0  0  0  0  0  0  0  0
   15.6965   39.2378   10.4773 N   0  0  0  0  0  0  0  0  0  0  0  0
   13.4838   43.3120    5.5468 N   0  0  0  0  0  0  0  0  0  0  0  0
   16.6368   40.5718    9.8669 S   0  0  0  0  0  0  0  0  0  0  0  0
   17.9566   43.0355    8.1585 Cl  0  0  0  0  0  0  0  0  0  0  0  0
  2  1  1  6
  2  3  1  0
  2 24  1  0
  3  4  1  0
  4 23  1  0
  6  7  2  0
  6 24  1  0
  8  9  2  0
 10  5  2  0
 12 27  1  0
 12 13  2  0
 14 25  1  0
 14 17  2  0
 16 15  1  0
 18 11  2  0
 23  5  1  0
 25 15  1  0
 26 24  1  0
 26 11  1  0
  4 19  2  0
  5  6  1  0
  7  8  1  0
  9 10  1  0
 11 12  1  0
 13 14  1  0
 15 22  2  0
 17 18  1  0
 26 20  2  0
 26 21  2  0
M  END
>  <rmsd>  (1) 
0.241174564

$$$$
