MolPort-001-980-337 871460 MCULE-2877066735 PubChem-1131055 ZINC000000871460
     RDKit          3D

 27 29  0  0  0  0  0  0  0  0999 V2000
   14.3176   42.6721    6.5353 C   0  0  0  0  0  0  0  0  0  0  0  0
   13.9403   44.2990    4.6182 C   0  0  0  0  0  0  0  0  0  0  0  0
   13.0564   44.6874    3.4883 C   0  0  0  0  0  0  0  0  0  0  0  0
   11.2103   46.2783    3.0634 C   0  0  0  0  0  0  0  0  0  0  0  0
   10.3871   47.2970    3.5560 C   0  0  0  0  0  0  0  0  0  0  0  0
    9.4087   47.8715    2.7388 C   0  0  0  0  0  0  0  0  0  0  0  0
    9.2488   47.4290    1.4226 C   0  0  0  0  0  0  0  0  0  0  0  0
   10.0673   46.4121    0.9227 C   0  0  0  0  0  0  0  0  0  0  0  0
   11.0456   45.8377    1.7395 C   0  0  0  0  0  0  0  0  0  0  0  0
   15.1825   41.4647    8.5582 C   0  0  0  0  0  0  0  0  0  0  0  0
   16.1300   41.5893    7.5349 C   0  0  0  0  0  0  0  0  0  0  0  0
   17.5121   41.0257    7.6163 C   0  0  0  0  0  0  0  0  0  0  0  0
   15.6403   42.2494    6.3919 C   0  0  0  0  0  0  0  0  0  0  0  0
   16.3995   42.3684    5.1712 C   0  0  0  0  0  0  0  0  0  0  0  0
   15.4000   40.8623    9.8944 C   0  0  0  0  0  0  0  0  0  0  0  0
   14.4790   40.2239   12.1320 C   0  0  0  0  0  0  0  0  0  0  0  0
   14.1535   38.7982   12.5828 C   0  0  0  0  0  0  0  0  0  0  0  0
   12.8763   38.2311   11.9421 C   0  0  0  0  0  0  0  0  0  0  0  0
   12.1334   39.2447   11.0730 C   0  0  0  0  0  0  0  0  0  0  0  0
   13.0871   39.8531   10.0472 C   0  0  0  0  0  0  0  0  0  0  0  0
   13.4955   43.3105    5.5510 N   0  0  0  0  0  0  0  0  0  0  0  0
   17.0098   42.4612    4.1923 N   0  0  0  0  0  0  0  0  0  0  0  0
   14.3121   40.3506   10.6837 N   0  0  0  0  0  0  0  0  0  0  0  0
   12.1762   45.7223    3.9063 O   0  0  0  0  0  0  0  0  0  0  0  0
   15.0297   44.9070    4.7910 O   0  0  0  0  0  0  0  0  0  0  0  0
   16.5717   40.8143   10.3585 O   0  0  0  0  0  0  0  0  0  0  0  0
   13.7510   42.1901    8.0380 S   0  0  0  0  0  0  0  0  0  0  0  0
  1 21  1  0
  1 27  1  0
  3  2  1  0
  3 24  1  0
  4 24  1  0
  5  6  2  0
  7  8  2  0
  9  4  2  0
 10 27  1  0
 10 15  1  0
 11 13  1  0
 12 11  1  0
 13 14  1  0
 15 23  1  0
 16 23  1  0
 16 17  1  0
 17 18  1  0
 18 19  1  0
 19 20  1  0
 20 23  1  0
 21  2  1  0
  2 25  2  0
  4  5  1  0
  6  7  1  0
  8  9  1  0
 10 11  2  0
 13  1  2  0
 15 26  2  0
 14 22  3  0
M  END
>  <rmsd>  (1) 
0.249556586

$$$$
