Molport-020-279-129 MCULE-4540815078 MCULE-9333749686 PubChem-110255884
     RDKit          3D

 24 26  0  0  0  0  0  0  0  0999 V2000
   17.5940   43.0271    8.3250 C   0  0  0  0  0  0  0  0  0  0  0  0
   16.2183   42.5751    7.9925 C   0  0  0  0  0  0  0  0  0  0  0  0
   15.5264   43.1666    6.9378 C   0  0  0  0  0  0  0  0  0  0  0  0
   14.2325   42.7206    6.6475 C   0  0  0  0  0  0  0  0  0  0  0  0
   14.3755   41.1593    8.4255 C   0  0  0  0  0  0  0  0  0  0  0  0
   13.7390   40.0703    9.2234 C   0  0  2  0  0  0  0  0  0  0  0  0
   13.6048   40.4829   10.6907 C   0  0  0  0  0  0  0  0  0  0  0  0
   12.9514   39.3649   11.5004 C   0  0  0  0  0  0  0  0  0  0  0  0
   13.7751   38.0863   11.3815 C   0  0  0  0  0  0  0  0  0  0  0  0
   14.5407   38.7747    9.0992 C   0  0  0  0  0  0  0  0  0  0  0  0
   13.5639   36.4822    9.4433 C   0  0  0  0  0  0  0  0  0  0  0  0
   12.9254   35.4544   10.3173 C   0  0  0  0  0  0  0  0  0  0  0  0
   13.8455   44.3268    4.6745 C   0  0  0  0  0  0  0  0  0  0  0  0
   13.2951   45.7161    2.8392 C   0  0  0  0  0  0  0  0  0  0  0  0
   14.5421   46.3332    2.9154 C   0  0  0  0  0  0  0  0  0  0  0  0
   15.4286   45.9104    3.9038 C   0  0  0  0  0  0  0  0  0  0  0  0
   13.6886   41.7270    7.3992 N   0  0  0  0  0  0  0  0  0  0  0  0
   15.6349   41.5856    8.7161 N   0  0  0  0  0  0  0  0  0  0  0  0
   13.9599   37.7571    9.9704 N   0  0  0  0  0  0  0  0  0  0  0  0
   11.4861   35.6446   10.3237 N   0  0  0  0  0  0  0  0  0  0  0  0
   13.4589   43.2813    5.5770 N   0  0  0  0  0  0  0  0  0  0  0  0
   12.9706   44.7294    3.7150 N   0  0  0  0  0  0  0  0  0  0  0  0
   15.0676   44.9206    4.7612 N   0  0  0  0  0  0  0  0  0  0  0  0
   13.7247   36.2251    8.2202 O   0  0  0  0  0  0  0  0  0  0  0  0
  1  2  1  0
  2 18  2  0
  3  4  2  0
  4 21  1  0
  5 17  2  0
  6  5  1  6
  6  7  1  0
  7  8  1  0
  8  9  1  0
  9 19  1  0
 10 19  1  0
 10  6  1  0
 12 11  1  0
 12 20  1  0
 13 23  2  0
 14 22  2  0
 15 16  2  0
 19 11  1  0
 21 13  1  0
  2  3  1  0
  4 17  1  0
  5 18  1  0
 11 24  2  0
 13 22  1  0
 14 15  1  0
 16 23  1  0
M  END
>  <rmsd>  (1) 
0.239964962

$$$$
