Molport-053-349-738
     RDKit          3D

 16 17  0  0  0  0  0  0  0  0999 V2000
   17.3414   42.4122    8.4079 C   0  0  0  0  0  0  0  0  0  0  0  0
   14.2662   42.7990    6.6262 C   0  0  0  0  0  0  0  0  0  0  0  0
   13.9767   44.2519    4.5792 C   0  0  0  0  0  0  0  0  0  0  0  0
   13.2458   44.5516    3.3321 C   0  0  0  0  0  0  0  0  0  0  0  0
   12.2808   43.7764    2.8392 C   0  0  0  0  0  0  0  0  0  0  0  0
   13.8240   41.9580    7.6285 C   0  0  0  0  0  0  0  0  0  0  0  0
   12.5839   41.3905    7.9147 C   0  0  0  0  0  0  0  0  0  0  0  0
   12.4953   40.5580    9.0463 C   0  0  0  0  0  0  0  0  0  0  0  0
   13.6335   40.3162    9.8519 C   0  0  0  0  0  0  0  0  0  0  0  0
   14.8722   40.9062    9.5318 C   0  0  0  0  0  0  0  0  0  0  0  0
   14.9261   41.7269    8.4043 C   0  0  0  0  0  0  0  0  0  0  0  0
   15.9783   42.3945    7.8916 N   0  0  0  0  0  0  0  0  0  0  0  0
   15.5864   43.0495    6.8034 N   0  0  0  0  0  0  0  0  0  0  0  0
   13.4740   43.3111    5.5445 N   0  0  0  0  0  0  0  0  0  0  0  0
   15.0508   44.8722    4.8028 O   0  0  0  0  0  0  0  0  0  0  0  0
   13.4909   39.1828   11.3818 Br  0  0  0  0  0  0  0  0  0  0  0  0
  1 12  1  0
  2 14  1  0
  2  6  1  0
  3  4  1  0
  7  8  2  0
  9 16  1  0
  9 10  2  0
 11 12  1  0
 11  6  2  0
 12 13  1  0
 14  3  1  0
  2 13  2  0
  3 15  2  0
  4  5  2  0
  6  7  1  0
  8  9  1  0
 10 11  1  0
M  END
>  <rmsd>  (1) 
0.197166309

$$$$
