MolPort-021-802-572 169969321 LN00200517 MCULE-6928555385 PubChem-53398548 ZINC000169969321
     RDKit          3D

 24 25  0  0  0  0  0  0  0  0999 V2000
   13.6496   46.8204    2.9225 C   0  0  0  0  0  0  0  0  0  0  0  0
   13.5589   45.4029    2.3841 C   0  0  0  0  0  0  0  0  0  0  0  0
   12.4861   45.3642    1.3166 C   0  0  0  0  0  0  0  0  0  0  0  0
   14.8817   45.0078    1.7504 C   0  0  0  0  0  0  0  0  0  0  0  0
   13.9681   44.2544    4.5745 C   0  0  0  0  0  0  0  0  0  0  0  0
   14.2493   42.7722    6.6289 C   0  0  0  0  0  0  0  0  0  0  0  0
   15.6107   42.4358    6.5022 C   0  0  0  0  0  0  0  0  0  0  0  0
   15.6609   41.6518    8.7459 C   0  0  0  0  0  0  0  0  0  0  0  0
   14.3054   41.9451    8.9056 C   0  0  0  0  0  0  0  0  0  0  0  0
   13.6016   42.5010    7.8359 C   0  0  0  0  0  0  0  0  0  0  0  0
   11.9207   40.2318   10.5845 C   0  0  0  0  0  0  0  0  0  0  0  0
   10.7448   40.1540   11.5541 C   0  0  0  0  0  0  0  0  0  0  0  0
   11.4739   39.5158    9.3079 C   0  0  0  0  0  0  0  0  0  0  0  0
   13.2728   39.6682   11.1903 C   0  0  0  0  0  0  0  0  0  0  0  0
   13.1314   39.1740   12.6272 C   0  0  0  0  0  0  0  0  0  0  0  0
   13.8660   38.5059   10.3914 C   0  0  0  0  0  0  0  0  0  0  0  0
   13.2031   44.4885    3.4239 O   0  0  0  0  0  0  0  0  0  0  0  0
   15.0403   44.8885    4.7742 O   0  0  0  0  0  0  0  0  0  0  0  0
   12.1323   41.5857   10.2844 O   0  0  0  0  0  0  0  0  0  0  0  0
   14.1984   40.7228   11.1962 O   0  0  0  0  0  0  0  0  0  0  0  0
   13.4863   43.3220    5.5471 N   0  0  0  0  0  0  0  0  0  0  0  0
   16.2761   41.8944    7.5582 N   0  0  0  0  0  0  0  0  0  0  0  0
   16.2626   42.5848    5.3230 F   0  0  0  0  0  0  0  0  0  0  0  0
   13.5840   41.6539   10.2649 B   0  0  0  0  0  0  0  0  0  0  0  0
  1  2  1  0
  2  3  1  0
  2  4  1  0
  2 17  1  0
  5 17  1  0
  5 21  1  0
  7 23  1  0
  7 22  2  0
  8  9  2  0
  9 24  1  0
 10  6  2  0
 11 19  1  0
 11 12  1  0
 11 13  1  0
 11 14  1  0
 14 15  1  0
 14 16  1  0
 14 20  1  0
 21  6  1  0
 24 19  1  0
 24 20  1  0
  5 18  2  0
  6  7  1  0
  8 22  1  0
  9 10  1  0
M  END
>  <rmsd>  (1) 
0.245585889

$$$$
