MolPort-005-052-165 12597774 CSSS00159765715 MCULE-6149057518 PubChem-25386761 ZINC000012597774
     RDKit          3D

 31 35  0  0  0  0  0  0  0  0999 V2000
   15.0622   44.8778    4.8158 O   0  0  0  0  0  0  0  0  0  0  0  0
   10.7579   46.3309    0.4609 O   0  0  0  0  0  0  0  0  0  0  0  0
   12.8155   47.2623    0.7463 O   0  0  0  0  0  0  0  0  0  0  0  0
   13.9220   44.3626    4.6560 C   0  0  0  0  0  0  0  0  0  0  0  0
   14.2114   42.7571    6.6174 C   0  0  0  0  0  0  0  0  0  0  0  0
   15.4787   43.1271    7.0272 C   0  0  0  0  0  0  0  0  0  0  0  0
   15.7197   42.2963    8.1159 C   0  0  0  0  0  0  0  0  0  0  0  0
   12.4318   41.1488    7.3043 C   0  0  0  0  0  0  0  0  0  0  0  0
   11.4891   41.6615    8.4020 C   0  0  0  0  0  0  0  0  0  0  0  0
   11.6920   40.9741    9.7654 C   0  0  0  0  0  0  0  0  0  0  0  0
   12.4583   39.0835   10.9343 C   0  0  0  0  0  0  0  0  0  0  0  0
   13.5202   39.4888   11.9479 C   0  0  0  0  0  0  0  0  0  0  0  0
   14.9177   39.0948   11.4829 C   0  0  0  0  0  0  0  0  0  0  0  0
   14.5746   36.6901   10.9165 C   0  0  0  0  0  0  0  0  0  0  0  0
   15.0842   35.4831   11.3606 C   0  0  0  0  0  0  0  0  0  0  0  0
   15.9737   35.8189   12.3709 C   0  0  0  0  0  0  0  0  0  0  0  0
   12.2116   38.9662    8.6108 C   0  0  0  0  0  0  0  0  0  0  0  0
   12.5487   39.6168    7.2679 C   0  0  0  0  0  0  0  0  0  0  0  0
   13.0481   44.8402    3.5702 C   0  0  0  0  0  0  0  0  0  0  0  0
   13.4826   45.8709    2.7092 C   0  0  0  0  0  0  0  0  0  0  0  0
   12.6171   46.2842    1.7000 C   0  0  0  0  0  0  0  0  0  0  0  0
   11.3909   45.7291    1.5301 C   0  0  0  0  0  0  0  0  0  0  0  0
   11.6409   47.3266   -0.0749 C   0  0  0  0  0  0  0  0  0  0  0  0
   10.9195   44.7111    2.3534 C   0  0  0  0  0  0  0  0  0  0  0  0
   11.7661   44.2668    3.3849 C   0  0  0  0  0  0  0  0  0  0  0  0
   13.4700   43.3146    5.5243 N   0  0  0  0  0  0  0  0  0  0  0  0
   14.6536   41.4945    8.3222 N   0  0  0  0  0  0  0  0  0  0  0  0
   13.7462   41.7780    7.4049 N   0  0  0  0  0  0  0  0  0  0  0  0
   12.6192   39.8404    9.7036 N   0  0  0  0  0  0  0  0  0  0  0  0
   15.1406   37.6655   11.6461 N   0  0  0  0  0  0  0  0  0  0  0  0
   15.9897   37.1564   12.5175 N   0  0  0  0  0  0  0  0  0  0  0  0
  4 26  1  0
  4 19  1  0
  6  7  1  0
  8 28  1  0
  8  9  1  0
  9 10  1  0
 10 29  1  0
 11 29  1  0
 11 12  1  0
 12 13  1  0
 13 30  1  0
 15 16  1  0
 17 29  1  0
 17 18  1  0
 18  8  1  0
 20 21  2  0
 21  3  1  0
 22  2  1  0
 22 24  2  0
 23  2  1  0
 23  3  1  0
 25 19  2  0
 26  5  1  0
 28 27  1  0
 28  5  1  0
 30 14  1  0
 30 31  1  0
  4  1  2  0
  5  6  2  0
  7 27  2  0
 14 15  2  0
 16 31  2  0
 19 20  1  0
 21 22  1  0
 24 25  1  0
M  END
>  <rmsd>  (1) 
0.208044842

$$$$
