MolPort-007-723-529 6818342 CHEMBL1552869 ChemDiv-E157-6111 MCULE-1500953579 PubChem-16017440 ZINC000006818342 ZINC06818342
     RDKit          3D

 26 28  0  0  0  0  0  0  0  0999 V2000
   11.8439   43.3158   14.2513 C   0  0  0  0  0  0  0  0  0  0  0  0
   12.9087   43.1901   13.2221 C   0  0  0  0  0  0  0  0  0  0  0  0
   13.6909   44.2979   12.8876 C   0  0  0  0  0  0  0  0  0  0  0  0
   14.6916   44.1788   11.9201 C   0  0  0  0  0  0  0  0  0  0  0  0
   14.9095   42.9515   11.2877 C   0  0  0  0  0  0  0  0  0  0  0  0
   14.1290   41.8290   11.6112 C   0  0  0  0  0  0  0  0  0  0  0  0
   13.5563   39.3958   11.3208 C   0  0  0  0  0  0  0  0  0  0  0  0
   15.1686   41.4438    8.3720 C   0  0  0  0  0  0  0  0  0  0  0  0
   14.2457   42.7110    6.5717 C   0  0  0  0  0  0  0  0  0  0  0  0
   13.9024   44.3815    4.6921 C   0  0  0  0  0  0  0  0  0  0  0  0
   12.9745   44.9057    3.6468 C   0  0  0  0  0  0  0  0  0  0  0  0
   13.5261   44.6307    2.2375 C   0  0  0  0  0  0  0  0  0  0  0  0
   14.1828   45.8715    1.6372 C   0  0  0  0  0  0  0  0  0  0  0  0
   13.1792   47.0263    1.5150 C   0  0  0  0  0  0  0  0  0  0  0  0
   12.1327   47.0569    2.6386 C   0  0  0  0  0  0  0  0  0  0  0  0
   12.6476   46.3837    3.9076 C   0  0  0  0  0  0  0  0  0  0  0  0
   13.1268   41.9633   12.5881 C   0  0  0  0  0  0  0  0  0  0  0  0
   14.3524   40.5616   10.9601 N   0  0  0  0  0  0  0  0  0  0  0  0
   16.0154   42.3857    7.9015 N   0  0  0  0  0  0  0  0  0  0  0  0
   15.5019   43.0924    6.8967 N   0  0  0  0  0  0  0  0  0  0  0  0
   13.4654   43.3082    5.5320 N   0  0  0  0  0  0  0  0  0  0  0  0
   15.5469   40.3778    9.7097 S   0  0  0  0  0  0  0  0  0  0  0  0
   13.7016   41.4500    7.5439 S   0  0  0  0  0  0  0  0  0  0  0  0
   15.5629   38.9591    9.2118 O   0  0  0  0  0  0  0  0  0  0  0  0
   16.9040   40.7119   10.2636 O   0  0  0  0  0  0  0  0  0  0  0  0
   15.0546   44.8793    4.8224 O   0  0  0  0  0  0  0  0  0  0  0  0
  1  2  1  0
  3  4  2  0
  5  6  2  0
  6 18  1  0
  7 18  1  0
  8 23  1  0
  9 21  1  0
  9 23  1  0
 11 10  1  0
 11 12  1  0
 12 13  1  0
 13 14  1  0
 14 15  1  0
 15 16  1  0
 16 11  1  0
 17  2  2  0
 19 20  1  0
 21 10  1  0
 22 18  1  0
 22  8  1  0
  2  3  1  0
  4  5  1  0
  6 17  1  0
  8 19  2  0
  9 20  2  0
 10 26  2  0
 22 24  2  0
 22 25  2  0
M  END
>  <rmsd>  (1) 
0.205880195

$$$$
