MolPort-046-673-186 MCULE-6479049078 PubChem-146048598
     RDKit          3D

 30 33  0  0  0  0  0  0  0  0999 V2000
   13.5200   39.3701   11.3511 C   0  0  0  0  0  0  0  0  0  0  0  0
   14.3589   39.2706   10.0913 C   0  0  1  0  0  0  0  0  0  0  0  0
   14.5615   37.8431    9.7082 C   0  0  0  0  0  0  0  0  0  0  0  0
   14.3438   41.0101    8.3306 C   0  0  0  0  0  0  0  0  0  0  0  0
   13.6428   41.6488    7.3024 C   0  0  0  0  0  0  0  0  0  0  0  0
   14.2302   42.6902    6.5756 C   0  0  0  0  0  0  0  0  0  0  0  0
   13.8985   44.3881    4.6827 C   0  0  0  0  0  0  0  0  0  0  0  0
   13.3727   45.9333    2.8371 C   0  0  0  0  0  0  0  0  0  0  0  0
   12.2285   46.2622    1.8776 C   0  0  0  0  0  0  0  0  0  0  0  0
   10.9580   46.5808    2.6202 C   0  0  0  0  0  0  0  0  0  0  0  0
    9.9525   45.6817    2.3125 C   0  0  0  0  0  0  0  0  0  0  0  0
    8.6803   45.7769    2.8741 C   0  0  0  0  0  0  0  0  0  0  0  0
    8.4363   46.8260    3.7746 C   0  0  0  0  0  0  0  0  0  0  0  0
    9.4533   47.7486    4.0896 C   0  0  0  0  0  0  0  0  0  0  0  0
   10.7273   47.6318    3.5093 C   0  0  0  0  0  0  0  0  0  0  0  0
   10.4734   44.7255    1.3635 C   0  0  0  0  0  0  0  0  0  0  0  0
   11.7925   45.0488    1.1000 C   0  0  0  0  0  0  0  0  0  0  0  0
   12.5451   44.2948    0.1980 C   0  0  0  0  0  0  0  0  0  0  0  0
   11.9332   43.1960   -0.4279 C   0  0  0  0  0  0  0  0  0  0  0  0
   10.5909   42.8706   -0.1504 C   0  0  0  0  0  0  0  0  0  0  0  0
    9.8438   43.6411    0.7547 C   0  0  0  0  0  0  0  0  0  0  0  0
   15.5375   43.0924    6.8874 C   0  0  0  0  0  0  0  0  0  0  0  0
   16.2456   42.4604    7.9124 C   0  0  0  0  0  0  0  0  0  0  0  0
   15.6515   41.4218    8.6329 C   0  0  0  0  0  0  0  0  0  0  0  0
   15.8441   37.3129    9.6876 O   0  0  0  0  0  0  0  0  0  0  0  0
   13.5796   37.1186    9.3957 O   0  0  0  0  0  0  0  0  0  0  0  0
   13.7212   39.9737    9.0321 O   0  0  0  0  0  0  0  0  0  0  0  0
   13.0188   44.8698    3.7147 O   0  0  0  0  0  0  0  0  0  0  0  0
   15.0481   44.8927    4.8051 O   0  0  0  0  0  0  0  0  0  0  0  0
   13.4719   43.3144    5.5305 N   0  0  0  0  0  0  0  0  0  0  0  0
  2  1  1  1
  2  3  1  0
  2 27  1  0
  3 25  1  0
  4 27  1  0
  5  6  2  0
  6 30  1  0
  7 28  1  0
  8 28  1  0
  8  9  1  0
  9 10  1  0
  9 17  1  0
 10 11  2  0
 11 16  1  0
 12 13  2  0
 14 15  2  0
 17 18  2  0
 19 20  2  0
 21 16  2  0
 22 23  2  0
 24  4  2  0
 30  7  1  0
  3 26  2  0
  4  5  1  0
  6 22  1  0
  7 29  2  0
 11 12  1  0
 13 14  1  0
 15 10  1  0
 16 17  1  0
 18 19  1  0
 20 21  1  0
 23 24  1  0
M  END
>  <rmsd>  (1) 
0.242049977

$$$$
