MolPort-005-135-936 CSSS00159791909 MCULE-2900330182 PubChem-45238205
     RDKit          3D

 33 36  0  0  0  0  0  0  0  0999 V2000
   13.5686   44.8965    1.4314 C   0  0  0  0  0  0  0  0  0  0  0  0
   12.9692   44.7019    3.5559 C   0  0  1  0  0  0  0  0  0  0  0  0
   13.9086   44.3139    4.6605 C   0  0  0  0  0  0  0  0  0  0  0  0
   14.2772   42.8387    6.7063 C   0  0  0  0  0  0  0  0  0  0  0  0
   15.5419   43.2633    7.0683 C   0  0  0  0  0  0  0  0  0  0  0  0
   15.8198   42.5125    8.2059 C   0  0  0  0  0  0  0  0  0  0  0  0
   12.5554   41.2336    7.5321 C   0  0  0  0  0  0  0  0  0  0  0  0
   11.7536   41.5886    8.7752 C   0  0  0  0  0  0  0  0  0  0  0  0
   10.4135   40.8547    8.7749 C   0  0  0  0  0  0  0  0  0  0  0  0
   10.8337   38.6675    9.8482 C   0  0  0  0  0  0  0  0  0  0  0  0
   12.1719   38.9559   10.4612 C   0  0  0  0  0  0  0  0  0  0  0  0
   12.3023   39.9702   11.4152 C   0  0  0  0  0  0  0  0  0  0  0  0
   13.5419   40.2268   12.0074 C   0  0  0  0  0  0  0  0  0  0  0  0
   13.6545   41.3266   13.0052 C   0  0  0  0  0  0  0  0  0  0  0  0
   14.6596   39.4516   11.6584 C   0  0  0  0  0  0  0  0  0  0  0  0
   14.5210   38.4130   10.7235 C   0  0  0  0  0  0  0  0  0  0  0  0
   15.6850   37.5654   10.3430 C   0  0  0  0  0  0  0  0  0  0  0  0
   13.2776   38.1637   10.1365 C   0  0  0  0  0  0  0  0  0  0  0  0
   11.4092   39.0066    7.4679 C   0  0  0  0  0  0  0  0  0  0  0  0
   12.7565   39.7274    7.4581 C   0  0  0  0  0  0  0  0  0  0  0  0
   11.7191   45.3165    4.1066 C   0  0  0  0  0  0  0  0  0  0  0  0
   10.5024   44.6411    3.9616 C   0  0  0  0  0  0  0  0  0  0  0  0
    9.3258   45.1946    4.4754 C   0  0  0  0  0  0  0  0  0  0  0  0
    9.3626   46.4258    5.1367 C   0  0  0  0  0  0  0  0  0  0  0  0
   10.5757   47.1045    5.2846 C   0  0  0  0  0  0  0  0  0  0  0  0
   11.7528   46.5519    4.7711 C   0  0  0  0  0  0  0  0  0  0  0  0
   13.5812   45.5762    2.6505 O   0  0  0  0  0  0  0  0  0  0  0  0
   15.0343   44.8731    4.7631 O   0  0  0  0  0  0  0  0  0  0  0  0
   15.8980   39.7083   12.2402 O   0  0  0  0  0  0  0  0  0  0  0  0
   13.5047   43.3038    5.5923 N   0  0  0  0  0  0  0  0  0  0  0  0
   14.7760   41.7029    8.4847 N   0  0  0  0  0  0  0  0  0  0  0  0
   13.8473   41.9073    7.5675 N   0  0  0  0  0  0  0  0  0  0  0  0
   10.5593   39.4012    8.6018 N   0  0  0  0  0  0  0  0  0  0  0  0
  1 27  1  0
  2 27  1  6
  2  3  1  0
  2 21  1  0
  3 30  1  0
  5  6  1  0
  7 32  1  0
  7  8  1  0
  8  9  1  0
  9 33  1  0
 10 33  1  0
 10 11  1  0
 12 13  2  0
 14 13  1  0
 15 29  1  0
 15 16  2  0
 17 16  1  0
 18 11  2  0
 19 33  1  0
 19 20  1  0
 20  7  1  0
 22 23  2  0
 24 25  2  0
 26 21  2  0
 30  4  1  0
 32 31  1  0
 32  4  1  0
  3 28  2  0
  4  5  2  0
  6 31  2  0
 11 12  1  0
 13 15  1  0
 16 18  1  0
 21 22  1  0
 23 24  1  0
 25 26  1  0
M  END
>  <rmsd>  (1) 
0.220539853

$$$$
