MolPort-009-692-496 9122126 CSSS03437099267 MCULE-7553924893 PubChem-16952521 ZINC000009122126 ZOJMCCVGMPCENN-UHFFFAOYSA-N
     RDKit          3D

 27 30  0  0  0  0  0  0  0  0999 V2000
   12.8566   45.1383    3.9374 C   0  0  0  0  0  0  0  0  0  0  0  0
   13.8529   44.4703    4.7814 C   0  0  0  0  0  0  0  0  0  0  0  0
   14.2569   42.7214    6.5863 C   0  0  0  0  0  0  0  0  0  0  0  0
   14.3103   41.3049    6.6678 C   0  0  0  0  0  0  0  0  0  0  0  0
   15.0366   40.6486    7.6879 C   0  0  0  0  0  0  0  0  0  0  0  0
   15.7049   41.4426    8.6199 C   0  0  0  0  0  0  0  0  0  0  0  0
   15.6251   42.8042    8.5474 C   0  0  0  0  0  0  0  0  0  0  0  0
   16.2605   43.3985    9.5979 C   0  0  0  0  0  0  0  0  0  0  0  0
   16.2254   44.7828    9.7618 C   0  0  0  0  0  0  0  0  0  0  0  0
   15.5171   45.5340    8.7948 C   0  0  0  0  0  0  0  0  0  0  0  0
   14.8568   44.8960    7.7129 C   0  0  0  0  0  0  0  0  0  0  0  0
   14.9125   43.4934    7.5797 C   0  0  0  0  0  0  0  0  0  0  0  0
   16.7920   42.2970   10.3975 C   0  0  0  0  0  0  0  0  0  0  0  0
   16.4843   39.7293   10.3886 C   0  0  0  0  0  0  0  0  0  0  0  0
   15.3766   39.5983   11.4233 C   0  0  0  0  0  0  0  0  0  0  0  0
   14.0283   39.4486   10.7459 C   0  0  0  0  0  0  0  0  0  0  0  0
   12.9438   39.3498   11.7972 C   0  0  0  0  0  0  0  0  0  0  0  0
   13.0957   46.2515    3.1398 C   0  0  0  0  0  0  0  0  0  0  0  0
   11.8586   46.4799    2.5677 C   0  0  0  0  0  0  0  0  0  0  0  0
    9.5732   45.4681    2.6374 C   0  0  0  0  0  0  0  0  0  0  0  0
   11.5467   47.5766    1.6084 C   0  0  0  0  0  0  0  0  0  0  0  0
   15.0418   44.8898    4.8011 O   0  0  0  0  0  0  0  0  0  0  0  0
   17.4072   42.4044   11.4910 O   0  0  0  0  0  0  0  0  0  0  0  0
   13.4776   43.3149    5.5398 N   0  0  0  0  0  0  0  0  0  0  0  0
   16.4604   41.0483    9.7689 N   0  0  0  0  0  0  0  0  0  0  0  0
   10.9757   45.5657    3.0053 N   0  0  0  0  0  0  0  0  0  0  0  0
   11.5721   44.7395    3.8432 N   0  0  0  0  0  0  0  0  0  0  0  0
  1  2  1  0
  1 18  1  0
  2 24  1  0
  4  5  2  0
  6  7  2  0
  8  9  2  0
  8 13  1  0
 10 11  2  0
 12  3  2  0
 12  7  1  0
 13 25  1  0
 14 25  1  0
 14 15  1  0
 15 16  1  0
 16 17  1  0
 19 26  1  0
 20 26  1  0
 21 19  1  0
 24  3  1  0
 25  6  1  0
 26 27  1  0
  1 27  2  0
  2 22  2  0
  3  4  1  0
  5  6  1  0
  7  8  1  0
  9 10  1  0
 11 12  1  0
 13 23  2  0
 18 19  2  0
M  END
>  <rmsd>  (1) 
0.24419263

$$$$
