MolPort-035-706-976 CSSS03437789231 MCULE-8811636795 PubChem-91938301
     RDKit          3D

 26 28  0  0  0  0  0  0  0  0999 V2000
   14.7213   36.3164    6.2423 C   0  0  0  0  0  0  0  0  0  0  0  0
   14.7278   36.2692    7.7554 C   0  0  0  0  0  0  0  0  0  0  0  0
   14.5352   37.8404    9.6417 C   0  0  0  0  0  0  0  0  0  0  0  0
   14.3913   39.2580   10.1249 C   0  0  1  0  0  0  0  0  0  0  0  0
   13.4994   39.2996   11.3576 C   0  0  0  0  0  0  0  0  0  0  0  0
   14.3464   41.0630    8.3728 C   0  0  0  0  0  0  0  0  0  0  0  0
   13.6433   41.6790    7.3333 C   0  0  0  0  0  0  0  0  0  0  0  0
   14.2293   42.7130    6.5946 C   0  0  0  0  0  0  0  0  0  0  0  0
   13.9018   44.3808    4.6728 C   0  0  0  0  0  0  0  0  0  0  0  0
   12.9934   44.8793    3.6339 C   0  0  0  0  0  0  0  0  0  0  0  0
   11.7086   44.4031    3.3932 C   0  0  0  0  0  0  0  0  0  0  0  0
   11.0684   45.0662    2.3368 C   0  0  0  0  0  0  0  0  0  0  0  0
   11.8601   46.0517    1.7653 C   0  0  0  0  0  0  0  0  0  0  0  0
   11.4569   46.9214    0.6299 C   0  0  0  0  0  0  0  0  0  0  0  0
   15.5324   43.1287    6.9097 C   0  0  0  0  0  0  0  0  0  0  0  0
   16.2372   42.5177    7.9504 C   0  0  0  0  0  0  0  0  0  0  0  0
   15.6435   41.4853    8.6801 C   0  0  0  0  0  0  0  0  0  0  0  0
   15.7596   39.7977   10.4909 C   0  0  0  0  0  0  0  0  0  0  0  0
   14.5653   37.5822    8.2693 O   0  0  0  0  0  0  0  0  0  0  0  0
   14.6851   36.8981   10.4694 O   0  0  0  0  0  0  0  0  0  0  0  0
   13.7446   40.0311    9.1010 O   0  0  0  0  0  0  0  0  0  0  0  0
   15.0466   44.8932    4.7957 O   0  0  0  0  0  0  0  0  0  0  0  0
   16.4049   39.2874   11.4460 O   0  0  0  0  0  0  0  0  0  0  0  0
   13.4746   43.3165    5.5351 N   0  0  0  0  0  0  0  0  0  0  0  0
   16.3479   40.8665    9.7498 N   0  0  0  0  0  0  0  0  0  0  0  0
   13.3432   46.1163    2.5480 S   0  0  0  0  0  0  0  0  0  0  0  0
  1  2  1  0
  2 19  1  0
  3 19  1  0
  4  3  1  0
  4  5  1  1
  4 21  1  0
  4 18  1  0
  6 21  1  0
  7  8  2  0
  8 24  1  0
  9 10  1  0
 10 26  1  0
 11 12  1  0
 13 26  1  0
 14 13  1  0
 15 16  2  0
 17 25  1  0
 17  6  2  0
 24  9  1  0
 25 18  1  0
  3 20  2  0
  6  7  1  0
  8 15  1  0
  9 22  2  0
 10 11  2  0
 12 13  2  0
 16 17  1  0
 18 23  2  0
M  END
>  <rmsd>  (1) 
0.232415751

$$$$
