Molport-020-275-222 MCULE-6160990549 PubChem-110252899
     RDKit          3D

 28 31  0  0  0  0  0  0  0  0999 V2000
   16.7823   46.5352    4.0343 C   0  0  0  0  0  0  0  0  0  0  0  0
   15.4391   45.9131    3.9061 C   0  0  0  0  0  0  0  0  0  0  0  0
   13.8434   44.3241    4.6761 C   0  0  0  0  0  0  0  0  0  0  0  0
   12.9405   44.7340    3.6913 C   0  0  0  0  0  0  0  0  0  0  0  0
   13.3040   45.7503    2.8060 C   0  0  0  0  0  0  0  0  0  0  0  0
   14.5613   46.3467    2.9107 C   0  0  0  0  0  0  0  0  0  0  0  0
   14.2365   42.7225    6.6491 C   0  0  0  0  0  0  0  0  0  0  0  0
   14.3886   41.1619    8.4328 C   0  0  0  0  0  0  0  0  0  0  0  0
   15.6833   41.6138    8.7170 C   0  0  0  0  0  0  0  0  0  0  0  0
   15.5319   43.1692    6.9399 C   0  0  0  0  0  0  0  0  0  0  0  0
   13.7508   40.0709    9.2320 C   0  0  2  0  0  0  0  0  0  0  0  0
   13.6061   40.4753   10.7007 C   0  0  0  0  0  0  0  0  0  0  0  0
   12.9346   39.3574   11.4948 C   0  0  0  0  0  0  0  0  0  0  0  0
   13.7402   38.0674   11.3690 C   0  0  0  0  0  0  0  0  0  0  0  0
   14.5408   38.7676    9.1085 C   0  0  0  0  0  0  0  0  0  0  0  0
   13.3963   36.5476    9.3646 C   0  0  0  0  0  0  0  0  0  0  0  0
   13.1314   35.3219   10.1548 C   0  0  0  0  0  0  0  0  0  0  0  0
   12.2993   34.3213    9.6285 C   0  0  0  0  0  0  0  0  0  0  0  0
   12.0584   33.1464   10.3466 C   0  0  0  0  0  0  0  0  0  0  0  0
   12.6539   32.9570   11.5959 C   0  0  0  0  0  0  0  0  0  0  0  0
   13.4926   33.9407   12.1251 C   0  0  0  0  0  0  0  0  0  0  0  0
   13.7327   35.1151   11.4058 C   0  0  0  0  0  0  0  0  0  0  0  0
   15.0656   44.9213    4.7589 N   0  0  0  0  0  0  0  0  0  0  0  0
   13.4590   43.2793    5.5797 N   0  0  0  0  0  0  0  0  0  0  0  0
   13.7004   41.7284    7.4064 N   0  0  0  0  0  0  0  0  0  0  0  0
   16.2245   42.6065    7.9644 N   0  0  0  0  0  0  0  0  0  0  0  0
   13.9337   37.7450    9.9565 N   0  0  0  0  0  0  0  0  0  0  0  0
   13.1481   36.5350    8.1273 O   0  0  0  0  0  0  0  0  0  0  0  0
  1  2  1  0
  3 23  2  0
  3 24  1  0
  4  5  2  0
  6  2  2  0
  8 25  2  0
  9 26  2  0
 10  7  2  0
 11  8  1  6
 11 12  1  0
 12 13  1  0
 13 14  1  0
 14 27  1  0
 15 27  1  0
 15 11  1  0
 16 17  1  0
 18 19  2  0
 20 21  2  0
 22 17  2  0
 24  7  1  0
 27 16  1  0
  2 23  1  0
  3  4  1  0
  5  6  1  0
  7 25  1  0
  8  9  1  0
 10 26  1  0
 16 28  2  0
 17 18  1  0
 19 20  1  0
 21 22  1  0
M  END
>  <rmsd>  (1) 
0.241090015

$$$$
