Molport-020-284-131 MCULE-4152218137 PubChem-110258992
     RDKit          3D

 25 28  0  0  0  0  0  0  0  0999 V2000
   13.0291   39.3664   11.5606 C   0  0  0  0  0  0  0  0  0  0  0  0
   13.6657   40.4869   10.7404 C   0  0  0  0  0  0  0  0  0  0  0  0
   13.8017   40.0648    9.2748 C   0  0  2  0  0  0  0  0  0  0  0  0
   14.6237   38.7806    9.1622 C   0  0  0  0  0  0  0  0  0  0  0  0
   13.8609   38.0918   11.4454 C   0  0  0  0  0  0  0  0  0  0  0  0
   13.6482   36.4861    9.5156 C   0  0  0  0  0  0  0  0  0  0  0  0
   12.7089   34.3399    9.8647 C   0  0  0  0  0  0  0  0  0  0  0  0
   12.8705   34.0361    8.5144 C   0  0  0  0  0  0  0  0  0  0  0  0
   13.4349   35.0011    7.6827 C   0  0  0  0  0  0  0  0  0  0  0  0
   14.4029   41.1598    8.4525 C   0  0  0  0  0  0  0  0  0  0  0  0
   13.6623   41.7087    7.4032 C   0  0  0  0  0  0  0  0  0  0  0  0
   14.2142   42.7316    6.6279 C   0  0  0  0  0  0  0  0  0  0  0  0
   16.2116   42.6662    7.9189 C   0  0  0  0  0  0  0  0  0  0  0  0
   15.6917   41.6435    8.7135 C   0  0  0  0  0  0  0  0  0  0  0  0
   13.8521   44.3313    4.6662 C   0  0  0  0  0  0  0  0  0  0  0  0
   13.3478   45.7361    2.8299 C   0  0  0  0  0  0  0  0  0  0  0  0
   14.5983   46.3423    2.9336 C   0  0  0  0  0  0  0  0  0  0  0  0
   15.4626   45.9059    3.9358 C   0  0  0  0  0  0  0  0  0  0  0  0
   14.0515   37.7605   10.0359 N   0  0  0  0  0  0  0  0  0  0  0  0
   13.0979   35.5517   10.3396 N   0  0  0  0  0  0  0  0  0  0  0  0
   13.8118   36.2019    8.1938 N   0  0  0  0  0  0  0  0  0  0  0  0
   15.4700   43.1837    6.9032 N   0  0  0  0  0  0  0  0  0  0  0  0
   13.4426   43.2848    5.5550 N   0  0  0  0  0  0  0  0  0  0  0  0
   12.9985   44.7467    3.6931 N   0  0  0  0  0  0  0  0  0  0  0  0
   15.0772   44.9139    4.7801 N   0  0  0  0  0  0  0  0  0  0  0  0
  1  2  1  0
  2  3  1  0
  3  4  1  0
  3 10  1  6
  4 19  1  0
  5 19  1  0
  5  1  1  0
  6 21  2  0
  7 20  2  0
  8  9  2  0
 11 12  2  0
 12 23  1  0
 13 22  2  0
 14 10  2  0
 15 25  2  0
 16 24  2  0
 17 18  2  0
 19  6  1  0
 23 15  1  0
  6 20  1  0
  7  8  1  0
  9 21  1  0
 10 11  1  0
 12 22  1  0
 13 14  1  0
 15 24  1  0
 16 17  1  0
 18 25  1  0
M  END
>  <rmsd>  (1) 
0.24289453

$$$$
