MolPort-000-122-710 5059970 MCULE-4388863312 PubChem-6492870 ZINC000005059970 ZINC05059970
     RDKit          3D

 26 28  0  0  0  0  0  0  0  0999 V2000
   17.5227   41.9951    4.9469 C   0  0  0  0  0  0  0  0  0  0  0  0
   15.5707   42.3201    6.4382 C   0  0  0  0  0  0  0  0  0  0  0  0
   16.2554   41.7624    7.5294 C   0  0  0  0  0  0  0  0  0  0  0  0
   15.6151   41.5921    8.7567 C   0  0  0  0  0  0  0  0  0  0  0  0
   14.2747   41.9653    8.9153 C   0  0  0  0  0  0  0  0  0  0  0  0
   13.5945   42.5373    7.8331 C   0  0  0  0  0  0  0  0  0  0  0  0
   14.2346   42.7433    6.6063 C   0  0  0  0  0  0  0  0  0  0  0  0
   13.9662   44.2745    4.5903 C   0  0  0  0  0  0  0  0  0  0  0  0
   13.1588   44.5919    3.3841 C   0  0  0  0  0  0  0  0  0  0  0  0
   13.5745   41.7294   10.1936 C   0  0  0  0  0  0  0  0  0  0  0  0
   14.2133   40.9222   11.2798 C   0  0  0  0  0  0  0  0  0  0  0  0
   14.2600   38.7209    9.8162 C   0  0  0  0  0  0  0  0  0  0  0  0
   16.1456   37.9600    8.6226 C   0  0  0  0  0  0  0  0  0  0  0  0
   15.4106   38.0619    7.4280 C   0  0  0  0  0  0  0  0  0  0  0  0
   15.9918   37.6511    6.1051 C   0  0  0  0  0  0  0  0  0  0  0  0
   17.5183   37.6560    6.1253 C   0  0  0  0  0  0  0  0  0  0  0  0
   18.0170   36.8780    7.3357 C   0  0  0  0  0  0  0  0  0  0  0  0
   17.6041   37.5967    8.6184 C   0  0  0  0  0  0  0  0  0  0  0  0
   16.1900   42.4263    5.1875 O   0  0  0  0  0  0  0  0  0  0  0  0
   15.0478   44.8876    4.7920 O   0  0  0  0  0  0  0  0  0  0  0  0
   12.4106   42.1791   10.3714 O   0  0  0  0  0  0  0  0  0  0  0  0
   13.4751   43.3191    5.5354 N   0  0  0  0  0  0  0  0  0  0  0  0
   15.5529   38.3095    9.7922 N   0  0  0  0  0  0  0  0  0  0  0  0
   14.1141   38.4567    7.4947 N   0  0  0  0  0  0  0  0  0  0  0  0
   13.5521   38.7836    8.6587 N   0  0  0  0  0  0  0  0  0  0  0  0
   13.5078   39.2405   11.3546 S   0  0  0  0  0  0  0  0  0  0  0  0
  1 19  1  0
  2 19  1  0
  3  4  2  0
  5  6  2  0
  5 10  1  0
  7 22  1  0
  7  2  2  0
  9  8  1  0
 11 10  1  0
 11 26  1  0
 12 26  1  0
 12 25  2  0
 13 23  2  0
 14 24  2  0
 15 14  1  0
 15 16  1  0
 16 17  1  0
 17 18  1  0
 18 13  1  0
 22  8  1  0
  2  3  1  0
  4  5  1  0
  6  7  1  0
  8 20  2  0
 10 21  2  0
 12 23  1  0
 13 14  1  0
 24 25  1  0
M  END
>  <rmsd>  (1) 
0.233837798

$$$$
