MolPort-005-298-839 11738152 CSSS00106918672 MCULE-1333047284 MDLJOFDWBZDZNH-UHFFFAOYSA-N PubChem-42138555 ZINC000011738152 ZINC11738152
     RDKit          3D

 29 32  0  0  0  0  0  0  0  0999 V2000
    9.4877   45.9554    0.8979 C   0  0  0  0  0  0  0  0  0  0  0  0
    9.8567   44.9926    2.0175 C   0  0  0  0  0  0  0  0  0  0  0  0
   12.1084   46.1205    2.0809 C   0  0  0  0  0  0  0  0  0  0  0  0
   13.2715   45.9802    2.8204 C   0  0  0  0  0  0  0  0  0  0  0  0
   12.9844   44.9395    3.6883 C   0  0  0  0  0  0  0  0  0  0  0  0
   13.8979   44.3936    4.6981 C   0  0  0  0  0  0  0  0  0  0  0  0
   14.2518   42.6985    6.5549 C   0  0  0  0  0  0  0  0  0  0  0  0
   16.0267   42.3307    7.8914 C   0  0  0  0  0  0  0  0  0  0  0  0
   15.1559   41.3398    8.3824 C   0  0  0  0  0  0  0  0  0  0  0  0
   15.4618   40.2740    9.3597 C   0  0  0  0  0  0  0  0  0  0  0  0
   14.4756   39.8332   10.3713 C   0  0  0  0  0  0  0  0  0  0  0  0
   13.3048   40.5695   10.6121 C   0  0  0  0  0  0  0  0  0  0  0  0
   12.3907   40.1526   11.5837 C   0  0  0  0  0  0  0  0  0  0  0  0
   12.6413   38.9973   12.3282 C   0  0  0  0  0  0  0  0  0  0  0  0
   13.8067   38.2607   12.1025 C   0  0  0  0  0  0  0  0  0  0  0  0
   14.7204   38.6784   11.1304 C   0  0  0  0  0  0  0  0  0  0  0  0
   17.3753   42.6300    8.4221 C   0  0  0  0  0  0  0  0  0  0  0  0
   17.7164   42.3482    9.7539 C   0  0  0  0  0  0  0  0  0  0  0  0
   18.9825   42.6754   10.2473 C   0  0  0  0  0  0  0  0  0  0  0  0
   19.9162   43.2988    9.4157 C   0  0  0  0  0  0  0  0  0  0  0  0
   19.5818   43.5985    8.0929 C   0  0  0  0  0  0  0  0  0  0  0  0
   18.3152   43.2703    7.6006 C   0  0  0  0  0  0  0  0  0  0  0  0
   11.2153   45.2052    2.5125 N   0  0  0  0  0  0  0  0  0  0  0  0
   11.7364   44.4841    3.4872 N   0  0  0  0  0  0  0  0  0  0  0  0
   13.4653   43.3094    5.5280 N   0  0  0  0  0  0  0  0  0  0  0  0
   15.5074   43.0760    6.8754 N   0  0  0  0  0  0  0  0  0  0  0  0
   15.0530   44.8821    4.8270 O   0  0  0  0  0  0  0  0  0  0  0  0
   16.5873   39.7073    9.3091 O   0  0  0  0  0  0  0  0  0  0  0  0
   13.7194   41.4236    7.5013 S   0  0  0  0  0  0  0  0  0  0  0  0
  1  2  1  0
  2 23  1  0
  4  5  1  0
  5  6  1  0
  6 25  1  0
  7 29  1  0
  8 26  1  0
  8 17  1  0
  9 29  1  0
  9 10  1  0
 10 11  1  0
 12 13  2  0
 14 15  2  0
 16 11  2  0
 18 19  2  0
 20 21  2  0
 22 17  2  0
 23  3  1  0
 23 24  1  0
 25  7  1  0
  3  4  2  0
  5 24  2  0
  6 27  2  0
  7 26  2  0
  8  9  2  0
 10 28  2  0
 11 12  1  0
 13 14  1  0
 15 16  1  0
 17 18  1  0
 19 20  1  0
 21 22  1  0
M  END
>  <rmsd>  (1) 
0.214565337

$$$$
