MolPort-002-019-554 13494384 CSSS00132527814 ChemDiv-Y031-1521 LN00990541 MCULE-9513418977 PubChem-3160787 ZINC000013494384
     RDKit          3D

 30 32  0  0  0  0  0  0  0  0999 V2000
   12.9989   44.8254    3.5882 C   0  0  0  0  0  0  0  0  0  0  0  0
   12.0163   44.0793    2.9621 C   0  0  0  0  0  0  0  0  0  0  0  0
   11.6024   42.6840    3.2797 C   0  0  0  0  0  0  0  0  0  0  0  0
   12.9875   46.0315    2.8897 C   0  0  0  0  0  0  0  0  0  0  0  0
   13.7726   47.2554    3.1487 C   0  0  0  0  0  0  0  0  0  0  0  0
   13.9951   48.1659    2.1054 C   0  0  0  0  0  0  0  0  0  0  0  0
   14.6976   49.3524    2.3371 C   0  0  0  0  0  0  0  0  0  0  0  0
   15.1721   49.6442    3.6184 C   0  0  0  0  0  0  0  0  0  0  0  0
   14.9401   48.7518    4.6681 C   0  0  0  0  0  0  0  0  0  0  0  0
   14.2383   47.5655    4.4346 C   0  0  0  0  0  0  0  0  0  0  0  0
   13.9019   44.3715    4.6647 C   0  0  0  0  0  0  0  0  0  0  0  0
   14.2112   42.7745    6.6498 C   0  0  0  0  0  0  0  0  0  0  0  0
   15.4696   43.2687    7.0254 C   0  0  0  0  0  0  0  0  0  0  0  0
   16.1485   42.7169    8.1155 C   0  0  0  0  0  0  0  0  0  0  0  0
   15.5755   41.6675    8.8414 C   0  0  0  0  0  0  0  0  0  0  0  0
   14.3226   41.1708    8.4675 C   0  0  0  0  0  0  0  0  0  0  0  0
   13.6438   41.7235    7.3781 C   0  0  0  0  0  0  0  0  0  0  0  0
   14.7546   39.1467   10.9464 C   0  0  0  0  0  0  0  0  0  0  0  0
   13.4759   38.8298   11.7033 C   0  0  0  0  0  0  0  0  0  0  0  0
   12.3058   39.6319   11.1552 C   0  0  0  0  0  0  0  0  0  0  0  0
   11.4765   41.6369   10.7546 C   0  0  0  0  0  0  0  0  0  0  0  0
   11.4963   44.7905    1.9919 O   0  0  0  0  0  0  0  0  0  0  0  0
   15.0476   44.8816    4.7819 O   0  0  0  0  0  0  0  0  0  0  0  0
   12.4117   40.9682   11.5431 O   0  0  0  0  0  0  0  0  0  0  0  0
   17.3062   39.8457    9.7442 O   0  0  0  0  0  0  0  0  0  0  0  0
   17.2912   42.0370   10.8390 O   0  0  0  0  0  0  0  0  0  0  0  0
   12.0531   45.9640    1.9183 N   0  0  0  0  0  0  0  0  0  0  0  0
   13.4797   43.3191    5.5433 N   0  0  0  0  0  0  0  0  0  0  0  0
   15.3040   40.4142   11.4020 N   0  0  0  0  0  0  0  0  0  0  0  0
   16.4315   40.9762   10.2114 S   0  0  0  0  0  0  0  0  0  0  0  0
  1 11  1  0
  2 22  1  0
  3  2  1  0
  4  5  1  0
  4  1  1  0
  6  7  2  0
  8  9  2  0
 10  5  2  0
 11 28  1  0
 13 14  2  0
 15 16  2  0
 17 12  2  0
 18 29  1  0
 18 19  1  0
 19 20  1  0
 20 24  1  0
 21 24  1  0
 22 27  1  0
 28 12  1  0
 30 15  1  0
 30 29  1  0
  1  2  2  0
  4 27  2  0
  5  6  1  0
  7  8  1  0
  9 10  1  0
 11 23  2  0
 12 13  1  0
 14 15  1  0
 16 17  1  0
 30 25  2  0
 30 26  2  0
M  END
>  <rmsd>  (1) 
0.244011253

$$$$
