MolPort-002-191-102 2969362 CHEMBL1529339 CSSS00104853224 ChemDiv-8010-5151 MCULE-9329842742 PubChem-2274746 ZINC000002969362 ZINC02969362
     RDKit          3D

 22 23  0  0  0  0  0  0  0  0999 V2000
   11.2300   39.5582   10.8193 C   0  0  0  0  0  0  0  0  0  0  0  0
   12.3355   38.8565   11.5849 C   0  0  0  0  0  0  0  0  0  0  0  0
   13.6052   39.6926   11.5774 C   0  0  0  0  0  0  0  0  0  0  0  0
   14.3966   39.4800   10.2963 C   0  0  0  0  0  0  0  0  0  0  0  0
   14.3714   41.1382    8.4592 C   0  0  0  0  0  0  0  0  0  0  0  0
   15.6763   41.5716    8.7423 C   0  0  0  0  0  0  0  0  0  0  0  0
   16.2634   42.5813    7.9764 C   0  0  0  0  0  0  0  0  0  0  0  0
   15.5508   43.1628    6.9249 C   0  0  0  0  0  0  0  0  0  0  0  0
   14.2459   42.7389    6.6324 C   0  0  0  0  0  0  0  0  0  0  0  0
   13.9044   44.3540    4.6717 C   0  0  0  0  0  0  0  0  0  0  0  0
   12.9894   44.8010    3.5855 C   0  0  0  0  0  0  0  0  0  0  0  0
   14.4651   44.2378    1.4880 C   0  0  0  0  0  0  0  0  0  0  0  0
   15.8083   45.3808    0.3045 C   0  0  0  0  0  0  0  0  0  0  0  0
   13.3946   45.9746    0.0177 C   0  0  0  0  0  0  0  0  0  0  0  0
   13.6658   41.7266    7.4044 C   0  0  0  0  0  0  0  0  0  0  0  0
   13.7550   40.1311    9.2066 O   0  0  0  0  0  0  0  0  0  0  0  0
   15.0394   44.8889    4.7810 O   0  0  0  0  0  0  0  0  0  0  0  0
   13.4843   43.3103    5.5600 N   0  0  0  0  0  0  0  0  0  0  0  0
   15.6999   43.7872    1.7655 N   0  0  0  0  0  0  0  0  0  0  0  0
   16.5372   44.5029    1.0265 N   0  0  0  0  0  0  0  0  0  0  0  0
   14.5036   45.2261    0.5819 N   0  0  0  0  0  0  0  0  0  0  0  0
   12.9709   43.5845    2.2328 S   0  0  0  0  0  0  0  0  0  0  0  0
  1  2  1  0
  2  3  1  0
  3  4  1  0
  4 16  1  0
  5 16  1  0
  6  7  2  0
  8  9  2  0
  9 18  1  0
 11 10  1  0
 11 22  1  0
 12 22  1  0
 13 21  1  0
 14 21  1  0
 15  5  2  0
 18 10  1  0
 19 20  1  0
 21 12  1  0
  5  6  1  0
  7  8  1  0
  9 15  1  0
 10 17  2  0
 12 19  2  0
 13 20  2  0
M  END
>  <rmsd>  (1) 
0.245074734

$$$$
