MolPort-035-371-715 CSC046631183 CSSS00046631183 MCULE-4973238890 PubChem-77082363
     RDKit          3D

 23 25  0  0  0  0  0  0  0  0999 V2000
   12.9394   44.8799    3.6649 C   0  0  0  0  0  0  0  0  0  0  0  0
   13.8908   44.3783    4.6900 C   0  0  0  0  0  0  0  0  0  0  0  0
   14.2716   42.7083    6.5967 C   0  0  0  0  0  0  0  0  0  0  0  0
   13.7083   41.6715    7.3489 C   0  0  0  0  0  0  0  0  0  0  0  0
   14.4413   41.0587    8.3691 C   0  0  0  0  0  0  0  0  0  0  0  0
   15.7474   41.4767    8.6418 C   0  0  0  0  0  0  0  0  0  0  0  0
   16.5192   40.8410    9.7460 C   0  0  0  0  0  0  0  0  0  0  0  0
   17.7039   41.8919   11.4610 C   0  0  0  0  0  0  0  0  0  0  0  0
   18.0607   40.8803   12.5447 C   0  0  0  0  0  0  0  0  0  0  0  0
   16.8306   40.0302   12.7445 C   0  0  0  0  0  0  0  0  0  0  0  0
   15.7455   40.8153   12.0480 C   0  0  2  0  0  0  0  0  0  0  0  0
   14.5312   40.0137   11.6603 C   0  0  0  0  0  0  0  0  0  0  0  0
   13.2622   40.5207   11.9606 C   0  0  0  0  0  0  0  0  0  0  0  0
   12.1155   39.7999   11.6137 C   0  0  0  0  0  0  0  0  0  0  0  0
   12.2337   38.5659   10.9681 C   0  0  0  0  0  0  0  0  0  0  0  0
   13.4984   38.0492   10.6733 C   0  0  0  0  0  0  0  0  0  0  0  0
   14.6451   38.7694   11.0197 C   0  0  0  0  0  0  0  0  0  0  0  0
   16.3147   42.5169    7.8997 C   0  0  0  0  0  0  0  0  0  0  0  0
   15.5806   43.1286    6.8797 C   0  0  0  0  0  0  0  0  0  0  0  0
   15.0341   44.8986    4.7780 O   0  0  0  0  0  0  0  0  0  0  0  0
   13.4879   43.3116    5.5582 N   0  0  0  0  0  0  0  0  0  0  0  0
   16.3551   41.6136   10.9772 N   0  0  0  0  0  0  0  0  0  0  0  0
   11.1223   37.8686   10.6316 F   0  0  0  0  0  0  0  0  0  0  0  0
  1  2  1  0
  2 21  1  0
  4  5  2  0
  6 18  2  0
  7  6  1  0
  7 22  1  0
  8 22  1  0
  8  9  1  0
  9 10  1  0
 10 11  1  0
 11 12  1  6
 11 22  1  0
 13 14  2  0
 15 23  1  0
 15 16  2  0
 17 12  2  0
 19  3  2  0
 21  3  1  0
  2 20  2  0
  3  4  1  0
  5  6  1  0
 12 13  1  0
 14 15  1  0
 16 17  1  0
 18 19  1  0
M  END
>  <rmsd>  (1) 
0.232722327

$$$$
