MolPort-007-723-454 CHEMBL1438645 ChemDiv-E157-5493 MCULE-7289933255 PubChem-22518014
     RDKit          3D

 28 30  0  0  0  0  0  0  0  0999 V2000
   13.5508   44.6969    2.2547 C   0  0  0  0  0  0  0  0  0  0  0  0
   12.9713   44.8877    3.6434 C   0  0  1  0  0  0  0  0  0  0  0  0
   11.4551   46.7272    4.3067 C   0  0  0  0  0  0  0  0  0  0  0  0
   11.2743   48.0995    4.5091 C   0  0  0  0  0  0  0  0  0  0  0  0
   10.0406   48.5919    4.9455 C   0  0  0  0  0  0  0  0  0  0  0  0
    8.9802   47.7125    5.1825 C   0  0  0  0  0  0  0  0  0  0  0  0
    9.1531   46.3402    4.9838 C   0  0  0  0  0  0  0  0  0  0  0  0
   10.3862   45.8476    4.5472 C   0  0  0  0  0  0  0  0  0  0  0  0
   13.9048   44.3699    4.6851 C   0  0  0  0  0  0  0  0  0  0  0  0
   14.2469   42.7341    6.5948 C   0  0  0  0  0  0  0  0  0  0  0  0
   15.1617   41.5102    8.4287 C   0  0  0  0  0  0  0  0  0  0  0  0
   13.5327   39.3479   11.2883 C   0  0  0  0  0  0  0  0  0  0  0  0
   13.8939   41.8201   11.5893 C   0  0  0  0  0  0  0  0  0  0  0  0
   12.8147   41.8841   12.4875 C   0  0  0  0  0  0  0  0  0  0  0  0
   12.4614   43.0937   13.0924 C   0  0  0  0  0  0  0  0  0  0  0  0
   13.1837   44.2545   12.8069 C   0  0  0  0  0  0  0  0  0  0  0  0
   14.2591   44.2057   11.9173 C   0  0  0  0  0  0  0  0  0  0  0  0
   14.6116   42.9958   11.3130 C   0  0  0  0  0  0  0  0  0  0  0  0
   12.7003   46.2654    3.8706 O   0  0  0  0  0  0  0  0  0  0  0  0
   15.0524   44.8770    4.8132 O   0  0  0  0  0  0  0  0  0  0  0  0
   16.8249   40.9110   10.4283 O   0  0  0  0  0  0  0  0  0  0  0  0
   15.6863   39.0623    9.3034 O   0  0  0  0  0  0  0  0  0  0  0  0
   13.4699   43.3082    5.5399 N   0  0  0  0  0  0  0  0  0  0  0  0
   15.5001   43.1245    6.9172 N   0  0  0  0  0  0  0  0  0  0  0  0
   16.0090   42.4424    7.9412 N   0  0  0  0  0  0  0  0  0  0  0  0
   14.2546   40.5710   10.9650 N   0  0  0  0  0  0  0  0  0  0  0  0
   13.7004   41.4940    7.5918 S   0  0  0  0  0  0  0  0  0  0  0  0
   15.5346   40.4759    9.7921 S   0  0  0  0  0  0  0  0  0  0  0  0
  2  1  1  6
  2 19  1  0
  2  9  1  0
  3 19  1  0
  4  5  2  0
  6  7  2  0
  8  3  2  0
  9 23  1  0
 10 27  1  0
 11 27  1  0
 12 26  1  0
 14 15  2  0
 16 17  2  0
 18 13  2  0
 23 10  1  0
 24 25  1  0
 26 13  1  0
 28 11  1  0
 28 26  1  0
  3  4  1  0
  5  6  1  0
  7  8  1  0
  9 20  2  0
 10 24  2  0
 11 25  2  0
 13 14  1  0
 15 16  1  0
 17 18  1  0
 28 21  2  0
 28 22  2  0
M  END
>  <rmsd>  (1) 
0.193757236

$$$$
