MolPort-002-552-480 CSSS00121638413 LN00488255 MCULE-8958344395 PubChem-3453859
     RDKit          3D

 25 28  0  0  0  0  0  0  0  0999 V2000
   16.1124   39.6294   10.3923 C   0  0  2  0  0  0  0  0  0  0  0  0
   18.1333   40.8493   11.6045 C   0  0  0  0  0  0  0  0  0  0  0  0
   17.4163   41.6397   10.5820 C   0  0  0  0  0  0  0  0  0  0  0  0
   15.6294   41.5910    8.7869 C   0  0  0  0  0  0  0  0  0  0  0  0
   14.3350   41.1605    8.4556 C   0  0  0  0  0  0  0  0  0  0  0  0
   13.6393   41.7355    7.3895 C   0  0  0  0  0  0  0  0  0  0  0  0
   14.2245   42.7517    6.6299 C   0  0  0  0  0  0  0  0  0  0  0  0
   15.5183   43.1854    6.9495 C   0  0  0  0  0  0  0  0  0  0  0  0
   16.2128   42.6093    8.0160 C   0  0  0  0  0  0  0  0  0  0  0  0
   13.9110   44.3606    4.6596 C   0  0  0  0  0  0  0  0  0  0  0  0
   12.9990   44.8241    3.5821 C   0  0  0  0  0  0  0  0  0  0  0  0
   14.7532   39.4745   10.9905 C   0  0  0  0  0  0  0  0  0  0  0  0
   14.1838   40.1761   12.0548 C   0  0  0  0  0  0  0  0  0  0  0  0
   12.8725   39.8522   12.4379 C   0  0  0  0  0  0  0  0  0  0  0  0
   12.1588   38.8459   11.7590 C   0  0  0  0  0  0  0  0  0  0  0  0
   12.7487   38.1526   10.6896 C   0  0  0  0  0  0  0  0  0  0  0  0
   14.0520   38.4868   10.3268 C   0  0  0  0  0  0  0  0  0  0  0  0
   16.0324   38.6021    9.2975 C   0  0  0  0  0  0  0  0  0  0  0  0
   17.4067   39.1809   11.6066 S   0  0  0  0  0  0  0  0  0  0  0  0
   17.7165   42.8450   10.3732 O   0  0  0  0  0  0  0  0  0  0  0  0
   15.0468   44.8913    4.7776 O   0  0  0  0  0  0  0  0  0  0  0  0
   16.9630   38.3669    8.4827 O   0  0  0  0  0  0  0  0  0  0  0  0
   16.3564   40.9844    9.8849 N   0  0  0  0  0  0  0  0  0  0  0  0
   13.4795   43.3181    5.5433 N   0  0  0  0  0  0  0  0  0  0  0  0
   14.7883   37.9033    9.2627 N   0  0  0  0  0  0  0  0  0  0  0  0
  1 19  1  1
  1 12  1  0
  1 23  1  0
  1 18  1  0
  2 19  1  0
  2  3  1  0
  3 23  1  0
  5  6  2  0
  7  8  2  0
  7 24  1  0
  9  4  2  0
 11 10  1  0
 13 14  2  0
 15 16  2  0
 17 25  1  0
 17 12  2  0
 23  4  1  0
 24 10  1  0
 25 18  1  0
  3 20  2  0
  4  5  1  0
  6  7  1  0
  8  9  1  0
 10 21  2  0
 12 13  1  0
 14 15  1  0
 16 17  1  0
 18 22  2  0
M  END
>  <rmsd>  (1) 
0.239984989

$$$$
