MolPort-002-117-240 1194452 CSSS00160388997 MCULE-4255255336 PubChem-1354541 ZINC000001194452
     RDKit          3D

 25 27  0  0  0  0  0  0  0  0999 V2000
   13.0260   39.4861   11.8206 C   0  0  0  0  0  0  0  0  0  0  0  0
   13.2982   38.8021   10.4935 C   0  0  0  0  0  0  0  0  0  0  0  0
   14.7437   40.4934    9.3845 C   0  0  0  0  0  0  0  0  0  0  0  0
   14.8887   41.4730    8.3972 C   0  0  0  0  0  0  0  0  0  0  0  0
   14.3582   42.7824    6.6637 C   0  0  0  0  0  0  0  0  0  0  0  0
   13.8756   44.3397    4.6873 C   0  0  0  0  0  0  0  0  0  0  0  0
   12.8990   44.7606    3.6673 C   0  0  0  0  0  0  0  0  0  0  0  0
   13.2216   45.7710    2.7502 C   0  0  0  0  0  0  0  0  0  0  0  0
   12.3004   46.1754    1.7799 C   0  0  0  0  0  0  0  0  0  0  0  0
   11.7865   47.6576   -0.1322 C   0  0  0  0  0  0  0  0  0  0  0  0
   11.0404   45.5599    1.7282 C   0  0  0  0  0  0  0  0  0  0  0  0
   10.7038   44.5474    2.6396 C   0  0  0  0  0  0  0  0  0  0  0  0
    8.4496   44.2549    1.6645 C   0  0  0  0  0  0  0  0  0  0  0  0
   11.6367   44.1547    3.6036 C   0  0  0  0  0  0  0  0  0  0  0  0
   16.0696   42.1931    8.2901 C   0  0  0  0  0  0  0  0  0  0  0  0
   17.1499   41.9814    9.1413 C   0  0  0  0  0  0  0  0  0  0  0  0
   17.0196   41.0005   10.1355 C   0  0  0  0  0  0  0  0  0  0  0  0
   15.8279   40.2614   10.2571 C   0  0  0  0  0  0  0  0  0  0  0  0
   13.5479   39.7706    9.4801 O   0  0  0  0  0  0  0  0  0  0  0  0
   15.0078   44.8926    4.7340 O   0  0  0  0  0  0  0  0  0  0  0  0
   12.6604   47.1858    0.8842 O   0  0  0  0  0  0  0  0  0  0  0  0
    9.4562   43.9184    2.6096 O   0  0  0  0  0  0  0  0  0  0  0  0
   13.9306   41.7988    7.4913 N   0  0  0  0  0  0  0  0  0  0  0  0
   13.5292   43.3042    5.6181 N   0  0  0  0  0  0  0  0  0  0  0  0
   15.9399   43.2851    7.0241 S   0  0  0  0  0  0  0  0  0  0  0  0
  1  2  1  0
  2 19  1  0
  3 19  1  0
  4 23  1  0
  5 24  1  0
  5 25  1  0
  6  7  1  0
  8  9  2  0
  9 21  1  0
 10 21  1  0
 11 12  2  0
 12 22  1  0
 13 22  1  0
 14  7  2  0
 15 25  1  0
 15  4  2  0
 16 17  2  0
 18  3  2  0
 24  6  1  0
  3  4  1  0
  5 23  2  0
  6 20  2  0
  7  8  1  0
  9 11  1  0
 12 14  1  0
 15 16  1  0
 17 18  1  0
M  END
>  <rmsd>  (1) 
0.248558402

$$$$
