Molport-047-071-926 MCULE-2445915367 PubChem-132764393
     RDKit          3D

 25 27  0  0  0  0  0  0  0  0999 V2000
   14.2340   42.7340    6.6349 C   0  0  0  0  0  0  0  0  0  0  0  0
   13.8462   44.3263    4.6741 C   0  0  0  0  0  0  0  0  0  0  0  0
   12.9563   44.7468    3.6821 C   0  0  0  0  0  0  0  0  0  0  0  0
   13.3363   45.7653    2.8061 C   0  0  0  0  0  0  0  0  0  0  0  0
   14.5964   46.3526    2.9276 C   0  0  0  0  0  0  0  0  0  0  0  0
   15.4606   45.9082    3.9300 C   0  0  0  0  0  0  0  0  0  0  0  0
   16.8066   46.5207    4.0759 C   0  0  0  0  0  0  0  0  0  0  0  0
   13.6975   41.7131    7.4190 C   0  0  0  0  0  0  0  0  0  0  0  0
   14.4704   41.1878    8.4544 C   0  0  0  0  0  0  0  0  0  0  0  0
   13.9155   40.0942    9.3050 C   0  0  2  0  0  0  0  0  0  0  0  0
   13.8100   40.5417   10.7664 C   0  0  0  0  0  0  0  0  0  0  0  0
   13.4008   39.4114   11.7245 C   0  0  0  0  0  0  0  0  0  0  0  0
   13.2012   38.0697   11.0200 C   0  0  0  0  0  0  0  0  0  0  0  0
   15.1250   36.6002   10.2687 C   0  0  0  0  0  0  0  0  0  0  0  0
   14.6118   35.3539   10.8688 C   0  0  0  0  0  0  0  0  0  0  0  0
   13.3369   35.1454   11.1685 C   0  0  0  0  0  0  0  0  0  0  0  0
   14.7640   38.8267    9.1812 C   0  0  0  0  0  0  0  0  0  0  0  0
   16.2301   42.6697    7.9068 C   0  0  0  0  0  0  0  0  0  0  0  0
   17.5979   43.1875    8.1688 C   0  0  0  0  0  0  0  0  0  0  0  0
   13.4485   43.2806    5.5690 N   0  0  0  0  0  0  0  0  0  0  0  0
   15.0715   44.9146    4.7736 N   0  0  0  0  0  0  0  0  0  0  0  0
   14.3329   37.7965   10.1327 N   0  0  0  0  0  0  0  0  0  0  0  0
   15.7211   41.6749    8.6791 N   0  0  0  0  0  0  0  0  0  0  0  0
   15.4892   43.1913    6.8948 N   0  0  0  0  0  0  0  0  0  0  0  0
   16.3136   36.5965    9.8502 O   0  0  0  0  0  0  0  0  0  0  0  0
  1 20  1  0
  1 24  2  0
  2 21  2  0
  3  4  2  0
  5  6  2  0
  7  6  1  0
  8  9  2  0
 10  9  1  6
 10 11  1  0
 11 12  1  0
 12 13  1  0
 13 22  1  0
 14 15  1  0
 17 22  1  0
 17 10  1  0
 18 23  2  0
 19 18  1  0
 20  2  1  0
 22 14  1  0
  1  8  1  0
  2  3  1  0
  4  5  1  0
  6 21  1  0
  9 23  1  0
 14 25  2  0
 15 16  2  0
 18 24  1  0
M  END
>  <rmsd>  (1) 
0.248157367

$$$$
