Molport-053-274-375
     RDKit          3D

 19 19  0  0  0  0  0  0  0  0999 V2000
   13.3962   39.4646   11.9797 C   0  0  0  0  0  0  0  0  0  0  0  0
   13.8302   38.7933   10.6820 C   0  0  0  0  0  0  0  0  0  0  0  0
   14.8878   40.6828    9.4538 C   0  0  0  0  0  0  0  0  0  0  0  0
   14.8246   41.6749    8.3615 C   0  0  0  0  0  0  0  0  0  0  0  0
   15.6627   42.7634    8.2337 C   0  0  0  0  0  0  0  0  0  0  0  0
   14.2289   42.8317    6.6582 C   0  0  0  0  0  0  0  0  0  0  0  0
   13.9097   44.3700    4.6736 C   0  0  0  0  0  0  0  0  0  0  0  0
   13.3125   45.8734    2.7237 C   0  0  0  0  0  0  0  0  0  0  0  0
   12.0621   46.0233    1.8437 C   0  0  0  0  0  0  0  0  0  0  0  0
   13.5775   47.2101    3.4429 C   0  0  0  0  0  0  0  0  0  0  0  0
   14.5073   45.4919    1.8287 C   0  0  0  0  0  0  0  0  0  0  0  0
   12.8535   40.7490    7.0796 C   0  0  0  0  0  0  0  0  0  0  0  0
   13.8677   39.7386    9.6149 O   0  0  0  0  0  0  0  0  0  0  0  0
   15.8642   40.7039   10.2525 O   0  0  0  0  0  0  0  0  0  0  0  0
   15.0633   44.8615    4.8053 O   0  0  0  0  0  0  0  0  0  0  0  0
   13.0400   44.8327    3.6745 O   0  0  0  0  0  0  0  0  0  0  0  0
   15.2879   43.4972    7.1687 N   0  0  0  0  0  0  0  0  0  0  0  0
   13.4682   43.3142    5.5367 N   0  0  0  0  0  0  0  0  0  0  0  0
   13.9273   41.7069    7.3513 N   0  0  0  0  0  0  0  0  0  0  0  0
  1  2  1  0
  2 13  1  0
  3 13  1  0
  3  4  1  0
  5 17  1  0
  6 18  1  0
  6 19  1  0
  7 16  1  0
  8 16  1  0
  8  9  1  0
  8 10  1  0
  8 11  1  0
 12 19  1  0
 18  7  1  0
 19  4  1  0
  3 14  2  0
  4  5  2  0
  6 17  2  0
  7 15  2  0
M  END
>  <rmsd>  (1) 
0.241568282

$$$$
