MolPort-020-292-467 MCULE-8174521789 PubChem-110264935
     RDKit          3D

 31 34  0  0  0  0  0  0  0  0999 V2000
   11.6208   44.1535    3.4894 C   0  0  0  0  0  0  0  0  0  0  0  0
   12.9715   44.7612    3.6542 C   0  0  0  0  0  0  0  0  0  0  0  0
   13.8506   44.3316    4.6624 C   0  0  0  0  0  0  0  0  0  0  0  0
   15.4798   45.9110    3.9372 C   0  0  0  0  0  0  0  0  0  0  0  0
   14.6313   46.3610    2.9256 C   0  0  0  0  0  0  0  0  0  0  0  0
   13.3711   45.7799    2.7870 C   0  0  0  0  0  0  0  0  0  0  0  0
   14.2062   42.7204    6.6399 C   0  0  0  0  0  0  0  0  0  0  0  0
   13.6316   41.6998    7.4012 C   0  0  0  0  0  0  0  0  0  0  0  0
   14.3500   41.1351    8.4583 C   0  0  0  0  0  0  0  0  0  0  0  0
   16.1884   42.5737    8.0162 C   0  0  0  0  0  0  0  0  0  0  0  0
   15.4990   43.1598    6.9533 C   0  0  0  0  0  0  0  0  0  0  0  0
   17.5601   43.0331    8.3553 C   0  0  0  0  0  0  0  0  0  0  0  0
   13.7322   40.0439    9.2683 C   0  0  2  0  0  0  0  0  0  0  0  0
   13.5813   40.4840   10.7232 C   0  0  0  0  0  0  0  0  0  0  0  0
   13.0326   39.3393   11.5657 C   0  0  0  0  0  0  0  0  0  0  0  0
   13.9361   38.1196   11.4166 C   0  0  0  0  0  0  0  0  0  0  0  0
   14.5836   38.7766    9.1849 C   0  0  0  0  0  0  0  0  0  0  0  0
   14.7950   36.4805    9.8796 C   0  0  0  0  0  0  0  0  0  0  0  0
   16.2436   36.5754   10.3036 C   0  0  0  0  0  0  0  0  0  0  0  0
   18.1632   37.9944   11.1852 C   0  0  0  0  0  0  0  0  0  0  0  0
   20.3164   37.4838   11.5712 C   0  0  0  0  0  0  0  0  0  0  0  0
   20.3152   38.8229   11.9384 C   0  0  0  0  0  0  0  0  0  0  0  0
   21.4948   39.5787   12.4337 C   0  0  0  0  0  0  0  0  0  0  0  0
   15.0761   44.9180    4.7739 N   0  0  0  0  0  0  0  0  0  0  0  0
   13.4487   43.2840    5.5599 N   0  0  0  0  0  0  0  0  0  0  0  0
   15.6056   41.5826    8.7411 N   0  0  0  0  0  0  0  0  0  0  0  0
   14.0037   37.7119   10.0100 N   0  0  0  0  0  0  0  0  0  0  0  0
   16.8015   37.8028   10.7931 N   0  0  0  0  0  0  0  0  0  0  0  0
   19.1069   37.0269   11.1496 N   0  0  0  0  0  0  0  0  0  0  0  0
   16.9595   35.5433   10.2136 O   0  0  0  0  0  0  0  0  0  0  0  0
   18.7726   39.4599   11.7353 S   0  0  0  0  0  0  0  0  0  0  0  0
  1  2  1  0
  3 24  2  0
  3 25  1  0
  4  5  2  0
  6  2  2  0
  8  9  2  0
 10 26  2  0
 11  7  2  0
 12 10  1  0
 13  9  1  6
 13 14  1  0
 14 15  1  0
 15 16  1  0
 16 27  1  0
 17 27  1  0
 17 13  1  0
 18 27  1  0
 18 19  1  0
 19 28  1  0
 20 31  1  0
 21 29  1  0
 22 31  1  0
 23 22  1  0
 25  7  1  0
 28 20  1  0
  2  3  1  0
  4 24  1  0
  5  6  1  0
  7  8  1  0
  9 26  1  0
 10 11  1  0
 19 30  2  0
 20 29  2  0
 21 22  2  0
M  END
>  <rmsd>  (1) 
0.246954083

$$$$
