MolPort-009-690-752 12348320 CSSS03437129077 MCULE-8578784303 PubChem-16911853 ZINC000012348320
     RDKit          3D

 26 28  0  0  0  0  0  0  0  0999 V2000
   14.3726   42.7282    6.6175 C   0  0  0  0  0  0  0  0  0  0  0  0
   13.8823   44.3370    4.6932 C   0  0  0  0  0  0  0  0  0  0  0  0
   12.9094   44.7428    3.6386 C   0  0  0  0  0  0  0  0  0  0  0  0
   13.1688   43.9964    2.3745 C   0  0  0  0  0  0  0  0  0  0  0  0
   12.6128   42.7293    2.1789 C   0  0  0  0  0  0  0  0  0  0  0  0
   12.8734   42.0269    1.0003 C   0  0  0  0  0  0  0  0  0  0  0  0
   13.6949   42.5838    0.0054 C   0  0  0  0  0  0  0  0  0  0  0  0
   14.2593   43.8537    0.2040 C   0  0  0  0  0  0  0  0  0  0  0  0
   15.6942   45.6755   -0.6627 C   0  0  0  0  0  0  0  0  0  0  0  0
   13.9918   44.5536    1.3921 C   0  0  0  0  0  0  0  0  0  0  0  0
   13.4555   40.5944   -1.4497 C   0  0  0  0  0  0  0  0  0  0  0  0
   16.1381   42.0060    8.1278 C   0  0  0  0  0  0  0  0  0  0  0  0
   14.9120   41.3866    8.3225 C   0  0  0  0  0  0  0  0  0  0  0  0
   14.7548   40.4300    9.3299 C   0  0  0  0  0  0  0  0  0  0  0  0
   15.8748   40.1095   10.1250 C   0  0  0  0  0  0  0  0  0  0  0  0
   17.1130   40.7448    9.9128 C   0  0  0  0  0  0  0  0  0  0  0  0
   17.2544   41.7093    8.9045 C   0  0  0  0  0  0  0  0  0  0  0  0
   13.2581   38.8757   10.5602 C   0  0  0  0  0  0  0  0  0  0  0  0
   13.0558   39.5990   11.8798 C   0  0  0  0  0  0  0  0  0  0  0  0
   13.5255   43.2992    5.6133 N   0  0  0  0  0  0  0  0  0  0  0  0
   13.9240   41.7856    7.4802 N   0  0  0  0  0  0  0  0  0  0  0  0
   15.0817   44.3991   -0.7878 O   0  0  0  0  0  0  0  0  0  0  0  0
   13.9652   41.8941   -1.1817 O   0  0  0  0  0  0  0  0  0  0  0  0
   15.0071   44.9009    4.7465 O   0  0  0  0  0  0  0  0  0  0  0  0
   13.5114   39.8142    9.5200 O   0  0  0  0  0  0  0  0  0  0  0  0
   16.0117   43.0992    6.8634 S   0  0  0  0  0  0  0  0  0  0  0  0
  1 20  1  0
  1 26  1  0
  3  2  1  0
  3  4  1  0
  5  6  2  0
  7  8  2  0
  7 23  1  0
  8 22  1  0
  9 22  1  0
 10  4  2  0
 11 23  1  0
 12 26  1  0
 13 14  2  0
 13 21  1  0
 14 25  1  0
 15 16  2  0
 17 12  2  0
 18 25  1  0
 18 19  1  0
 20  2  1  0
  1 21  2  0
  2 24  2  0
  4  5  1  0
  6  7  1  0
  8 10  1  0
 12 13  1  0
 14 15  1  0
 16 17  1  0
M  END
>  <rmsd>  (1) 
0.235132635

$$$$
