MolPort-005-163-095 15077845 CHEMBL1575864 CSSS00159571147 PubChem-24819214 ZINC000015077845
     RDKit          3D

 30 33  0  0  0  0  0  0  0  0999 V2000
   13.0919   47.2900    0.8400 F   0  0  0  0  0  0  0  0  0  0  0  0
   12.6662   46.3037    1.6649 C   0  0  0  0  0  0  0  0  0  0  0  0
   11.4033   45.7345    1.4799 C   0  0  0  0  0  0  0  0  0  0  0  0
   10.9642   44.7171    2.3312 C   0  0  0  0  0  0  0  0  0  0  0  0
   11.7881   44.2686    3.3676 C   0  0  0  0  0  0  0  0  0  0  0  0
   13.0573   44.8340    3.5606 C   0  0  0  0  0  0  0  0  0  0  0  0
   13.4901   45.8552    2.7013 C   0  0  0  0  0  0  0  0  0  0  0  0
   13.9248   44.3603    4.6533 C   0  0  0  0  0  0  0  0  0  0  0  0
   14.2039   42.7605    6.6209 C   0  0  0  0  0  0  0  0  0  0  0  0
   15.4700   43.1301    7.0349 C   0  0  0  0  0  0  0  0  0  0  0  0
   15.7061   42.3015    8.1264 C   0  0  0  0  0  0  0  0  0  0  0  0
   12.4207   41.1537    7.3029 C   0  0  0  0  0  0  0  0  0  0  0  0
   12.5420   39.6232    7.2265 C   0  0  0  0  0  0  0  0  0  0  0  0
   12.2400   38.9367    8.5604 C   0  0  0  0  0  0  0  0  0  0  0  0
   12.5204   39.0144   10.8850 C   0  0  0  0  0  0  0  0  0  0  0  0
   13.5691   39.4219   11.8654 C   0  0  0  0  0  0  0  0  0  0  0  0
   14.8587   39.2460   11.5920 C   0  0  0  0  0  0  0  0  0  0  0  0
   15.9287   39.6368   12.5195 C   0  0  0  0  0  0  0  0  0  0  0  0
   15.6501   40.2233   13.7649 C   0  0  0  0  0  0  0  0  0  0  0  0
   16.6938   40.5851   14.6217 C   0  0  0  0  0  0  0  0  0  0  0  0
   18.0200   40.3639   14.2395 C   0  0  0  0  0  0  0  0  0  0  0  0
   18.3023   39.7810   13.0008 C   0  0  0  0  0  0  0  0  0  0  0  0
   17.2585   39.4189   12.1436 C   0  0  0  0  0  0  0  0  0  0  0  0
   11.6843   40.9037    9.7596 C   0  0  0  0  0  0  0  0  0  0  0  0
   11.4847   41.6370    8.4201 C   0  0  0  0  0  0  0  0  0  0  0  0
   15.0640   44.8762    4.8179 O   0  0  0  0  0  0  0  0  0  0  0  0
   13.4679   43.3153    5.5228 N   0  0  0  0  0  0  0  0  0  0  0  0
   14.6383   41.5011    8.3300 N   0  0  0  0  0  0  0  0  0  0  0  0
   13.7344   41.7839    7.4091 N   0  0  0  0  0  0  0  0  0  0  0  0
   12.6409   39.7978    9.6658 N   0  0  0  0  0  0  0  0  0  0  0  0
  2  1  1  0
  3  4  2  0
  5  6  2  0
  6  8  1  0
  7  2  2  0
  8 27  1  0
 10 11  1  0
 12 29  1  0
 12 13  1  0
 13 14  1  0
 14 30  1  0
 15 30  1  0
 15 16  1  0
 17 18  1  0
 19 20  2  0
 21 22  2  0
 23 18  2  0
 24 30  1  0
 24 25  1  0
 25 12  1  0
 27  9  1  0
 29 28  1  0
 29  9  1  0
  2  3  1  0
  4  5  1  0
  6  7  1  0
  8 26  2  0
  9 10  2  0
 11 28  2  0
 16 17  2  0
 18 19  1  0
 20 21  1  0
 22 23  1  0
M  END
>  <rmsd>  (1) 
0.212973312

$$$$
