MolPort-007-723-506 6818331 ChemDiv-E157-6073 MCULE-1441973407 PubChem-22518052 ZINC000006818331 ZINC06818331
     RDKit          3D

 26 28  0  0  0  0  0  0  0  0999 V2000
   13.5320   39.2807   11.2654 C   0  0  0  0  0  0  0  0  0  0  0  0
   13.6000   41.7816   11.5369 C   0  0  0  0  0  0  0  0  0  0  0  0
   14.1951   43.0264   11.2730 C   0  0  0  0  0  0  0  0  0  0  0  0
   13.6696   44.1992   11.8210 C   0  0  0  0  0  0  0  0  0  0  0  0
   14.3108   45.5071   11.5279 C   0  0  0  0  0  0  0  0  0  0  0  0
   12.5417   44.1417   12.6425 C   0  0  0  0  0  0  0  0  0  0  0  0
   11.9397   42.9112   12.9155 C   0  0  0  0  0  0  0  0  0  0  0  0
   12.4657   41.7386   12.3657 C   0  0  0  0  0  0  0  0  0  0  0  0
   15.1382   41.6001    8.4995 C   0  0  0  0  0  0  0  0  0  0  0  0
   14.2378   42.7715    6.6244 C   0  0  0  0  0  0  0  0  0  0  0  0
   13.9095   44.3547    4.6635 C   0  0  0  0  0  0  0  0  0  0  0  0
   13.0205   44.8266    3.5871 C   0  0  0  0  0  0  0  0  0  0  0  0
   11.7483   44.2603    3.4196 C   0  0  0  0  0  0  0  0  0  0  0  0
   10.9040   44.7076    2.3989 C   0  0  0  0  0  0  0  0  0  0  0  0
   11.3258   45.7245    1.5383 C   0  0  0  0  0  0  0  0  0  0  0  0
   12.5917   46.2944    1.6980 C   0  0  0  0  0  0  0  0  0  0  0  0
   13.4361   45.8472    2.7186 C   0  0  0  0  0  0  0  0  0  0  0  0
   14.1374   40.5712   10.9665 N   0  0  0  0  0  0  0  0  0  0  0  0
   15.9825   42.5300    8.0029 N   0  0  0  0  0  0  0  0  0  0  0  0
   15.4817   43.1831    6.9562 N   0  0  0  0  0  0  0  0  0  0  0  0
   13.4716   43.3109    5.5433 N   0  0  0  0  0  0  0  0  0  0  0  0
   15.5036   40.6008    9.8911 S   0  0  0  0  0  0  0  0  0  0  0  0
   13.6900   41.5481    7.6411 S   0  0  0  0  0  0  0  0  0  0  0  0
   15.8227   39.2094    9.4205 O   0  0  0  0  0  0  0  0  0  0  0  0
   16.6952   41.1549   10.6205 O   0  0  0  0  0  0  0  0  0  0  0  0
   15.0514   44.8715    4.8057 O   0  0  0  0  0  0  0  0  0  0  0  0
  1 18  1  0
  3  4  2  0
  5  4  1  0
  6  7  2  0
  8  2  2  0
  9 23  1  0
 10 21  1  0
 10 23  1  0
 11 12  1  0
 13 14  2  0
 15 16  2  0
 17 12  2  0
 18  2  1  0
 19 20  1  0
 21 11  1  0
 22 18  1  0
 22  9  1  0
  2  3  1  0
  4  6  1  0
  7  8  1  0
  9 19  2  0
 10 20  2  0
 11 26  2  0
 12 13  1  0
 14 15  1  0
 16 17  1  0
 22 24  2  0
 22 25  2  0
M  END
>  <rmsd>  (1) 
0.195952058

$$$$
