MolPort-002-774-483 36613625 CSSS00133001883 MCULE-7966135832 PubChem-44821680 ZINC000036613625 ZINC36613625
     RDKit          3D

 31 34  0  0  0  0  0  0  0  0999 V2000
   13.0822   39.5648   12.0568 C   0  0  0  0  0  0  0  0  0  0  0  0
   14.0282   39.3666   10.8911 C   0  0  0  0  0  0  0  0  0  0  0  0
   14.9174   40.2144    9.0587 C   0  0  0  0  0  0  0  0  0  0  0  0
   13.8456   41.6042    7.2981 C   0  0  0  0  0  0  0  0  0  0  0  0
   14.2723   42.6459    6.5065 C   0  0  0  0  0  0  0  0  0  0  0  0
   13.8998   44.3937    4.6933 C   0  0  0  0  0  0  0  0  0  0  0  0
   12.9710   44.9981    3.7220 C   0  0  0  0  0  0  0  0  0  0  0  0
   12.0137   44.2777    2.9881 C   0  0  0  0  0  0  0  0  0  0  0  0
   11.7094   42.9309    2.8037 C   0  0  0  0  0  0  0  0  0  0  0  0
   12.4208   41.7500    3.3628 C   0  0  0  0  0  0  0  0  0  0  0  0
    9.3351   44.3355    0.5362 C   0  0  0  0  0  0  0  0  0  0  0  0
   11.1469   44.9253    2.1516 C   0  0  0  0  0  0  0  0  0  0  0  0
   12.0919   47.0222    2.6365 C   0  0  0  0  0  0  0  0  0  0  0  0
   13.0008   46.3927    3.5228 C   0  0  0  0  0  0  0  0  0  0  0  0
   12.1306   48.4866    2.4356 C   0  0  0  0  0  0  0  0  0  0  0  0
   11.2254   49.1009    1.5575 C   0  0  0  0  0  0  0  0  0  0  0  0
   11.2542   50.4844    1.3608 C   0  0  0  0  0  0  0  0  0  0  0  0
   12.1873   51.2748    2.0381 C   0  0  0  0  0  0  0  0  0  0  0  0
   13.1047   53.5321    2.4635 C   0  0  0  0  0  0  0  0  0  0  0  0
   13.0957   50.6659    2.9178 C   0  0  0  0  0  0  0  0  0  0  0  0
   13.0666   49.2829    3.1142 C   0  0  0  0  0  0  0  0  0  0  0  0
   15.5905   42.9113    6.8301 C   0  0  0  0  0  0  0  0  0  0  0  0
   14.0046   40.4968   10.0756 O   0  0  0  0  0  0  0  0  0  0  0  0
   15.0507   44.8888    4.8373 O   0  0  0  0  0  0  0  0  0  0  0  0
   12.1900   52.6552    1.8201 O   0  0  0  0  0  0  0  0  0  0  0  0
   14.8979   41.2781    8.0695 N   0  0  0  0  0  0  0  0  0  0  0  0
   13.4703   43.3083    5.5233 N   0  0  0  0  0  0  0  0  0  0  0  0
   10.7002   42.8194    1.9052 N   0  0  0  0  0  0  0  0  0  0  0  0
   10.3605   44.0422    1.5218 N   0  0  0  0  0  0  0  0  0  0  0  0
   11.1723   46.2670    1.9611 N   0  0  0  0  0  0  0  0  0  0  0  0
   15.9425   42.0446    7.7997 N   0  0  0  0  0  0  0  0  0  0  0  0
  1  2  1  0
  2 23  1  0
  3 23  1  0
  3 26  1  0
  5 27  1  0
  5 22  1  0
  6  7  1  0
  8  9  1  0
 10  9  1  0
 11 29  1  0
 12  8  2  0
 13 30  2  0
 13 15  1  0
 14  7  2  0
 16 17  2  0
 18 25  1  0
 18 20  2  0
 19 25  1  0
 21 15  2  0
 26  4  1  0
 26 31  1  0
 27  6  1  0
 29 28  1  0
 29 12  1  0
  4  5  2  0
  6 24  2  0
  7  8  1  0
  9 28  2  0
 12 30  1  0
 13 14  1  0
 15 16  1  0
 17 18  1  0
 20 21  1  0
 22 31  2  0
M  END
>  <rmsd>  (1) 
0.246111661

$$$$
