MolPort-047-592-001 201908715 MCULE-5716414802 PubChem-144812354 PubChem-59619819 ZINC000201908715
     RDKit          3D

 21 22  0  0  0  0  0  0  0  0999 V2000
   13.6747   41.6909   10.2669 B   0  0  0  0  0  0  0  0  0  0  0  0
   14.2763   40.7404   11.1870 O   0  0  0  0  0  0  0  0  0  0  0  0
   12.2232   41.6959   10.3406 O   0  0  0  0  0  0  0  0  0  0  0  0
   16.2116   42.4496    5.1689 O   0  0  0  0  0  0  0  0  0  0  0  0
   15.0423   44.8943    4.7830 O   0  0  0  0  0  0  0  0  0  0  0  0
   13.2999   39.7334   11.2281 C   0  0  0  0  0  0  0  0  0  0  0  0
   11.9557   40.3577   10.6660 C   0  0  0  0  0  0  0  0  0  0  0  0
   11.4256   39.6510    9.4163 C   0  0  0  0  0  0  0  0  0  0  0  0
   10.8149   40.3501   11.6797 C   0  0  0  0  0  0  0  0  0  0  0  0
   13.8044   38.5348   10.4220 C   0  0  0  0  0  0  0  0  0  0  0  0
   13.1883   39.2617   12.6752 C   0  0  0  0  0  0  0  0  0  0  0  0
   14.3583   41.9302    8.8783 C   0  0  0  0  0  0  0  0  0  0  0  0
   13.6447   42.5104    7.8291 C   0  0  0  0  0  0  0  0  0  0  0  0
   14.2583   42.7357    6.5953 C   0  0  0  0  0  0  0  0  0  0  0  0
   15.5941   42.3221    6.4154 C   0  0  0  0  0  0  0  0  0  0  0  0
   15.6902   41.5686    8.6731 C   0  0  0  0  0  0  0  0  0  0  0  0
   17.5509   42.0365    4.9431 C   0  0  0  0  0  0  0  0  0  0  0  0
   13.9590   44.2805    4.5934 C   0  0  0  0  0  0  0  0  0  0  0  0
   13.1335   44.6033    3.4011 C   0  0  0  0  0  0  0  0  0  0  0  0
   16.2711   41.7650    7.4602 N   0  0  0  0  0  0  0  0  0  0  0  0
   13.4825   43.3197    5.5409 N   0  0  0  0  0  0  0  0  0  0  0  0
  1  2  1  0
  1 12  1  0
  1  3  1  0
  6  2  1  0
  6  7  1  0
  6 10  1  0
  6 11  1  0
  7  3  1  0
  7  8  1  0
  7  9  1  0
 13 14  2  0
 14 21  1  0
 15 20  2  0
 15  4  1  0
 16 12  2  0
 17  4  1  0
 19 18  1  0
 21 18  1  0
 12 13  1  0
 14 15  1  0
 16 20  1  0
 18  5  2  0
M  END
>  <rmsd>  (1) 
0.240105569

$$$$
