MolPort-020-275-234 MCULE-5559813353 PubChem-110252911
     RDKit          3D

 26 29  0  0  0  0  0  0  0  0999 V2000
   16.7847   46.5341    4.0363 C   0  0  0  0  0  0  0  0  0  0  0  0
   15.4410   45.9128    3.9074 C   0  0  0  0  0  0  0  0  0  0  0  0
   13.8442   44.3243    4.6762 C   0  0  0  0  0  0  0  0  0  0  0  0
   12.9419   44.7349    3.6909 C   0  0  0  0  0  0  0  0  0  0  0  0
   13.3064   45.7513    2.8061 C   0  0  0  0  0  0  0  0  0  0  0  0
   14.5637   46.3471    2.9118 C   0  0  0  0  0  0  0  0  0  0  0  0
   14.2353   42.7225    6.6494 C   0  0  0  0  0  0  0  0  0  0  0  0
   14.3858   41.1617    8.4330 C   0  0  0  0  0  0  0  0  0  0  0  0
   15.6801   41.6138    8.7186 C   0  0  0  0  0  0  0  0  0  0  0  0
   15.5302   43.1695    6.9419 C   0  0  0  0  0  0  0  0  0  0  0  0
   13.7480   40.0698    9.2307 C   0  0  2  0  0  0  0  0  0  0  0  0
   13.6032   40.4720   10.7008 C   0  0  0  0  0  0  0  0  0  0  0  0
   12.9327   39.3532   11.4953 C   0  0  0  0  0  0  0  0  0  0  0  0
   13.7443   38.0674   11.3722 C   0  0  0  0  0  0  0  0  0  0  0  0
   14.5345   38.7647    9.1002 C   0  0  0  0  0  0  0  0  0  0  0  0
   13.5236   36.4815    9.4271 C   0  0  0  0  0  0  0  0  0  0  0  0
   12.5547   34.3447    9.7516 C   0  0  0  0  0  0  0  0  0  0  0  0
   12.7252   34.0487    8.4007 C   0  0  0  0  0  0  0  0  0  0  0  0
   13.3093   35.0126    7.5814 C   0  0  0  0  0  0  0  0  0  0  0  0
   15.0666   44.9211    4.7597 N   0  0  0  0  0  0  0  0  0  0  0  0
   13.4590   43.2793    5.5792 N   0  0  0  0  0  0  0  0  0  0  0  0
   13.6987   41.7280    7.4058 N   0  0  0  0  0  0  0  0  0  0  0  0
   16.2217   42.6068    7.9669 N   0  0  0  0  0  0  0  0  0  0  0  0
   13.9364   37.7476    9.9603 N   0  0  0  0  0  0  0  0  0  0  0  0
   12.9541   35.5480   10.2390 N   0  0  0  0  0  0  0  0  0  0  0  0
   13.6960   36.2050    8.1047 N   0  0  0  0  0  0  0  0  0  0  0  0
  1  2  1  0
  3 20  2  0
  3 21  1  0
  4  5  2  0
  6  2  2  0
  8 22  2  0
  9 23  2  0
 10  7  2  0
 11  8  1  6
 11 12  1  0
 12 13  1  0
 13 14  1  0
 14 24  1  0
 15 24  1  0
 15 11  1  0
 16 26  2  0
 17 25  2  0
 18 19  2  0
 21  7  1  0
 24 16  1  0
  2 20  1  0
  3  4  1  0
  5  6  1  0
  7 22  1  0
  8  9  1  0
 10 23  1  0
 16 25  1  0
 17 18  1  0
 19 26  1  0
M  END
>  <rmsd>  (1) 
0.240516111

$$$$
