MolPort-003-871-640 60917 CSC048446353 LN01829905 MCULE-2085106535 PubChem-690635 ZINC000000060917 ZINC00060917
     RDKit          3D

 22 24  0  0  0  0  0  0  0  0999 V2000
   10.0213   44.9180    1.5463 C   0  0  0  0  0  0  0  0  0  0  0  0
   11.3402   45.0748    2.2141 C   0  0  0  0  0  0  0  0  0  0  0  0
   11.7653   44.3378    3.3056 C   0  0  0  0  0  0  0  0  0  0  0  0
   13.0328   44.8307    3.5668 C   0  0  0  0  0  0  0  0  0  0  0  0
   13.9181   44.3666    4.6484 C   0  0  0  0  0  0  0  0  0  0  0  0
   14.1918   42.7496    6.6223 C   0  0  0  0  0  0  0  0  0  0  0  0
   13.5866   41.7322    7.3681 C   0  0  0  0  0  0  0  0  0  0  0  0
   14.2523   41.1444    8.4486 C   0  0  0  0  0  0  0  0  0  0  0  0
   14.1852   39.4993   10.3075 C   0  0  0  0  0  0  0  0  0  0  0  0
   13.4357   38.2132   10.6087 C   0  0  0  0  0  0  0  0  0  0  0  0
   12.7152   38.4287   11.9224 C   0  0  0  0  0  0  0  0  0  0  0  0
   13.4896   39.5137   12.6302 C   0  0  0  0  0  0  0  0  0  0  0  0
   14.0314   40.3938   11.5274 C   0  0  0  0  0  0  0  0  0  0  0  0
   15.5435   41.5822    8.7833 C   0  0  0  0  0  0  0  0  0  0  0  0
   16.1554   42.5972    8.0445 C   0  0  0  0  0  0  0  0  0  0  0  0
   15.4818   43.1791    6.9678 C   0  0  0  0  0  0  0  0  0  0  0  0
   13.2840   45.8179    2.6289 C   0  0  0  0  0  0  0  0  0  0  0  0
   14.5200   46.6403    2.5033 C   0  0  0  0  0  0  0  0  0  0  0  0
   15.0566   44.8864    4.7973 O   0  0  0  0  0  0  0  0  0  0  0  0
   13.6118   40.1285    9.1665 O   0  0  0  0  0  0  0  0  0  0  0  0
   12.2513   45.9395    1.8340 O   0  0  0  0  0  0  0  0  0  0  0  0
   13.4690   43.3221    5.5239 N   0  0  0  0  0  0  0  0  0  0  0  0
  1  2  1  0
  2 21  1  0
  3  4  1  0
  4  5  1  0
  5 22  1  0
  7  8  2  0
  8 20  1  0
  9 20  1  0
  9 10  1  0
 10 11  1  0
 11 12  1  0
 12 13  1  0
 13  9  1  0
 14 15  2  0
 16  6  2  0
 17 21  1  0
 18 17  1  0
 22  6  1  0
  2  3  2  0
  4 17  2  0
  5 19  2  0
  6  7  1  0
  8 14  1  0
 15 16  1  0
M  END
>  <rmsd>  (1) 
0.249206498

$$$$
