Molport-020-298-634 CHEMBL3498421 CHEMBL3553604 MCULE-3322794214 MCULE-6979039994 PubChem-110269785 PubChem-118742117
     RDKit          3D

 23 25  0  0  0  0  0  0  0  0999 V2000
   15.5651   36.0461    7.9190 N   0  0  0  0  0  0  0  0  0  0  0  0
   14.0184   37.7717    9.9799 N   0  0  0  0  0  0  0  0  0  0  0  0
   15.4870   43.1875    6.8960 N   0  0  0  0  0  0  0  0  0  0  0  0
   13.4491   43.2804    5.5685 N   0  0  0  0  0  0  0  0  0  0  0  0
   13.3417   45.7461    2.8318 N   0  0  0  0  0  0  0  0  0  0  0  0
   15.0726   44.9162    4.7725 N   0  0  0  0  0  0  0  0  0  0  0  0
   13.7066   41.7352    7.3975 N   0  0  0  0  0  0  0  0  0  0  0  0
   14.1248   36.0381    8.1054 C   0  0  0  0  0  0  0  0  0  0  0  0
   13.7889   36.4352    9.5062 C   0  0  0  0  0  0  0  0  0  0  0  0
   13.7983   38.1032   11.3860 C   0  0  0  0  0  0  0  0  0  0  0  0
   12.9779   39.3853   11.4921 C   0  0  0  0  0  0  0  0  0  0  0  0
   13.6445   40.5022   10.6943 C   0  0  0  0  0  0  0  0  0  0  0  0
   13.7895   40.0894    9.2286 C   0  0  2  0  0  0  0  0  0  0  0  0
   14.5949   38.7952    9.1103 C   0  0  0  0  0  0  0  0  0  0  0  0
   14.4114   41.1830    8.4200 C   0  0  0  0  0  0  0  0  0  0  0  0
   15.7029   41.6442    8.6976 C   0  0  0  0  0  0  0  0  0  0  0  0
   16.2269   42.6647    7.9076 C   0  0  0  0  0  0  0  0  0  0  0  0
   14.2316   42.7307    6.6352 C   0  0  0  0  0  0  0  0  0  0  0  0
   13.8491   44.3267    4.6753 C   0  0  0  0  0  0  0  0  0  0  0  0
   12.9660   44.7537    3.6813 C   0  0  0  0  0  0  0  0  0  0  0  0
   14.5637   46.3327    2.9312 C   0  0  0  0  0  0  0  0  0  0  0  0
   15.4487   45.9084    3.9233 C   0  0  0  0  0  0  0  0  0  0  0  0
   13.2754   35.5744   10.2697 O   0  0  0  0  0  0  0  0  0  0  0  0
  4 19  1  0
  8  1  1  0
  8  9  1  0
  9  2  1  0
 10  2  1  0
 10 11  1  0
 11 12  1  0
 12 13  1  0
 13 14  1  0
 13 15  1  6
 14  2  1  0
 15  7  2  0
 16 17  2  0
 18  3  2  0
 18  4  1  0
 19  6  2  0
 20  5  2  0
 21 22  2  0
  9 23  2  0
 15 16  1  0
 17  3  1  0
 18  7  1  0
 19 20  1  0
 21  5  1  0
 22  6  1  0
M  END
>  <rmsd>  (1) 
0.240628287

$$$$
