MolPort-005-160-763 CSSS00160037773 MCULE-3804064098 PubChem-45250734
     RDKit          3D

 33 36  0  0  0  0  0  0  0  0999 V2000
   11.6961   46.7662    4.1011 C   0  0  0  0  0  0  0  0  0  0  0  0
   12.9531   44.9855    3.7053 C   0  0  1  0  0  0  0  0  0  0  0  0
   13.8945   44.4059    4.7131 C   0  0  0  0  0  0  0  0  0  0  0  0
   14.2793   42.6492    6.5200 C   0  0  0  0  0  0  0  0  0  0  0  0
   15.5773   42.9672    6.8731 C   0  0  0  0  0  0  0  0  0  0  0  0
   15.8821   42.0297    7.8547 C   0  0  0  0  0  0  0  0  0  0  0  0
   12.5493   40.9630    7.1439 C   0  0  0  0  0  0  0  0  0  0  0  0
   11.8543   40.9688    8.5098 C   0  0  0  0  0  0  0  0  0  0  0  0
   10.8771   39.7985    8.6360 C   0  0  0  0  0  0  0  0  0  0  0  0
   11.7991   37.8578    9.7593 C   0  0  0  0  0  0  0  0  0  0  0  0
   12.6992   38.6644   10.6553 C   0  0  0  0  0  0  0  0  0  0  0  0
   14.0710   38.7613   10.3960 C   0  0  0  0  0  0  0  0  0  0  0  0
   14.8941   39.5076   11.2425 C   0  0  0  0  0  0  0  0  0  0  0  0
   14.3546   40.1592   12.3637 C   0  0  0  0  0  0  0  0  0  0  0  0
   16.5551   41.0849   13.0183 C   0  0  0  0  0  0  0  0  0  0  0  0
   12.9821   40.0460   12.6287 C   0  0  0  0  0  0  0  0  0  0  0  0
   12.1611   39.2984   11.7790 C   0  0  0  0  0  0  0  0  0  0  0  0
   12.7555   38.5020    7.6376 C   0  0  0  0  0  0  0  0  0  0  0  0
   12.6874   39.5607    6.5401 C   0  0  0  0  0  0  0  0  0  0  0  0
   12.6768   44.0226    2.5908 C   0  0  0  0  0  0  0  0  0  0  0  0
   11.9282   42.8556    2.8086 C   0  0  0  0  0  0  0  0  0  0  0  0
   11.6845   41.9705    1.7544 C   0  0  0  0  0  0  0  0  0  0  0  0
   12.1856   42.2478    0.4793 C   0  0  0  0  0  0  0  0  0  0  0  0
   12.9299   43.4104    0.2580 C   0  0  0  0  0  0  0  0  0  0  0  0
   13.1750   44.2958    1.3121 C   0  0  0  0  0  0  0  0  0  0  0  0
   11.7636   45.3893    4.3192 O   0  0  0  0  0  0  0  0  0  0  0  0
   15.0493   44.8956    4.8265 O   0  0  0  0  0  0  0  0  0  0  0  0
   15.1588   40.9163   13.2223 O   0  0  0  0  0  0  0  0  0  0  0  0
   12.4284   40.6755   13.7366 O   0  0  0  0  0  0  0  0  0  0  0  0
   13.4765   43.3060    5.5312 N   0  0  0  0  0  0  0  0  0  0  0  0
   14.8221   41.2178    8.0550 N   0  0  0  0  0  0  0  0  0  0  0  0
   13.8546   41.6049    7.2434 N   0  0  0  0  0  0  0  0  0  0  0  0
   11.5321   38.4862    8.4581 N   0  0  0  0  0  0  0  0  0  0  0  0
  1 26  1  0
  2 26  1  1
  2  3  1  0
  2 20  1  0
  3 30  1  0
  5  6  1  0
  7 32  1  0
  7  8  1  0
  8  9  1  0
  9 33  1  0
 10 33  1  0
 10 11  1  0
 12 13  2  0
 14 28  1  0
 14 16  2  0
 15 28  1  0
 16 29  1  0
 17 11  2  0
 18 33  1  0
 18 19  1  0
 19  7  1  0
 21 22  2  0
 23 24  2  0
 25 20  2  0
 30  4  1  0
 32 31  1  0
 32  4  1  0
  3 27  2  0
  4  5  2  0
  6 31  2  0
 11 12  1  0
 13 14  1  0
 16 17  1  0
 20 21  1  0
 22 23  1  0
 24 25  1  0
M  END
>  <rmsd>  (1) 
0.229116887

$$$$
