MolPort-039-120-590 CSSS00160134734 MCULE-9974437556 PubChem-118789298
     RDKit          3D

 23 25  0  0  0  0  0  0  0  0999 V2000
   15.0571   44.8863    4.7973 O   0  0  0  0  0  0  0  0  0  0  0  0
   14.5292   46.3862   -0.8203 O   0  0  0  0  0  0  0  0  0  0  0  0
   13.5190   44.1254   -0.6058 O   0  0  0  0  0  0  0  0  0  0  0  0
   13.6070   40.1301    9.1694 O   0  0  0  0  0  0  0  0  0  0  0  0
   13.9196   44.3627    4.6492 C   0  0  0  0  0  0  0  0  0  0  0  0
   13.4419   45.8419    2.6510 C   0  0  1  0  0  0  0  0  0  0  0  0
   14.4645   45.2830    1.6535 C   0  0  0  0  0  0  0  0  0  0  0  0
   12.2495   46.1711    0.5798 C   0  0  0  0  0  0  0  0  0  0  0  0
   12.2232   46.3105    1.8997 C   0  0  0  0  0  0  0  0  0  0  0  0
   14.1920   42.7455    6.6204 C   0  0  0  0  0  0  0  0  0  0  0  0
   13.5839   41.7323    7.3695 C   0  0  0  0  0  0  0  0  0  0  0  0
   14.2505   41.1415    8.4480 C   0  0  0  0  0  0  0  0  0  0  0  0
   14.1813   39.4985   10.3088 C   0  0  0  0  0  0  0  0  0  0  0  0
   13.4256   38.2172   10.6142 C   0  0  0  0  0  0  0  0  0  0  0  0
   12.7145   38.4367   11.9323 C   0  0  0  0  0  0  0  0  0  0  0  0
   13.4984   39.5182   12.6349 C   0  0  0  0  0  0  0  0  0  0  0  0
   14.0380   40.3949   11.5283 C   0  0  0  0  0  0  0  0  0  0  0  0
   15.5456   41.5720    8.7770 C   0  0  0  0  0  0  0  0  0  0  0  0
   16.1606   42.5826    8.0346 C   0  0  0  0  0  0  0  0  0  0  0  0
   15.4861   43.1674    6.9601 C   0  0  0  0  0  0  0  0  0  0  0  0
   13.0571   44.8086    3.6012 N   0  0  0  0  0  0  0  0  0  0  0  0
   13.4684   43.3208    5.5238 N   0  0  0  0  0  0  0  0  0  0  0  0
   13.7342   45.4580    0.0533 S   0  0  0  0  0  0  0  0  0  0  0  0
  5 21  1  0
  5 22  1  0
  6 21  1  1
  6  7  1  0
  6  9  1  0
  7 23  1  0
 11 12  2  0
 12  4  1  0
 13  4  1  0
 13 14  1  0
 14 15  1  0
 15 16  1  0
 16 17  1  0
 17 13  1  0
 18 19  2  0
 20 10  2  0
 22 10  1  0
 23  8  1  0
  5  1  2  0
  8  9  2  0
 10 11  1  0
 12 18  1  0
 19 20  1  0
 23  2  2  0
 23  3  2  0
M  END
>  <rmsd>  (1) 
0.249132335

$$$$
