MolPort-035-706-973 CSSS03437789228 MCULE-3084670648 PubChem-91938298
     RDKit          3D

 28 30  0  0  0  0  0  0  0  0999 V2000
   13.4896   35.8994    6.9175 C   0  0  0  0  0  0  0  0  0  0  0  0
   14.6900   36.2434    7.7743 C   0  0  0  0  0  0  0  0  0  0  0  0
   14.5215   37.8333    9.6479 C   0  0  0  0  0  0  0  0  0  0  0  0
   14.3923   39.2564   10.1193 C   0  0  1  0  0  0  0  0  0  0  0  0
   13.5054   39.3164   11.3549 C   0  0  0  0  0  0  0  0  0  0  0  0
   14.3505   41.0584    8.3637 C   0  0  0  0  0  0  0  0  0  0  0  0
   13.6460   41.6777    7.3272 C   0  0  0  0  0  0  0  0  0  0  0  0
   14.2319   42.7122    6.5892 C   0  0  0  0  0  0  0  0  0  0  0  0
   13.8968   44.3852    4.6691 C   0  0  0  0  0  0  0  0  0  0  0  0
   12.9903   44.9043    3.6179 C   0  0  0  0  0  0  0  0  0  0  0  0
   13.4380   45.9484    2.7925 C   0  0  0  0  0  0  0  0  0  0  0  0
   12.6188   46.4694    1.7892 C   0  0  0  0  0  0  0  0  0  0  0  0
   11.3377   45.9522    1.5971 C   0  0  0  0  0  0  0  0  0  0  0  0
   10.8744   44.9141    2.4074 C   0  0  0  0  0  0  0  0  0  0  0  0
   11.6912   44.3865    3.4161 C   0  0  0  0  0  0  0  0  0  0  0  0
   15.5367   43.1248    6.9017 C   0  0  0  0  0  0  0  0  0  0  0  0
   16.2430   42.5102    7.9392 C   0  0  0  0  0  0  0  0  0  0  0  0
   15.6492   41.4776    8.6685 C   0  0  0  0  0  0  0  0  0  0  0  0
   15.7665   39.7867   10.4763 C   0  0  0  0  0  0  0  0  0  0  0  0
   14.5504   37.5633    8.2773 O   0  0  0  0  0  0  0  0  0  0  0  0
   14.6594   36.8961   10.4834 O   0  0  0  0  0  0  0  0  0  0  0  0
   13.7485   40.0259    9.0911 O   0  0  0  0  0  0  0  0  0  0  0  0
   15.0457   44.8898    4.7989 O   0  0  0  0  0  0  0  0  0  0  0  0
   16.4147   39.2717   11.4268 O   0  0  0  0  0  0  0  0  0  0  0  0
   13.4750   43.3188    5.5329 N   0  0  0  0  0  0  0  0  0  0  0  0
   16.3559   40.8543    9.7341 N   0  0  0  0  0  0  0  0  0  0  0  0
    9.6277   44.4190    2.2121 F   0  0  0  0  0  0  0  0  0  0  0  0
   11.2067   43.3779    4.1839 F   0  0  0  0  0  0  0  0  0  0  0  0
  1  2  1  0
  2 20  1  0
  3 20  1  0
  4  3  1  0
  4  5  1  1
  4 22  1  0
  4 19  1  0
  6 22  1  0
  7  8  2  0
  8 25  1  0
  9 10  1  0
 11 12  2  0
 13 14  2  0
 14 27  1  0
 15 28  1  0
 15 10  2  0
 16 17  2  0
 18 26  1  0
 18  6  2  0
 25  9  1  0
 26 19  1  0
  3 21  2  0
  6  7  1  0
  8 16  1  0
  9 23  2  0
 10 11  1  0
 12 13  1  0
 14 15  1  0
 17 18  1  0
 19 24  2  0
M  END
>  <rmsd>  (1) 
0.233836785

$$$$
