MolPort-046-971-623 MCULE-4970651089 PubChem-110111561
     RDKit          3D

 27 30  0  0  0  0  0  0  0  0999 V2000
   11.6197   44.1419    3.4883 C   0  0  0  0  0  0  0  0  0  0  0  0
   12.9686   44.7537    3.6553 C   0  0  0  0  0  0  0  0  0  0  0  0
   13.8479   44.3255    4.6637 C   0  0  0  0  0  0  0  0  0  0  0  0
   15.4745   45.9086    3.9412 C   0  0  0  0  0  0  0  0  0  0  0  0
   14.6258   46.3576    2.9290 C   0  0  0  0  0  0  0  0  0  0  0  0
   13.3669   45.7738    2.7890 C   0  0  0  0  0  0  0  0  0  0  0  0
   14.2350   42.7246    6.6239 C   0  0  0  0  0  0  0  0  0  0  0  0
   16.2670   42.6220    7.8568 C   0  0  0  0  0  0  0  0  0  0  0  0
   15.7434   41.6248    8.6810 C   0  0  0  0  0  0  0  0  0  0  0  0
   14.4351   41.1737    8.4646 C   0  0  0  0  0  0  0  0  0  0  0  0
   13.6788   41.7275    7.4292 C   0  0  0  0  0  0  0  0  0  0  0  0
   13.8303   40.1082    9.3208 C   0  0  2  0  0  0  0  0  0  0  0  0
   13.7289   40.5587   10.7822 C   0  0  0  0  0  0  0  0  0  0  0  0
   13.6168   39.3812   11.7535 C   0  0  0  0  0  0  0  0  0  0  0  0
   13.0898   38.1374   11.0420 C   0  0  0  0  0  0  0  0  0  0  0  0
   14.5993   38.7869    9.1973 C   0  0  0  0  0  0  0  0  0  0  0  0
   13.2404   36.8550    9.0826 C   0  0  0  0  0  0  0  0  0  0  0  0
   14.1005   35.7764    8.5069 C   0  0  0  0  0  0  0  0  0  0  0  0
   14.7079   34.7611    9.2125 C   0  0  0  0  0  0  0  0  0  0  0  0
   15.1801   34.5526    7.1162 C   0  0  0  0  0  0  0  0  0  0  0  0
   13.9681   36.4836    6.1052 C   0  0  0  0  0  0  0  0  0  0  0  0
   15.0720   44.9147    4.7776 N   0  0  0  0  0  0  0  0  0  0  0  0
   13.4480   43.2819    5.5645 N   0  0  0  0  0  0  0  0  0  0  0  0
   15.5100   43.1455    6.8557 N   0  0  0  0  0  0  0  0  0  0  0  0
   14.0143   37.6873    9.9914 N   0  0  0  0  0  0  0  0  0  0  0  0
   15.3862   33.9947    8.3295 N   0  0  0  0  0  0  0  0  0  0  0  0
   14.3968   35.6392    7.2069 N   0  0  0  0  0  0  0  0  0  0  0  0
  1  2  1  0
  3 22  2  0
  3 23  1  0
  4  5  2  0
  6  2  2  0
  8 24  2  0
  9 10  2  0
 11  7  2  0
 12 10  1  6
 12 13  1  0
 13 14  1  0
 14 15  1  0
 15 25  1  0
 16 25  1  0
 16 12  1  0
 17 25  1  0
 17 18  1  0
 19 26  1  0
 20 27  1  0
 21 27  1  0
 23  7  1  0
 27 18  1  0
  2  3  1  0
  4 22  1  0
  5  6  1  0
  7 24  1  0
  8  9  1  0
 10 11  1  0
 18 19  2  0
 20 26  2  0
M  END
>  <rmsd>  (1) 
0.248194814

$$$$
