Molport-046-420-638 CSSS14880538712 MCULE-1498866221
     RDKit          3D

 31 33  0  0  0  0  0  0  0  0999 V2000
   14.3898   39.2558   10.1281 C   0  0  2  0  0  0  0  0  0  0  0  0
   13.4909   39.2897   11.3535 C   0  0  0  0  0  0  0  0  0  0  0  0
   14.5368   37.8313    9.6665 C   0  0  0  0  0  0  0  0  0  0  0  0
   15.1752   35.4986   10.1864 C   0  0  0  0  0  0  0  0  0  0  0  0
   16.4930   35.3715    9.4452 C   0  0  0  0  0  0  0  0  0  0  0  0
   14.3453   41.0612    8.3751 C   0  0  0  0  0  0  0  0  0  0  0  0
   13.6443   41.6747    7.3328 C   0  0  0  0  0  0  0  0  0  0  0  0
   14.2291   42.7121    6.5979 C   0  0  0  0  0  0  0  0  0  0  0  0
   15.5284   43.1345    6.9198 C   0  0  0  0  0  0  0  0  0  0  0  0
   16.2310   42.5258    7.9635 C   0  0  0  0  0  0  0  0  0  0  0  0
   15.6387   41.4897    8.6893 C   0  0  0  0  0  0  0  0  0  0  0  0
   15.7529   39.8043   10.5024 C   0  0  0  0  0  0  0  0  0  0  0  0
   13.9008   44.3827    4.6810 C   0  0  0  0  0  0  0  0  0  0  0  0
   12.9545   44.9179    3.6609 C   0  0  0  0  0  0  0  0  0  0  0  0
   12.1596   46.0932    4.2158 C   0  0  0  0  0  0  0  0  0  0  0  0
   11.1558   45.6382    5.2639 C   0  0  0  0  0  0  0  0  0  0  0  0
    9.1434   44.2044    5.4000 C   0  0  0  0  0  0  0  0  0  0  0  0
    9.0445   44.3706    6.7917 C   0  0  0  0  0  0  0  0  0  0  0  0
    8.0159   43.7494    7.5055 C   0  0  0  0  0  0  0  0  0  0  0  0
    7.0798   42.9582    6.8351 C   0  0  0  0  0  0  0  0  0  0  0  0
    7.1722   42.7883    5.4511 C   0  0  0  0  0  0  0  0  0  0  0  0
    8.2003   43.4087    4.7344 C   0  0  0  0  0  0  0  0  0  0  0  0
   14.9581   36.8503   10.5715 O   0  0  0  0  0  0  0  0  0  0  0  0
   14.2957   37.5265    8.4654 O   0  0  0  0  0  0  0  0  0  0  0  0
   13.7450   40.0258    9.0993 O   0  0  0  0  0  0  0  0  0  0  0  0
   16.3935   39.3034   11.4658 O   0  0  0  0  0  0  0  0  0  0  0  0
   10.1651   44.8125    4.6644 O   0  0  0  0  0  0  0  0  0  0  0  0
   15.0466   44.8942    4.7918 O   0  0  0  0  0  0  0  0  0  0  0  0
   16.3405   40.8743    9.7625 N   0  0  0  0  0  0  0  0  0  0  0  0
   13.4755   43.3151    5.5379 N   0  0  0  0  0  0  0  0  0  0  0  0
    8.2790   43.2347    3.3923 F   0  0  0  0  0  0  0  0  0  0  0  0
  1  2  1  1
  1  3  1  0
  1 25  1  0
  1 12  1  0
  3 23  1  0
  4 23  1  0
  4  5  1  0
  6 25  1  0
  7  8  2  0
  8 30  1  0
  9 10  2  0
 11 29  1  0
 11  6  2  0
 14 13  1  0
 14 15  1  0
 15 16  1  0
 16 27  1  0
 17 27  1  0
 18 19  2  0
 20 21  2  0
 22 31  1  0
 22 17  2  0
 29 12  1  0
 30 13  1  0
  3 24  2  0
  6  7  1  0
  8  9  1  0
 10 11  1  0
 12 26  2  0
 13 28  2  0
 17 18  1  0
 19 20  1  0
 21 22  1  0
M  END
>  <rmsd>  (1) 
0.230697393

$$$$
