MolPort-003-020-518 6456015 CSSS03437095292 LN01391661 MCULE-1548270284 PubChem-5176146 ZINC000006456015
     RDKit          3D

 27 30  0  0  0  0  0  0  0  0999 V2000
   14.2548   42.7293    6.6129 C   0  0  0  0  0  0  0  0  0  0  0  0
   13.8539   44.4681    4.8012 C   0  0  0  0  0  0  0  0  0  0  0  0
   12.8436   45.1775    3.9531 C   0  0  0  0  0  0  0  0  0  0  0  0
   11.7172   45.8044    4.7831 C   0  0  0  0  0  0  0  0  0  0  0  0
   10.7109   44.7566    5.2580 C   0  0  0  0  0  0  0  0  0  0  0  0
   10.1519   43.9841    4.0687 C   0  0  0  0  0  0  0  0  0  0  0  0
   11.2826   43.2785    3.3289 C   0  0  0  0  0  0  0  0  0  0  0  0
   12.3015   44.2981    2.8199 C   0  0  0  0  0  0  0  0  0  0  0  0
   15.2589   41.1961    8.3048 C   0  0  0  0  0  0  0  0  0  0  0  0
   15.5410   42.5380    8.5504 C   0  0  0  0  0  0  0  0  0  0  0  0
   16.3343   43.0026    9.7278 C   0  0  0  0  0  0  0  0  0  0  0  0
   14.9715   43.4068    7.6027 C   0  0  0  0  0  0  0  0  0  0  0  0
   15.0265   44.8429    7.7237 C   0  0  0  0  0  0  0  0  0  0  0  0
   15.6510   40.0398    9.1661 C   0  0  0  0  0  0  0  0  0  0  0  0
   14.5805   39.7412   10.1601 C   0  0  0  0  0  0  0  0  0  0  0  0
   13.5471   38.8350    9.8302 C   0  0  0  0  0  0  0  0  0  0  0  0
   12.5172   38.5606   10.7482 C   0  0  0  0  0  0  0  0  0  0  0  0
   12.5602   39.2159   11.9762 C   0  0  0  0  0  0  0  0  0  0  0  0
   13.5495   40.0898   12.2934 C   0  0  0  0  0  0  0  0  0  0  0  0
   12.1382   39.9850   14.0789 C   0  0  0  0  0  0  0  0  0  0  0  0
   14.5851   40.3869   11.4116 C   0  0  0  0  0  0  0  0  0  0  0  0
   13.4831   43.3077    5.5543 N   0  0  0  0  0  0  0  0  0  0  0  0
   15.0702   45.9951    7.8230 N   0  0  0  0  0  0  0  0  0  0  0  0
   15.0449   44.8778    4.8032 O   0  0  0  0  0  0  0  0  0  0  0  0
   13.3356   40.5848   13.5642 O   0  0  0  0  0  0  0  0  0  0  0  0
   11.6769   39.1186   13.0326 O   0  0  0  0  0  0  0  0  0  0  0  0
   14.2842   41.0817    6.9387 S   0  0  0  0  0  0  0  0  0  0  0  0
  1 22  1  0
  1 27  1  0
  3  2  1  0
  3  4  1  0
  4  5  1  0
  5  6  1  0
  6  7  1  0
  7  8  1  0
  8  3  1  0
  9 27  1  0
 10 12  1  0
 11 10  1  0
 12 13  1  0
 14  9  1  0
 14 15  1  0
 16 17  2  0
 18 19  2  0
 18 26  1  0
 19 25  1  0
 20 25  1  0
 20 26  1  0
 21 15  2  0
 22  2  1  0
  2 24  2  0
  9 10  2  0
 12  1  2  0
 15 16  1  0
 17 18  1  0
 19 21  1  0
 13 23  3  0
M  END
>  <rmsd>  (1) 
0.246561706

$$$$
