Molport-043-873-113 MCULE-7353733872 PubChem-123128074
     RDKit          3D

 19 19  0  0  0  0  0  0  0  0999 V2000
   13.5129   39.3330   11.3286 C   0  0  0  0  0  0  0  0  0  0  0  0
   14.3865   39.2715   10.0901 C   0  0  1  0  0  0  0  0  0  0  0  0
   14.6484   37.8546    9.7036 C   0  0  0  0  0  0  0  0  0  0  0  0
   14.3555   41.0216    8.3401 C   0  0  0  0  0  0  0  0  0  0  0  0
   15.6398   41.4764    8.6784 C   0  0  0  0  0  0  0  0  0  0  0  0
   16.2154   42.5402    7.9800 C   0  0  0  0  0  0  0  0  0  0  0  0
   15.5119   43.1544    6.9410 C   0  0  0  0  0  0  0  0  0  0  0  0
   14.2282   42.7085    6.5928 C   0  0  0  0  0  0  0  0  0  0  0  0
   13.6589   41.6430    7.2984 C   0  0  0  0  0  0  0  0  0  0  0  0
   13.8934   44.3989    4.6922 C   0  0  0  0  0  0  0  0  0  0  0  0
   12.9696   44.9033    3.6299 C   0  0  0  0  0  0  0  0  0  0  0  0
   13.7006   37.0986    9.3617 O   0  0  0  0  0  0  0  0  0  0  0  0
   15.9488   37.3693    9.7126 O   0  0  0  0  0  0  0  0  0  0  0  0
   13.7517   39.9594    9.0191 O   0  0  0  0  0  0  0  0  0  0  0  0
   15.0486   44.8921    4.7981 O   0  0  0  0  0  0  0  0  0  0  0  0
   13.4744   43.3153    5.5343 N   0  0  0  0  0  0  0  0  0  0  0  0
   13.2507   46.2269    3.3415 F   0  0  0  0  0  0  0  0  0  0  0  0
   11.6583   44.8070    4.0592 F   0  0  0  0  0  0  0  0  0  0  0  0
   13.1303   44.1446    2.4860 F   0  0  0  0  0  0  0  0  0  0  0  0
  2  1  1  1
  2  3  1  0
  2 14  1  0
  3 13  1  0
  4 14  1  0
  5  6  2  0
  7  8  2  0
  8 16  1  0
  9  4  2  0
 11 10  1  0
 11 17  1  0
 11 18  1  0
 11 19  1  0
 16 10  1  0
  3 12  2  0
  4  5  1  0
  6  7  1  0
  8  9  1  0
 10 15  2  0
M  END
>  <rmsd>  (1) 
0.234431088

$$$$
