MolPort-020-295-287 MCULE-7988798873 PubChem-110267370
     RDKit          3D

 27 29  0  0  0  0  0  0  0  0999 V2000
   11.3052   45.5614    1.3768 C   0  0  0  0  0  0  0  0  0  0  0  0
   13.4356   45.7104    2.7424 C   0  0  0  0  0  0  0  0  0  0  0  0
   15.4693   45.8960    3.9380 C   0  0  0  0  0  0  0  0  0  0  0  0
   13.8685   44.3037    4.6467 C   0  0  0  0  0  0  0  0  0  0  0  0
   13.0170   44.6983    3.6139 C   0  0  0  0  0  0  0  0  0  0  0  0
   14.2184   42.7246    6.6221 C   0  0  0  0  0  0  0  0  0  0  0  0
   16.2607   42.5336    7.8020 C   0  0  0  0  0  0  0  0  0  0  0  0
   15.6862   41.6067    8.6683 C   0  0  0  0  0  0  0  0  0  0  0  0
   14.3439   41.2628    8.4826 C   0  0  0  0  0  0  0  0  0  0  0  0
   13.6737   40.2526    9.3579 C   0  0  2  0  0  0  0  0  0  0  0  0
   13.8731   40.5612   10.8467 C   0  0  0  0  0  0  0  0  0  0  0  0
   13.8147   39.3038   11.7178 C   0  0  0  0  0  0  0  0  0  0  0  0
   12.9044   38.2561   11.0811 C   0  0  0  0  0  0  0  0  0  0  0  0
   14.1316   38.8324    9.0126 C   0  0  0  0  0  0  0  0  0  0  0  0
   12.2616   37.3965    8.9846 C   0  0  0  0  0  0  0  0  0  0  0  0
   12.0763   35.9126    9.0389 C   0  0  0  0  0  0  0  0  0  0  0  0
   14.1916   35.5175    7.7259 C   0  0  0  0  0  0  0  0  0  0  0  0
   12.8633   33.5802    8.5641 C   0  0  0  0  0  0  0  0  0  0  0  0
   12.6060   46.1449    1.6613 N   0  0  0  0  0  0  0  0  0  0  0  0
   14.6511   46.2896    2.9254 N   0  0  0  0  0  0  0  0  0  0  0  0
   15.0771   44.9115    4.7874 N   0  0  0  0  0  0  0  0  0  0  0  0
   13.4417   43.2826    5.5556 N   0  0  0  0  0  0  0  0  0  0  0  0
   15.5211   43.0741    6.7996 N   0  0  0  0  0  0  0  0  0  0  0  0
   13.6439   41.8238    7.4617 N   0  0  0  0  0  0  0  0  0  0  0  0
   13.4151   37.7951    9.7777 N   0  0  0  0  0  0  0  0  0  0  0  0
   13.0372   35.0171    8.4566 N   0  0  0  0  0  0  0  0  0  0  0  0
   11.0413   35.4571    9.5942 O   0  0  0  0  0  0  0  0  0  0  0  0
  1 19  1  0
  3 20  2  0
  4 21  2  0
  4 22  1  0
  5  2  2  0
  6 24  2  0
  7 23  2  0
  8  9  2  0
 10  9  1  6
 10 11  1  0
 11 12  1  0
 12 13  1  0
 13 25  1  0
 14 25  1  0
 14 10  1  0
 15 25  1  0
 15 16  1  0
 16 26  1  0
 17 26  1  0
 18 26  1  0
 19  2  1  0
 22  6  1  0
  2 20  1  0
  3 21  1  0
  4  5  1  0
  6 23  1  0
  7  8  1  0
  9 24  1  0
 16 27  2  0
M  END
>  <rmsd>  (1) 
0.245353147

$$$$
