MolPort-008-194-644 40745923 CSSS03437773503 MCULE-1851492700 PubChem-51999182 ZINC000040745923 ZINC40745923
     RDKit          3D

 23 24  0  0  0  0  0  0  0  0999 V2000
   11.3015   39.6010    7.9347 C   0  0  0  0  0  0  0  0  0  0  0  0
   11.3003   38.9676    9.3104 C   0  0  0  0  0  0  0  0  0  0  0  0
   12.5590   38.4052   11.0366 C   0  0  0  0  0  0  0  0  0  0  0  0
   13.8265   38.9445   11.6812 C   0  0  0  0  0  0  0  0  0  0  0  0
   13.7674   40.4600   11.8348 C   0  0  0  0  0  0  0  0  0  0  0  0
   14.9950   41.0985    9.7056 C   0  0  0  0  0  0  0  0  0  0  0  0
   14.9501   41.7041    8.3707 C   0  0  0  0  0  0  0  0  0  0  0  0
   16.4090   42.3997    5.2176 C   0  0  0  0  0  0  0  0  0  0  0  0
   14.3086   42.6965    6.5656 C   0  0  0  0  0  0  0  0  0  0  0  0
   13.9484   44.2847    4.6124 C   0  0  0  0  0  0  0  0  0  0  0  0
   13.1150   44.6138    3.4506 C   0  0  0  0  0  0  0  0  0  0  0  0
   13.4174   45.5536    2.4773 C   0  0  0  0  0  0  0  0  0  0  0  0
   12.4291   45.6458    1.4863 C   0  0  0  0  0  0  0  0  0  0  0  0
   11.3480   44.7859    1.6683 C   0  0  0  0  0  0  0  0  0  0  0  0
   13.8343   42.3056    7.8021 C   0  0  0  0  0  0  0  0  0  0  0  0
   12.6019   38.6071    9.6562 O   0  0  0  0  0  0  0  0  0  0  0  0
   16.0582   40.5571   10.1128 O   0  0  0  0  0  0  0  0  0  0  0  0
   15.0336   44.8987    4.7982 O   0  0  0  0  0  0  0  0  0  0  0  0
   13.8319   41.1221   10.5381 N   0  0  0  0  0  0  0  0  0  0  0  0
   15.9950   41.7111    7.5184 N   0  0  0  0  0  0  0  0  0  0  0  0
   15.5947   42.3205    6.4186 N   0  0  0  0  0  0  0  0  0  0  0  0
   13.4968   43.3074    5.5556 N   0  0  0  0  0  0  0  0  0  0  0  0
   11.6390   43.9118    3.0758 S   0  0  0  0  0  0  0  0  0  0  0  0
  1  2  1  0
  2 16  1  0
  3 16  1  0
  3  4  1  0
  4  5  1  0
  5 19  1  0
  6  7  1  0
  8 21  1  0
  9 22  1  0
 10 11  1  0
 11 23  1  0
 12 13  1  0
 14 23  1  0
 15  7  1  0
 19  6  1  0
 21 20  1  0
 21  9  1  0
 22 10  1  0
  6 17  2  0
  7 20  2  0
  9 15  2  0
 10 18  2  0
 11 12  2  0
 13 14  2  0
M  END
>  <rmsd>  (1) 
0.198990181

$$$$
