MolPort-002-865-768 5540787 CHEMBL1340266 CSSS00138423847 MCULE-5341935088 PubChem-3721638 ZINC000005540787 ZINC05540787
     RDKit          3D

 25 27  0  0  0  0  0  0  0  0999 V2000
   10.3352   46.0886    0.4856 C   0  0  0  0  0  0  0  0  0  0  0  0
   11.2540   45.6389    1.5635 C   0  0  0  0  0  0  0  0  0  0  0  0
   10.8564   44.6298    2.4447 C   0  0  0  0  0  0  0  0  0  0  0  0
   11.7208   44.2067    3.4588 C   0  0  0  0  0  0  0  0  0  0  0  0
   12.9888   44.7894    3.5992 C   0  0  0  0  0  0  0  0  0  0  0  0
   13.3800   45.8019    2.7101 C   0  0  0  0  0  0  0  0  0  0  0  0
   12.5157   46.2250    1.6960 C   0  0  0  0  0  0  0  0  0  0  0  0
   13.8991   44.3427    4.6684 C   0  0  0  0  0  0  0  0  0  0  0  0
   14.2801   42.7919    6.6421 C   0  0  0  0  0  0  0  0  0  0  0  0
   16.0250   42.5149    8.0252 C   0  0  0  0  0  0  0  0  0  0  0  0
   15.5161   40.6906    9.6799 C   0  0  0  0  0  0  0  0  0  0  0  0
   14.4502   39.9571   10.3992 C   0  0  0  0  0  0  0  0  0  0  0  0
   14.6154   38.6204   10.8301 C   0  0  0  0  0  0  0  0  0  0  0  0
   13.5880   37.9839   11.5344 C   0  0  0  0  0  0  0  0  0  0  0  0
   12.4018   38.6609   11.8230 C   0  0  0  0  0  0  0  0  0  0  0  0
   12.2339   39.9811   11.4047 C   0  0  0  0  0  0  0  0  0  0  0  0
   13.2530   40.6240   10.6994 C   0  0  0  0  0  0  0  0  0  0  0  0
   15.0374   44.8736    4.7860 O   0  0  0  0  0  0  0  0  0  0  0  0
   17.1802   42.7499    8.4693 O   0  0  0  0  0  0  0  0  0  0  0  0
   16.7142   40.5501   10.0471 O   0  0  0  0  0  0  0  0  0  0  0  0
   13.4863   43.3073    5.5697 N   0  0  0  0  0  0  0  0  0  0  0  0
   15.5303   43.2037    6.9518 N   0  0  0  0  0  0  0  0  0  0  0  0
   15.2085   41.5748    8.5859 N   0  0  0  0  0  0  0  0  0  0  0  0
   13.8065   41.5890    7.6883 S   0  0  0  0  0  0  0  0  0  0  0  0
   16.0581   37.6831   10.4664 Cl  0  0  0  0  0  0  0  0  0  0  0  0
  1  2  1  0
  3  4  2  0
  5  6  2  0
  5  8  1  0
  7  2  2  0
  8 21  1  0
  9 24  1  0
 10 22  1  0
 10 23  1  0
 11 12  1  0
 13 25  1  0
 13 14  2  0
 15 16  2  0
 17 12  2  0
 21  9  1  0
 23 24  1  0
 23 11  1  0
  2  3  1  0
  4  5  1  0
  6  7  1  0
  8 18  2  0
  9 22  2  0
 10 19  2  0
 11 20  2  0
 12 13  1  0
 14 15  1  0
 16 17  1  0
M  END
>  <rmsd>  (1) 
0.219226643

$$$$
