MolPort-051-736-026
     RDKit          3D

 35 39  0  0  0  0  0  0  0  0999 V2000
   18.0775   45.3122   -4.8129 C   0  0  0  0  0  0  0  0  0  0  0  0
   17.0688   45.2809   -3.7227 C   0  0  0  0  0  0  0  0  0  0  0  0
   15.8543   46.5010   -1.8645 C   0  0  1  0  0  0  0  0  0  0  0  0
   16.3732   45.7662   -0.6589 C   0  0  0  0  0  0  0  0  0  0  0  0
   16.0194   44.2789    1.3302 C   0  0  0  0  0  0  0  0  0  0  0  0
   14.9577   43.4290    2.0299 C   0  0  0  0  0  0  0  0  0  0  0  0
   13.6380   44.2022    2.1126 C   0  0  0  0  0  0  0  0  0  0  0  0
   12.5277   43.4128    2.7610 C   0  0  0  0  0  0  0  0  0  0  0  0
   13.0746   44.6563    3.4578 C   0  0  1  0  0  0  0  0  0  0  0  0
   13.9421   44.2809    4.6218 C   0  0  0  0  0  0  0  0  0  0  0  0
   14.2281   42.8657    6.7081 C   0  0  0  0  0  0  0  0  0  0  0  0
   14.8434   41.8491    8.5120 C   0  0  0  0  0  0  0  0  0  0  0  0
   14.7985   41.0001    9.6141 C   0  0  0  0  0  0  0  0  0  0  0  0
   13.6313   40.2306    9.7882 C   0  0  0  0  0  0  0  0  0  0  0  0
   12.5594   40.3288    8.8694 C   0  0  0  0  0  0  0  0  0  0  0  0
   12.6373   41.1980    7.7645 C   0  0  0  0  0  0  0  0  0  0  0  0
   13.8059   41.9423    7.6296 C   0  0  0  0  0  0  0  0  0  0  0  0
   13.1751   45.0033    0.8993 C   0  0  0  0  0  0  0  0  0  0  0  0
   14.1035   44.7540   -0.2852 C   0  0  0  0  0  0  0  0  0  0  0  0
   15.4968   47.9130   -1.5212 C   0  0  0  0  0  0  0  0  0  0  0  0
   14.1487   48.2879   -1.4974 C   0  0  0  0  0  0  0  0  0  0  0  0
   13.7886   49.5967   -1.1634 C   0  0  0  0  0  0  0  0  0  0  0  0
   14.7762   50.5356   -0.8511 C   0  0  0  0  0  0  0  0  0  0  0  0
   16.1243   50.1658   -0.8695 C   0  0  0  0  0  0  0  0  0  0  0  0
   16.4852   48.8572   -1.2032 C   0  0  0  0  0  0  0  0  0  0  0  0
   16.4437   44.2143   -3.4817 O   0  0  0  0  0  0  0  0  0  0  0  0
   17.5754   45.9214   -0.3085 O   0  0  0  0  0  0  0  0  0  0  0  0
   15.0487   44.8629    4.7815 O   0  0  0  0  0  0  0  0  0  0  0  0
   15.8074   42.6573    8.1383 O   0  0  0  0  0  0  0  0  0  0  0  0
   16.8134   46.4636   -2.9633 N   0  0  0  0  0  0  0  0  0  0  0  0
   15.4998   44.9357    0.1221 N   0  0  0  0  0  0  0  0  0  0  0  0
   13.4840   43.3084    5.5682 N   0  0  0  0  0  0  0  0  0  0  0  0
   15.4692   43.2915    7.0448 N   0  0  0  0  0  0  0  0  0  0  0  0
   13.5055   39.1433   11.1537 Cl  0  0  0  0  0  0  0  0  0  0  0  0
   14.4264   51.8028   -0.5254 F   0  0  0  0  0  0  0  0  0  0  0  0
  1  2  1  0
  2 30  1  0
  3 30  1  6
  3  4  1  0
  3 20  1  0
  4 31  1  0
  5 31  1  0
  5  6  1  0
  6  7  1  0
  7  8  1  0
  7 18  1  0
  8  9  1  0
  9 10  1  1
  9  7  1  0
 10 32  1  0
 12 29  1  0
 13 14  2  0
 14 34  1  0
 15 16  2  0
 17 11  1  0
 17 12  2  0
 18 19  1  0
 19 31  1  0
 21 22  2  0
 23 35  1  0
 23 24  2  0
 25 20  2  0
 32 11  1  0
 33 29  1  0
  2 26  2  0
  4 27  2  0
 10 28  2  0
 11 33  2  0
 12 13  1  0
 14 15  1  0
 16 17  1  0
 20 21  1  0
 22 23  1  0
 24 25  1  0
M  END
>  <rmsd>  (1) 
0.242012709

$$$$
