MolPort-002-465-660 CSC000683401 CSSS00000683401 MCULE-2578394939 PubChem-3822736 Z56960310
     RDKit          3D

 21 21  0  0  0  0  0  0  0  0999 V2000
   10.3795   39.7933    5.3550 C   0  0  0  0  0  0  0  0  0  0  0  0
   10.2780   40.9956    6.2757 C   0  0  0  0  0  0  0  0  0  0  0  0
   12.5513   40.9753    7.2597 C   0  0  0  0  0  0  0  0  0  0  0  0
   13.8883   41.6074    7.3764 C   0  0  0  0  0  0  0  0  0  0  0  0
   14.2991   42.6830    6.5821 C   0  0  0  0  0  0  0  0  0  0  0  0
   13.8815   44.3887    4.7188 C   0  0  0  0  0  0  0  0  0  0  0  0
   12.9170   44.9010    3.7100 C   0  0  0  0  0  0  0  0  0  0  0  0
   16.0688   41.9436    8.1752 C   0  0  0  0  0  0  0  0  0  0  0  0
   17.3123   41.7541    8.9726 C   0  0  0  0  0  0  0  0  0  0  0  0
   14.8982   41.1953    8.2805 C   0  0  0  0  0  0  0  0  0  0  0  0
   14.7396   40.0985    9.2913 C   0  0  0  0  0  0  0  0  0  0  0  0
   13.9502   40.5812   10.5037 C   0  0  2  0  0  0  0  0  0  0  0  0
   14.7826   41.4707   11.4283 C   0  0  0  0  0  0  0  0  0  0  0  0
   15.9766   40.7380   12.0238 C   0  0  0  0  0  0  0  0  0  0  0  0
   13.3656   39.3987   11.2551 C   0  0  0  0  0  0  0  0  0  0  0  0
   11.5615   41.5763    6.4746 O   0  0  0  0  0  0  0  0  0  0  0  0
   15.0312   44.8973    4.7877 O   0  0  0  0  0  0  0  0  0  0  0  0
   12.3020   39.8965    7.8638 O   0  0  0  0  0  0  0  0  0  0  0  0
   13.4951   43.3032    5.5686 N   0  0  0  0  0  0  0  0  0  0  0  0
   12.9852   43.8910    2.2466 Cl  0  0  0  0  0  0  0  0  0  0  0  0
   15.8787   43.1088    6.9850 S   0  0  0  0  0  0  0  0  0  0  0  0
  1  2  1  0
  2 16  1  0
  3 16  1  0
  3  4  1  0
  5 19  1  0
  5 21  1  0
  7  6  1  0
  7 20  1  0
  8 21  1  0
  9  8  1  0
 10  4  1  0
 11 10  1  0
 11 12  1  0
 12 13  1  0
 12 15  1  1
 13 14  1  0
 19  6  1  0
  3 18  2  0
  4  5  2  0
  6 17  2  0
  8 10  2  0
M  END
>  <rmsd>  (1) 
0.209873945

$$$$
