MolPort-008-288-023 MCULE-3234992297 PubChem-46969567
     RDKit          3D

 28 30  0  0  0  0  0  0  0  0999 V2000
   10.4440   44.7119    4.1503 C   0  0  0  0  0  0  0  0  0  0  0  0
   11.6383   45.6343    4.2924 C   0  0  0  0  0  0  0  0  0  0  0  0
   12.8998   44.9479    3.7032 C   0  0  1  0  0  0  0  0  0  0  0  0
   13.5141   45.9233    2.6946 C   0  0  0  0  0  0  0  0  0  0  0  0
   12.4819   46.9733    2.6109 C   0  0  0  0  0  0  0  0  0  0  0  0
   13.8862   44.4057    4.7031 C   0  0  0  0  0  0  0  0  0  0  0  0
   14.2754   42.7025    6.5709 C   0  0  0  0  0  0  0  0  0  0  0  0
   15.8493   41.9447    8.2137 C   0  0  0  0  0  0  0  0  0  0  0  0
   16.9724   41.6868    9.1601 C   0  0  0  0  0  0  0  0  0  0  0  0
   17.0207   42.7571   10.2482 C   0  0  0  0  0  0  0  0  0  0  0  0
   16.0087   42.5793   11.3456 C   0  0  0  0  0  0  0  0  0  0  0  0
   15.1753   41.4537   11.4264 C   0  0  0  0  0  0  0  0  0  0  0  0
   14.2442   41.3205   12.4687 C   0  0  0  0  0  0  0  0  0  0  0  0
   14.1507   42.3237   13.4450 C   0  0  0  0  0  0  0  0  0  0  0  0
   14.9898   43.4470   13.3660 C   0  0  0  0  0  0  0  0  0  0  0  0
   15.9113   43.5710   12.3240 C   0  0  0  0  0  0  0  0  0  0  0  0
   13.0628   43.1539   15.5085 C   0  0  0  0  0  0  0  0  0  0  0  0
   13.4325   39.1492   11.5997 C   0  0  0  0  0  0  0  0  0  0  0  0
   11.7810   46.0575    5.7494 C   0  0  0  0  0  0  0  0  0  0  0  0
   12.5418   47.9529    1.8239 O   0  0  0  0  0  0  0  0  0  0  0  0
   11.4440   46.7906    3.4987 O   0  0  0  0  0  0  0  0  0  0  0  0
   15.0429   44.9001    4.7897 O   0  0  0  0  0  0  0  0  0  0  0  0
   13.2209   42.1847   14.4813 O   0  0  0  0  0  0  0  0  0  0  0  0
   13.4055   40.2038   12.5521 O   0  0  0  0  0  0  0  0  0  0  0  0
   13.4886   43.3146    5.5423 N   0  0  0  0  0  0  0  0  0  0  0  0
   13.8211   41.6637    7.3040 N   0  0  0  0  0  0  0  0  0  0  0  0
   14.6948   41.2435    8.2173 N   0  0  0  0  0  0  0  0  0  0  0  0
   15.8302   43.1588    7.0466 S   0  0  0  0  0  0  0  0  0  0  0  0
  1  2  1  0
  2  3  1  0
  2 19  1  0
  2 21  1  0
  3  4  1  0
  3  6  1  1
  4  5  1  0
  5 21  1  0
  6 25  1  0
  7 28  1  0
  8 28  1  0
  9  8  1  0
  9 10  1  0
 10 11  1  0
 12 13  2  0
 13 24  1  0
 14 15  2  0
 14 23  1  0
 16 11  2  0
 17 23  1  0
 18 24  1  0
 25  7  1  0
 26 27  1  0
  5 20  2  0
  6 22  2  0
  7 26  2  0
  8 27  2  0
 11 12  1  0
 13 14  1  0
 15 16  1  0
M  END
>  <rmsd>  (1) 
0.22999613

$$$$
