MolPort-005-066-391 12445768 CHEMBL1727965 CSSS00159486971 MCULE-5230718867 ZINC000012445768
     RDKit          3D

 26 29  0  0  0  0  0  0  0  0999 V2000
   15.0369   44.8996    4.8199 O   0  0  0  0  0  0  0  0  0  0  0  0
   13.8725   44.4218    4.7373 C   0  0  0  0  0  0  0  0  0  0  0  0
   14.3270   42.6279    6.4933 C   0  0  0  0  0  0  0  0  0  0  0  0
   15.6418   42.9317    6.7932 C   0  0  0  0  0  0  0  0  0  0  0  0
   15.9778   41.9883    7.7587 C   0  0  0  0  0  0  0  0  0  0  0  0
   12.6024   40.9681    7.1993 C   0  0  0  0  0  0  0  0  0  0  0  0
   12.6970   39.5217    6.6991 C   0  0  0  0  0  0  0  0  0  0  0  0
   12.7299   38.5431    7.8700 C   0  0  0  0  0  0  0  0  0  0  0  0
   11.7415   38.0598   10.0148 C   0  0  0  0  0  0  0  0  0  0  0  0
   12.7000   38.8629   10.8495 C   0  0  0  0  0  0  0  0  0  0  0  0
   13.5710   40.0921   12.4063 C   0  0  0  0  0  0  0  0  0  0  0  0
   12.3701   39.5270   12.0115 C   0  0  0  0  0  0  0  0  0  0  0  0
   10.9112   39.9750    8.7888 C   0  0  0  0  0  0  0  0  0  0  0  0
   11.9353   41.0910    8.5735 C   0  0  0  0  0  0  0  0  0  0  0  0
   12.9008   45.0172    3.8032 C   0  0  0  0  0  0  0  0  0  0  0  0
   13.2622   46.1128    3.0046 C   0  0  0  0  0  0  0  0  0  0  0  0
   12.3393   46.6769    2.1188 C   0  0  0  0  0  0  0  0  0  0  0  0
   11.0485   46.1498    2.0250 C   0  0  0  0  0  0  0  0  0  0  0  0
   10.6803   45.0587    2.8168 C   0  0  0  0  0  0  0  0  0  0  0  0
   11.6030   44.4946    3.7025 C   0  0  0  0  0  0  0  0  0  0  0  0
   13.4877   43.3022    5.5468 N   0  0  0  0  0  0  0  0  0  0  0  0
   14.9188   41.1872    8.0019 N   0  0  0  0  0  0  0  0  0  0  0  0
   13.9234   41.5840    7.2294 N   0  0  0  0  0  0  0  0  0  0  0  0
   11.5030   38.6255    8.6812 N   0  0  0  0  0  0  0  0  0  0  0  0
   14.0049   39.0108   10.5727 N   0  0  0  0  0  0  0  0  0  0  0  0
   14.5329   39.7634   11.5213 N   0  0  0  0  0  0  0  0  0  0  0  0
  2 21  1  0
  2 15  1  0
  4  5  1  0
  6 23  1  0
  6  7  1  0
  7  8  1  0
  8 24  1  0
  9 24  1  0
  9 10  1  0
 12 10  1  0
 13 24  1  0
 13 14  1  0
 14  6  1  0
 16 17  2  0
 18 19  2  0
 20 15  2  0
 21  3  1  0
 23 22  1  0
 23  3  1  0
 26 25  1  0
 26 11  1  0
  2  1  2  0
  3  4  2  0
  5 22  2  0
 10 25  2  0
 11 12  2  0
 15 16  1  0
 17 18  1  0
 19 20  1  0
M  END
>  <rmsd>  (1) 
0.242060587

$$$$
