MolPort-001-550-202 1139843 CSC046137627 CSSS00046137627 LN01004191 MCULE-2079171214 PubChem-1312780 ZINC000001139843 ZINC01139843
     RDKit          3D

 29 31  0  0  0  0  0  0  0  0999 V2000
   15.3225   45.9501    8.4147 C   0  0  0  0  0  0  0  0  0  0  0  0
   14.8659   43.6546    7.6004 C   0  0  0  0  0  0  0  0  0  0  0  0
   15.5835   43.0854    8.6635 C   0  0  0  0  0  0  0  0  0  0  0  0
   15.6669   41.7001    8.8215 C   0  0  0  0  0  0  0  0  0  0  0  0
   16.1309   40.0073   10.6863 C   0  0  0  0  0  0  0  0  0  0  0  0
   14.7429   39.5762   10.9648 C   0  0  0  0  0  0  0  0  0  0  0  0
   14.4931   38.2749   11.4261 C   0  0  0  0  0  0  0  0  0  0  0  0
   13.1877   37.8603   11.7058 C   0  0  0  0  0  0  0  0  0  0  0  0
   12.1211   38.7461   11.5327 C   0  0  0  0  0  0  0  0  0  0  0  0
   12.3602   40.0473   11.0837 C   0  0  0  0  0  0  0  0  0  0  0  0
   13.6657   40.4610   10.8047 C   0  0  0  0  0  0  0  0  0  0  0  0
   15.0465   40.8547    7.8797 C   0  0  0  0  0  0  0  0  0  0  0  0
   14.5554   38.5578    7.0901 C   0  0  0  0  0  0  0  0  0  0  0  0
   14.3297   41.4240    6.8165 C   0  0  0  0  0  0  0  0  0  0  0  0
   14.2486   42.8093    6.6570 C   0  0  0  0  0  0  0  0  0  0  0  0
   13.8553   44.4422    4.7405 C   0  0  0  0  0  0  0  0  0  0  0  0
   12.8570   45.0449    3.8295 C   0  0  0  0  0  0  0  0  0  0  0  0
   13.1662   46.1449    3.0003 C   0  0  0  0  0  0  0  0  0  0  0  0
   12.1894   46.6831    2.1561 C   0  0  0  0  0  0  0  0  0  0  0  0
   10.9041   46.1387    2.1274 C   0  0  0  0  0  0  0  0  0  0  0  0
   10.5892   45.0520    2.9445 C   0  0  0  0  0  0  0  0  0  0  0  0
   11.5601   44.5098    3.7898 C   0  0  0  0  0  0  0  0  0  0  0  0
   14.7323   45.0436    7.4929 O   0  0  0  0  0  0  0  0  0  0  0  0
   17.0898   39.3510   11.1732 O   0  0  0  0  0  0  0  0  0  0  0  0
   15.1688   39.4653    7.9954 O   0  0  0  0  0  0  0  0  0  0  0  0
   15.0374   44.8806    4.7722 O   0  0  0  0  0  0  0  0  0  0  0  0
   16.4256   41.1876    9.9256 N   0  0  0  0  0  0  0  0  0  0  0  0
   13.4877   43.3211    5.5555 N   0  0  0  0  0  0  0  0  0  0  0  0
   14.4021   46.7037    3.0006 F   0  0  0  0  0  0  0  0  0  0  0  0
  1 23  1  0
  2 23  1  0
  3  4  2  0
  4 27  1  0
  5  6  1  0
  7  8  2  0
  9 10  2  0
 11  6  2  0
 12 25  1  0
 12 14  2  0
 13 25  1  0
 15 28  1  0
 15  2  2  0
 16 17  1  0
 18 29  1  0
 18 19  2  0
 20 21  2  0
 22 17  2  0
 27  5  1  0
 28 16  1  0
  2  3  1  0
  4 12  1  0
  5 24  2  0
  6  7  1  0
  8  9  1  0
 10 11  1  0
 14 15  1  0
 16 26  2  0
 17 18  1  0
 19 20  1  0
 21 22  1  0
M  END
>  <rmsd>  (1) 
0.248566017

$$$$
