MolPort-004-981-861 CSSS09880942642 MCULE-9477330349 PubChem-45160585
     RDKit          3D

 32 35  0  0  0  0  0  0  0  0999 V2000
   19.2401   48.4596    7.6004 C   0  0  0  0  0  0  0  0  0  0  0  0
   19.8777   47.2968    8.2827 C   0  0  0  0  0  0  0  0  0  0  0  0
   21.1711   46.9228    7.9036 C   0  0  0  0  0  0  0  0  0  0  0  0
   21.8022   45.8405    8.5223 C   0  0  0  0  0  0  0  0  0  0  0  0
   21.1417   45.1267    9.5248 C   0  0  0  0  0  0  0  0  0  0  0  0
   19.8496   45.4945    9.9086 C   0  0  0  0  0  0  0  0  0  0  0  0
   19.2100   46.5775    9.2943 C   0  0  0  0  0  0  0  0  0  0  0  0
   17.8205   46.9311    9.7240 C   0  0  0  0  0  0  0  0  0  0  0  0
   16.4162   45.1129    8.6234 C   0  0  0  0  0  0  0  0  0  0  0  0
   16.8354   44.1252    9.5477 C   0  0  0  0  0  0  0  0  0  0  0  0
   15.5709   42.5059    8.4134 C   0  0  0  0  0  0  0  0  0  0  0  0
   15.1478   43.4268    7.4939 C   0  0  0  0  0  0  0  0  0  0  0  0
   15.5417   44.7586    7.5821 C   0  0  0  0  0  0  0  0  0  0  0  0
   14.2798   42.7610    6.6458 C   0  0  0  0  0  0  0  0  0  0  0  0
   14.1978   41.4487    7.1196 C   0  0  0  0  0  0  0  0  0  0  0  0
   15.1861   40.1175    9.0361 C   0  0  0  0  0  0  0  0  0  0  0  0
   14.3343   40.2224   10.2916 C   0  0  2  0  0  0  0  0  0  0  0  0
   14.6246   39.0539   11.2021 C   0  0  0  0  0  0  0  0  0  0  0  0
   13.2792   38.6761   11.7433 C   0  0  0  0  0  0  0  0  0  0  0  0
   12.3333   39.6523   11.0842 C   0  0  0  0  0  0  0  0  0  0  0  0
   13.3551   40.3809    6.5383 C   0  0  0  0  0  0  0  0  0  0  0  0
   11.6987   39.6772    4.8577 C   0  0  0  0  0  0  0  0  0  0  0  0
   13.8588   44.4441    4.7755 C   0  0  0  0  0  0  0  0  0  0  0  0
   12.8370   45.0643    3.8930 C   0  0  0  0  0  0  0  0  0  0  0  0
   16.8504   46.4711    8.7379 N   0  0  0  0  0  0  0  0  0  0  0  0
   16.4023   42.8347    9.4347 N   0  0  0  0  0  0  0  0  0  0  0  0
   15.0115   41.3006    8.2005 N   0  0  0  0  0  0  0  0  0  0  0  0
   13.5036   43.3107    5.5721 N   0  0  0  0  0  0  0  0  0  0  0  0
   12.9711   40.1977    9.9612 O   0  0  0  0  0  0  0  0  0  0  0  0
   13.3886   39.2146    7.0171 O   0  0  0  0  0  0  0  0  0  0  0  0
   12.5254   40.6663    5.4522 O   0  0  0  0  0  0  0  0  0  0  0  0
   15.0362   44.8893    4.7672 O   0  0  0  0  0  0  0  0  0  0  0  0
  1  2  1  0
  3  4  2  0
  5  6  2  0
  7  2  2  0
  8  7  1  0
  8 25  1  0
 10 26  2  0
 11 12  2  0
 12 14  1  0
 13  9  2  0
 14 28  1  0
 15 27  1  0
 15 21  1  0
 16 27  1  0
 17 16  1  6
 17 18  1  0
 17 29  1  0
 18 19  1  0
 19 20  1  0
 20 29  1  0
 21 31  1  0
 22 31  1  0
 24 23  1  0
 25  9  1  0
 27 11  1  0
 28 23  1  0
  2  3  1  0
  4  5  1  0
  6  7  1  0
  9 10  1  0
 11 26  1  0
 12 13  1  0
 14 15  2  0
 21 30  2  0
 23 32  2  0
M  END
>  <rmsd>  (1) 
0.166214243

$$$$
