MolPort-035-706-962 CSSS03437789216 MCULE-3816685128 PubChem-91938287
     RDKit          3D

 27 29  0  0  0  0  0  0  0  0999 V2000
   13.4915   35.8934    6.9189 C   0  0  0  0  0  0  0  0  0  0  0  0
   14.6902   36.2385    7.7773 C   0  0  0  0  0  0  0  0  0  0  0  0
   14.5185   37.8287    9.6504 C   0  0  0  0  0  0  0  0  0  0  0  0
   14.3885   39.2518   10.1215 C   0  0  1  0  0  0  0  0  0  0  0  0
   13.5005   39.3119   11.3563 C   0  0  0  0  0  0  0  0  0  0  0  0
   14.3477   41.0539    8.3661 C   0  0  0  0  0  0  0  0  0  0  0  0
   13.6439   41.6732    7.3289 C   0  0  0  0  0  0  0  0  0  0  0  0
   14.2301   42.7082    6.5917 C   0  0  0  0  0  0  0  0  0  0  0  0
   13.9018   44.3811    4.6749 C   0  0  0  0  0  0  0  0  0  0  0  0
   12.9895   44.8806    3.6401 C   0  0  0  0  0  0  0  0  0  0  0  0
    9.8886   44.8418    1.9192 C   0  0  0  0  0  0  0  0  0  0  0  0
   12.1116   45.9831    2.0010 C   0  0  0  0  0  0  0  0  0  0  0  0
   11.8726   46.9352    0.8801 C   0  0  0  0  0  0  0  0  0  0  0  0
   13.2747   45.9040    2.7433 C   0  0  0  0  0  0  0  0  0  0  0  0
   15.5344   43.1214    6.9056 C   0  0  0  0  0  0  0  0  0  0  0  0
   16.2400   42.5067    7.9437 C   0  0  0  0  0  0  0  0  0  0  0  0
   15.6459   41.4735    8.6721 C   0  0  0  0  0  0  0  0  0  0  0  0
   15.7624   39.7825   10.4798 C   0  0  0  0  0  0  0  0  0  0  0  0
   14.5487   37.5585    8.2800 O   0  0  0  0  0  0  0  0  0  0  0  0
   14.6560   36.8917   10.4863 O   0  0  0  0  0  0  0  0  0  0  0  0
   13.7455   40.0211    9.0925 O   0  0  0  0  0  0  0  0  0  0  0  0
   15.0476   44.8923    4.7966 O   0  0  0  0  0  0  0  0  0  0  0  0
   16.4100   39.2675   11.4307 O   0  0  0  0  0  0  0  0  0  0  0  0
   13.4745   43.3153    5.5349 N   0  0  0  0  0  0  0  0  0  0  0  0
   11.7489   44.3918    3.4412 N   0  0  0  0  0  0  0  0  0  0  0  0
   11.2254   45.0724    2.4397 N   0  0  0  0  0  0  0  0  0  0  0  0
   16.3519   40.8503    9.7381 N   0  0  0  0  0  0  0  0  0  0  0  0
  1  2  1  0
  2 19  1  0
  3 19  1  0
  4  3  1  0
  4  5  1  1
  4 21  1  0
  4 18  1  0
  6 21  1  0
  7  8  2  0
  8 24  1  0
  9 10  1  0
 11 26  1  0
 13 12  1  0
 14 10  1  0
 15 16  2  0
 17 27  1  0
 17  6  2  0
 24  9  1  0
 26 25  1  0
 26 12  1  0
 27 18  1  0
  3 20  2  0
  6  7  1  0
  8 15  1  0
  9 22  2  0
 10 25  2  0
 12 14  2  0
 16 17  1  0
 18 23  2  0
M  END
>  <rmsd>  (1) 
0.233435139

$$$$
