MolPort-045-950-974 822752122 CSSS00160386206 MCULE-1936791029 PubChem-131927634 ZINC000822752122
     RDKit          3D

 27 28  0  0  0  0  0  0  0  0999 V2000
   14.3886   42.9750    1.7865 C   0  0  0  0  0  0  0  0  0  0  0  0
   13.0728   43.2436    2.4931 C   0  0  0  0  0  0  0  0  0  0  0  0
   13.1720   44.4977    3.3474 C   0  0  0  0  0  0  0  0  0  0  0  0
   13.9703   44.2428    4.5811 C   0  0  0  0  0  0  0  0  0  0  0  0
   14.2635   42.7723    6.6369 C   0  0  0  0  0  0  0  0  0  0  0  0
   13.6449   42.6080    7.8801 C   0  0  0  0  0  0  0  0  0  0  0  0
   14.3491   42.0702    8.9581 C   0  0  0  0  0  0  0  0  0  0  0  0
   15.6813   41.6675    8.8011 C   0  0  0  0  0  0  0  0  0  0  0  0
   15.9123   40.6502   11.1348 C   0  0  0  0  0  0  0  0  0  0  0  0
   14.6162   39.9343   11.1966 C   0  0  0  0  0  0  0  0  0  0  0  0
   13.7746   40.0231   12.3307 C   0  0  0  0  0  0  0  0  0  0  0  0
   13.4568   41.0581   14.5966 C   0  0  0  0  0  0  0  0  0  0  0  0
   12.5576   39.2909   12.3488 C   0  0  0  0  0  0  0  0  0  0  0  0
   10.4705   38.6472   13.5254 C   0  0  0  0  0  0  0  0  0  0  0  0
   12.2141   38.4951   11.2444 C   0  0  0  0  0  0  0  0  0  0  0  0
   13.0506   38.4127   10.1357 C   0  0  0  0  0  0  0  0  0  0  0  0
   14.2449   39.1256   10.1151 C   0  0  0  0  0  0  0  0  0  0  0  0
   16.2987   41.8148    7.5572 C   0  0  0  0  0  0  0  0  0  0  0  0
   15.5987   42.3483    6.4619 C   0  0  0  0  0  0  0  0  0  0  0  0
   17.5382   42.0139    4.9561 C   0  0  0  0  0  0  0  0  0  0  0  0
   15.0364   44.8861    4.7716 O   0  0  0  0  0  0  0  0  0  0  0  0
   16.6073   40.7677   12.1786 O   0  0  0  0  0  0  0  0  0  0  0  0
   14.1800   40.8536   13.3913 O   0  0  0  0  0  0  0  0  0  0  0  0
   11.7001   39.3571   13.4534 O   0  0  0  0  0  0  0  0  0  0  0  0
   16.2020   42.4312    5.2016 O   0  0  0  0  0  0  0  0  0  0  0  0
   13.4886   43.3165    5.5609 N   0  0  0  0  0  0  0  0  0  0  0  0
   16.4431   41.1505    9.8993 N   0  0  0  0  0  0  0  0  0  0  0  0
  1  2  1  0
  2  3  1  0
  3  4  1  0
  4 26  1  0
  6  7  2  0
  8 27  1  0
  8 18  2  0
  9 10  1  0
 11 23  1  0
 11 13  2  0
 12 23  1  0
 13 24  1  0
 14 24  1  0
 15 16  2  0
 17 10  2  0
 19 25  1  0
 19  5  2  0
 20 25  1  0
 26  5  1  0
 27  9  1  0
  4 21  2  0
  5  6  1  0
  7  8  1  0
  9 22  2  0
 10 11  1  0
 13 15  1  0
 16 17  1  0
 18 19  1  0
M  END
>  <rmsd>  (1) 
0.240097493

$$$$
