MolPort-002-958-417 4694967 CSSS00039171529 MCULE-5656315913 PubChem-3897640 ZINC000004694967 ZINC04694967
     RDKit          3D

 16 16  0  0  0  0  0  0  0  0999 V2000
   15.0210   38.5261   12.8954 C   0  0  0  0  0  0  0  0  0  0  0  0
   13.5794   38.4343   12.4333 C   0  0  0  0  0  0  0  0  0  0  0  0
   13.4628   38.8053   10.9632 C   0  0  0  0  0  0  0  0  0  0  0  0
   13.3508   40.3139   10.7798 C   0  0  0  0  0  0  0  0  0  0  0  0
   14.7130   40.9932   10.8479 C   0  0  0  0  0  0  0  0  0  0  0  0
   15.5523   40.6901    9.6135 C   0  0  0  0  0  0  0  0  0  0  0  0
   15.1847   41.5807    8.4738 C   0  0  0  0  0  0  0  0  0  0  0  0
   14.2568   42.7675    6.6141 C   0  0  0  0  0  0  0  0  0  0  0  0
   13.9053   44.3593    4.6677 C   0  0  0  0  0  0  0  0  0  0  0  0
   13.4000   45.8287    2.7600 C   0  0  0  0  0  0  0  0  0  0  0  0
   16.0241   42.5069    7.9608 N   0  0  0  0  0  0  0  0  0  0  0  0
   15.5077   43.1708    6.9281 N   0  0  0  0  0  0  0  0  0  0  0  0
   13.4772   43.3135    5.5458 N   0  0  0  0  0  0  0  0  0  0  0  0
   15.0474   44.8801    4.7963 O   0  0  0  0  0  0  0  0  0  0  0  0
   13.0396   44.7960    3.6650 O   0  0  0  0  0  0  0  0  0  0  0  0
   13.7250   41.5362    7.6285 S   0  0  0  0  0  0  0  0  0  0  0  0
  1  2  1  0
  2  3  1  0
  3  4  1  0
  4  5  1  0
  5  6  1  0
  6  7  1  0
  7 16  1  0
  8 13  1  0
  8 16  1  0
  9 15  1  0
 10 15  1  0
 11 12  1  0
 13  9  1  0
  7 11  2  0
  8 12  2  0
  9 14  2  0
M  END
>  <rmsd>  (1) 
0.197229877

$$$$
