MolPort-020-292-520 MCULE-4285768089 PubChem-110264988
     RDKit          3D

 31 34  0  0  0  0  0  0  0  0999 V2000
   17.5777   43.0370    8.3394 C   0  0  0  0  0  0  0  0  0  0  0  0
   16.2046   42.5760    8.0078 C   0  0  0  0  0  0  0  0  0  0  0  0
   15.5093   43.1614    6.9484 C   0  0  0  0  0  0  0  0  0  0  0  0
   14.2152   42.7211    6.6418 C   0  0  0  0  0  0  0  0  0  0  0  0
   13.6455   41.7005    7.4066 C   0  0  0  0  0  0  0  0  0  0  0  0
   14.3694   41.1368    8.4604 C   0  0  0  0  0  0  0  0  0  0  0  0
   13.7550   40.0453    9.2722 C   0  0  2  0  0  0  0  0  0  0  0  0
   13.6331   40.4648   10.7381 C   0  0  0  0  0  0  0  0  0  0  0  0
   12.9959   39.3457   11.5587 C   0  0  0  0  0  0  0  0  0  0  0  0
   13.8222   38.0685   11.4362 C   0  0  0  0  0  0  0  0  0  0  0  0
   14.5740   38.7608    9.1524 C   0  0  0  0  0  0  0  0  0  0  0  0
   13.4600   36.5327    9.4657 C   0  0  0  0  0  0  0  0  0  0  0  0
   13.2466   35.3234   10.2874 C   0  0  0  0  0  0  0  0  0  0  0  0
   14.0405   34.8099   11.2965 C   0  0  0  0  0  0  0  0  0  0  0  0
   12.2303   34.3937   10.1690 C   0  0  0  0  0  0  0  0  0  0  0  0
   11.0759   34.4617    9.2209 C   0  0  0  0  0  0  0  0  0  0  0  0
   11.0238   33.2164    8.3576 C   0  0  0  0  0  0  0  0  0  0  0  0
    9.7749   34.6147    9.9839 C   0  0  0  0  0  0  0  0  0  0  0  0
   15.3266   35.3621   11.8053 C   0  0  0  0  0  0  0  0  0  0  0  0
   13.8498   44.3296    4.6682 C   0  0  0  0  0  0  0  0  0  0  0  0
   13.3209   45.7229    2.8296 C   0  0  0  0  0  0  0  0  0  0  0  0
   14.5687   46.3365    2.9189 C   0  0  0  0  0  0  0  0  0  0  0  0
   15.4445   45.9100    3.9151 C   0  0  0  0  0  0  0  0  0  0  0  0
   15.6265   41.5842    8.7362 N   0  0  0  0  0  0  0  0  0  0  0  0
   14.0068   37.7369   10.0251 N   0  0  0  0  0  0  0  0  0  0  0  0
   12.4092   33.4139   11.0787 N   0  0  0  0  0  0  0  0  0  0  0  0
   13.4519   43.2839    5.5653 N   0  0  0  0  0  0  0  0  0  0  0  0
   12.9852   44.7358    3.7008 N   0  0  0  0  0  0  0  0  0  0  0  0
   15.0726   44.9199    4.7675 N   0  0  0  0  0  0  0  0  0  0  0  0
   13.1392   36.5043    8.2467 O   0  0  0  0  0  0  0  0  0  0  0  0
   13.5013   33.6945   11.7301 O   0  0  0  0  0  0  0  0  0  0  0  0
  1  2  1  0
  2 24  2  0
  3  4  2  0
  4 27  1  0
  5  6  2  0
  7  6  1  6
  7  8  1  0
  8  9  1  0
  9 10  1  0
 10 25  1  0
 11 25  1  0
 11  7  1  0
 12 13  1  0
 14 31  1  0
 15 13  1  0
 16 15  1  0
 16 17  1  0
 16 18  1  0
 19 14  1  0
 20 29  2  0
 21 28  2  0
 22 23  2  0
 25 12  1  0
 27 20  1  0
 31 26  1  0
  2  3  1  0
  4  5  1  0
  6 24  1  0
 12 30  2  0
 13 14  2  0
 15 26  2  0
 20 28  1  0
 21 22  1  0
 23 29  1  0
M  END
>  <rmsd>  (1) 
0.242799357

$$$$
