MolPort-001-980-280 871420 MCULE-4930312388 PubChem-1131017 ZINC000000871420 ZINC00871420
     RDKit          3D

 27 29  0  0  0  0  0  0  0  0999 V2000
    9.6451   44.8361   -0.3470 C   0  0  0  0  0  0  0  0  0  0  0  0
   11.6227   45.1539    1.1043 C   0  0  0  0  0  0  0  0  0  0  0  0
   11.1802   44.1972    2.0317 C   0  0  0  0  0  0  0  0  0  0  0  0
   11.9423   43.9121    3.1677 C   0  0  0  0  0  0  0  0  0  0  0  0
   13.1549   44.5780    3.3929 C   0  0  0  0  0  0  0  0  0  0  0  0
   13.5948   45.5325    2.4647 C   0  0  0  0  0  0  0  0  0  0  0  0
   12.8327   45.8179    1.3283 C   0  0  0  0  0  0  0  0  0  0  0  0
   13.9592   44.2751    4.5893 C   0  0  0  0  0  0  0  0  0  0  0  0
   14.2799   42.7215    6.5783 C   0  0  0  0  0  0  0  0  0  0  0  0
   15.6061   42.2952    6.4909 C   0  0  0  0  0  0  0  0  0  0  0  0
   16.4006   42.3685    5.2893 C   0  0  0  0  0  0  0  0  0  0  0  0
   16.0613   41.6800    7.6725 C   0  0  0  0  0  0  0  0  0  0  0  0
   17.4400   41.1205    7.8156 C   0  0  0  0  0  0  0  0  0  0  0  0
   15.0836   41.5949    8.6714 C   0  0  0  0  0  0  0  0  0  0  0  0
   15.2582   41.0404   10.0342 C   0  0  0  0  0  0  0  0  0  0  0  0
   14.2966   40.3709   12.2550 C   0  0  0  0  0  0  0  0  0  0  0  0
   14.2034   38.8757   12.5480 C   0  0  0  0  0  0  0  0  0  0  0  0
   12.9045   38.3110   11.9744 C   0  0  0  0  0  0  0  0  0  0  0  0
   12.8278   38.5698   10.4704 C   0  0  0  0  0  0  0  0  0  0  0  0
   12.9292   40.0673   10.1944 C   0  0  0  0  0  0  0  0  0  0  0  0
   10.8837   45.4618   -0.0413 O   0  0  0  0  0  0  0  0  0  0  0  0
   15.0384   44.8949    4.7950 O   0  0  0  0  0  0  0  0  0  0  0  0
   16.4184   40.9769   10.5244 O   0  0  0  0  0  0  0  0  0  0  0  0
   13.4879   43.3153    5.5429 N   0  0  0  0  0  0  0  0  0  0  0  0
   17.0390   42.4250    4.3255 N   0  0  0  0  0  0  0  0  0  0  0  0
   14.1388   40.5957   10.8202 N   0  0  0  0  0  0  0  0  0  0  0  0
   13.6679   42.2965    8.0802 S   0  0  0  0  0  0  0  0  0  0  0  0
  1 21  1  0
  2 21  1  0
  3  4  2  0
  5  6  2  0
  5  8  1  0
  7  2  2  0
  8 24  1  0
  9 27  1  0
 10 11  1  0
 10 12  1  0
 13 12  1  0
 14 27  1  0
 14 15  1  0
 15 26  1  0
 16 26  1  0
 16 17  1  0
 17 18  1  0
 18 19  1  0
 19 20  1  0
 20 26  1  0
 24  9  1  0
  2  3  1  0
  4  5  1  0
  6  7  1  0
  8 22  2  0
  9 10  2  0
 12 14  2  0
 15 23  2  0
 11 25  3  0
M  END
>  <rmsd>  (1) 
0.208438829

$$$$
