MolPort-046-971-918 MCULE-4054959356
     RDKit          3D

 26 29  0  0  0  0  0  0  0  0999 V2000
   13.8801   44.3166    4.6923 C   0  0  0  0  0  0  0  0  0  0  0  0
   14.1289   46.0439    2.9479 C   0  0  0  0  0  0  0  0  0  0  0  0
   15.2157   45.8754    3.8057 C   0  0  0  0  0  0  0  0  0  0  0  0
   16.4549   46.6863    3.6812 C   0  0  0  0  0  0  0  0  0  0  0  0
   14.2049   42.7220    6.6475 C   0  0  0  0  0  0  0  0  0  0  0  0
   13.6466   41.7094    7.4271 C   0  0  0  0  0  0  0  0  0  0  0  0
   14.3999   41.1798    8.4745 C   0  0  0  0  0  0  0  0  0  0  0  0
   13.8230   40.0936    9.3197 C   0  0  2  0  0  0  0  0  0  0  0  0
   13.7190   40.5375   10.7820 C   0  0  0  0  0  0  0  0  0  0  0  0
   13.6312   39.3560   11.7517 C   0  0  0  0  0  0  0  0  0  0  0  0
   13.1614   38.0932   11.0340 C   0  0  0  0  0  0  0  0  0  0  0  0
   13.3958   36.8009    9.0894 C   0  0  0  0  0  0  0  0  0  0  0  0
   14.2909   35.7053    8.6189 C   0  0  0  0  0  0  0  0  0  0  0  0
   14.6509   35.4826    7.3074 C   0  0  0  0  0  0  0  0  0  0  0  0
   15.4690   34.3680    7.3893 C   0  0  0  0  0  0  0  0  0  0  0  0
   14.6438   38.8049    9.1904 C   0  0  0  0  0  0  0  0  0  0  0  0
   16.1832   42.6400    7.9453 C   0  0  0  0  0  0  0  0  0  0  0  0
   17.5532   43.1435    8.2237 C   0  0  0  0  0  0  0  0  0  0  0  0
   12.9572   44.9360    3.4407 S   0  0  0  0  0  0  0  0  0  0  0  0
   15.0813   44.9241    4.7683 N   0  0  0  0  0  0  0  0  0  0  0  0
   13.4418   43.2743    5.5697 N   0  0  0  0  0  0  0  0  0  0  0  0
   14.1159   37.6837    9.9940 N   0  0  0  0  0  0  0  0  0  0  0  0
   15.5667   33.9778    8.6759 N   0  0  0  0  0  0  0  0  0  0  0  0
   14.8478   34.7917    9.4282 N   0  0  0  0  0  0  0  0  0  0  0  0
   15.6532   41.6533    8.7136 N   0  0  0  0  0  0  0  0  0  0  0  0
   15.4614   43.1670    6.9221 N   0  0  0  0  0  0  0  0  0  0  0  0
  1 19  1  0
  1 21  1  0
  2 19  1  0
  3 20  1  0
  4  3  1  0
  5 26  2  0
  6  7  2  0
  8  7  1  6
  8  9  1  0
  9 10  1  0
 10 11  1  0
 11 22  1  0
 12 22  1  0
 12 13  1  0
 13 14  1  0
 15 23  1  0
 16 22  1  0
 16  8  1  0
 17 25  2  0
 18 17  1  0
 21  5  1  0
 23 24  1  0
  1 20  2  0
  2  3  2  0
  5  6  1  0
  7 25  1  0
 13 24  2  0
 14 15  2  0
 17 26  1  0
M  END
>  <rmsd>  (1) 
0.247431546

$$$$
