MolPort-006-503-558 MCULE-7225537310 PubChem-8081718 ZINC000006776333 ZINC06776333
     RDKit          3D

 30 33  0  0  0  0  0  0  0  0999 V2000
   19.8835   39.2502   12.3160 C   0  0  0  0  0  0  0  0  0  0  0  0
   18.1893   40.2156   10.8238 C   0  0  0  0  0  0  0  0  0  0  0  0
   16.1063   40.0129   10.6810 C   0  0  0  0  0  0  0  0  0  0  0  0
   15.7237   41.5047    8.6760 C   0  0  0  0  0  0  0  0  0  0  0  0
   16.2253   42.6394    8.0229 C   0  0  0  0  0  0  0  0  0  0  0  0
   15.5011   43.2421    6.9916 C   0  0  0  0  0  0  0  0  0  0  0  0
   14.2655   42.7139    6.5898 C   0  0  0  0  0  0  0  0  0  0  0  0
   13.7703   41.5732    7.2279 C   0  0  0  0  0  0  0  0  0  0  0  0
   14.4966   40.9679    8.2568 C   0  0  0  0  0  0  0  0  0  0  0  0
   13.8742   44.4138    4.7107 C   0  0  0  0  0  0  0  0  0  0  0  0
   12.9098   44.9770    3.7499 C   0  0  0  0  0  0  0  0  0  0  0  0
   11.5865   44.5111    3.7152 C   0  0  0  0  0  0  0  0  0  0  0  0
   10.6710   45.0482    2.8053 C   0  0  0  0  0  0  0  0  0  0  0  0
   11.0722   46.0550    1.9230 C   0  0  0  0  0  0  0  0  0  0  0  0
   12.3892   46.5240    1.9493 C   0  0  0  0  0  0  0  0  0  0  0  0
   13.3051   45.9860    2.8581 C   0  0  0  0  0  0  0  0  0  0  0  0
   14.7172   39.6420   11.0060 C   0  0  0  0  0  0  0  0  0  0  0  0
   14.3935   38.2862   11.1540 C   0  0  0  0  0  0  0  0  0  0  0  0
   13.0931   37.9034   11.4928 C   0  0  0  0  0  0  0  0  0  0  0  0
   12.1099   38.8755   11.7001 C   0  0  0  0  0  0  0  0  0  0  0  0
   12.4295   40.2303   11.5787 C   0  0  0  0  0  0  0  0  0  0  0  0
   13.7297   40.6180   11.2414 C   0  0  0  0  0  0  0  0  0  0  0  0
   19.5159   40.0899   11.2334 O   0  0  0  0  0  0  0  0  0  0  0  0
   15.0382   44.8947    4.7839 O   0  0  0  0  0  0  0  0  0  0  0  0
   17.1559   39.5654   11.4005 N   0  0  0  0  0  0  0  0  0  0  0  0
   16.4994   40.8787    9.7147 N   0  0  0  0  0  0  0  0  0  0  0  0
   17.8118   41.0115    9.8082 N   0  0  0  0  0  0  0  0  0  0  0  0
   13.4846   43.3152    5.5481 N   0  0  0  0  0  0  0  0  0  0  0  0
   12.7824   47.4897    1.0839 F   0  0  0  0  0  0  0  0  0  0  0  0
   14.0260   41.9405   11.1718 F   0  0  0  0  0  0  0  0  0  0  0  0
  1 23  1  0
  2 23  1  0
  2 25  1  0
  3 26  1  0
  3 17  1  0
  5  6  2  0
  7  8  2  0
  7 28  1  0
  9  4  2  0
 10 11  1  0
 12 13  2  0
 14 15  2  0
 15 29  1  0
 16 11  2  0
 18 19  2  0
 20 21  2  0
 22 30  1  0
 22 17  2  0
 26 27  1  0
 26  4  1  0
 28 10  1  0
  2 27  2  0
  3 25  2  0
  4  5  1  0
  6  7  1  0
  8  9  1  0
 10 24  2  0
 11 12  1  0
 13 14  1  0
 15 16  1  0
 17 18  1  0
 19 20  1  0
 21 22  1  0
M  END
>  <rmsd>  (1) 
0.232636556

$$$$
