Molport-051-860-976
     RDKit          3D

 22 23  0  0  0  0  0  0  0  0999 V2000
   13.1493   45.8458    2.8980 C   0  0  0  0  0  0  0  0  0  0  0  0
   13.8595   44.3588    4.7252 C   0  0  0  0  0  0  0  0  0  0  0  0
   14.4184   42.7433    6.6064 C   0  0  0  0  0  0  0  0  0  0  0  0
   15.1355   41.5296    8.1649 C   0  0  0  0  0  0  0  0  0  0  0  0
   15.3171   40.5960    9.1810 C   0  0  0  0  0  0  0  0  0  0  0  0
   16.5679   40.5723    9.8269 C   0  0  0  0  0  0  0  0  0  0  0  0
   16.3123   40.3969   12.5437 C   0  0  0  0  0  0  0  0  0  0  0  0
   16.6202   39.6531   13.8312 C   0  0  0  0  0  0  0  0  0  0  0  0
   17.0816   41.7040   12.5909 C   0  0  0  0  0  0  0  0  0  0  0  0
   14.8130   40.7150   12.4550 C   0  0  0  0  0  0  0  0  0  0  0  0
   13.9227   39.5046   12.4259 C   0  0  0  0  0  0  0  0  0  0  0  0
   13.1062   39.2134   11.2151 C   0  0  0  0  0  0  0  0  0  0  0  0
   17.5943   41.4582    9.4244 C   0  0  0  0  0  0  0  0  0  0  0  0
   17.3756   42.3883    8.3915 C   0  0  0  0  0  0  0  0  0  0  0  0
   16.1211   42.3898    7.7879 C   0  0  0  0  0  0  0  0  0  0  0  0
   12.8936   44.7959    3.8187 O   0  0  0  0  0  0  0  0  0  0  0  0
   15.0015   44.8950    4.7483 O   0  0  0  0  0  0  0  0  0  0  0  0
   13.8271   38.7823   13.4047 O   0  0  0  0  0  0  0  0  0  0  0  0
   13.5336   43.2951    5.6255 N   0  0  0  0  0  0  0  0  0  0  0  0
   14.0349   41.7314    7.4271 N   0  0  0  0  0  0  0  0  0  0  0  0
   15.6933   43.1788    6.7930 N   0  0  0  0  0  0  0  0  0  0  0  0
   16.8830   39.3740   11.1277 S   0  0  0  0  0  0  0  0  0  0  0  0
  1 16  1  0
  2 16  1  0
  2 19  1  0
  4 20  1  0
  5  6  2  0
  6 22  1  0
  7 22  1  0
  7  8  1  0
  7  9  1  0
  7 10  1  0
 10 11  1  0
 12 11  1  0
 13 14  2  0
 15 21  1  0
 15  4  2  0
 19  3  1  0
 21  3  1  0
  2 17  2  0
  3 20  2  0
  4  5  1  0
  6 13  1  0
 11 18  2  0
 14 15  1  0
M  END
>  <rmsd>  (1) 
0.248585761

$$$$
