MolPort-007-710-791 ChemDiv-D481-2659 MCULE-6464981185 PubChem-46269944 ZINC000033019591 ZINC33019591
     RDKit          3D

 31 34  0  0  0  0  0  0  0  0999 V2000
   12.9202   44.9583    3.7228 C   0  0  0  0  0  0  0  0  0  0  0  0
   13.8841   44.4045    4.7083 C   0  0  0  0  0  0  0  0  0  0  0  0
   14.2651   42.6874    6.5717 C   0  0  0  0  0  0  0  0  0  0  0  0
   13.7295   41.5897    7.2524 C   0  0  0  0  0  0  0  0  0  0  0  0
   14.4612   40.9583    8.2618 C   0  0  0  0  0  0  0  0  0  0  0  0
   15.7358   41.4225    8.6146 C   0  0  0  0  0  0  0  0  0  0  0  0
   16.2765   42.5145    7.9225 C   0  0  0  0  0  0  0  0  0  0  0  0
   15.5461   43.1452    6.9117 C   0  0  0  0  0  0  0  0  0  0  0  0
   16.5410   40.7506    9.6579 C   0  0  0  0  0  0  0  0  0  0  0  0
   17.1994   39.5300   11.2579 C   0  0  0  0  0  0  0  0  0  0  0  0
   16.9601   39.8667   13.8248 C   0  0  0  0  0  0  0  0  0  0  0  0
   15.9210   39.5084   14.8368 C   0  0  0  0  0  0  0  0  0  0  0  0
   15.2241   39.0277   17.1974 C   0  0  0  0  0  0  0  0  0  0  0  0
   15.5358   39.6414   18.5622 C   0  0  0  0  0  0  0  0  0  0  0  0
   17.6908   40.0841   18.0969 C   0  0  0  0  0  0  0  0  0  0  0  0
   17.6405   39.5278   16.6738 C   0  0  0  0  0  0  0  0  0  0  0  0
   14.7254   39.6052   10.9859 C   0  0  0  0  0  0  0  0  0  0  0  0
   14.3140   38.2715   11.1174 C   0  0  0  0  0  0  0  0  0  0  0  0
   13.0063   37.9734   11.5104 C   0  0  0  0  0  0  0  0  0  0  0  0
   12.1048   39.0069   11.7808 C   0  0  0  0  0  0  0  0  0  0  0  0
   12.5115   40.3388   11.6610 C   0  0  0  0  0  0  0  0  0  0  0  0
   13.8192   40.6377   11.2684 C   0  0  0  0  0  0  0  0  0  0  0  0
   15.0387   44.9004    4.7881 O   0  0  0  0  0  0  0  0  0  0  0  0
   14.7404   39.2920   14.4504 O   0  0  0  0  0  0  0  0  0  0  0  0
   16.8541   39.3275   18.9353 O   0  0  0  0  0  0  0  0  0  0  0  0
   13.4824   43.3129    5.5455 N   0  0  0  0  0  0  0  0  0  0  0  0
   17.8835   40.8663    9.7271 N   0  0  0  0  0  0  0  0  0  0  0  0
   18.2948   40.1052   10.7302 N   0  0  0  0  0  0  0  0  0  0  0  0
   16.2474   39.4347   16.2327 N   0  0  0  0  0  0  0  0  0  0  0  0
   16.0777   39.9098   10.6132 N   0  0  0  0  0  0  0  0  0  0  0  0
   17.2463   38.4682   12.7013 S   0  0  0  0  0  0  0  0  0  0  0  0
  1  2  1  0
  2 26  1  0
  4  5  2  0
  6  7  2  0
  6  9  1  0
  8  3  2  0
 10 31  1  0
 10 30  1  0
 11 31  1  0
 11 12  1  0
 12 29  1  0
 13 29  1  0
 13 14  1  0
 14 25  1  0
 15 25  1  0
 15 16  1  0
 16 29  1  0
 18 19  2  0
 20 21  2  0
 22 17  2  0
 26  3  1  0
 27 28  1  0
 30 17  1  0
 30  9  1  0
  2 23  2  0
  3  4  1  0
  5  6  1  0
  7  8  1  0
  9 27  2  0
 10 28  2  0
 12 24  2  0
 17 18  1  0
 19 20  1  0
 21 22  1  0
M  END
>  <rmsd>  (1) 
0.238875881

$$$$
