MolPort-019-814-206 CHEMBL3479987 CSSS00159522515 MCULE-2733536941 PubChem-56713837
     RDKit          3D

 26 29  0  0  0  0  0  0  0  0999 V2000
   12.9817   44.9002    3.6328 C   0  0  0  0  0  0  0  0  0  0  0  0
   13.9046   44.3855    4.6773 C   0  0  0  0  0  0  0  0  0  0  0  0
   14.2274   42.7021    6.5829 C   0  0  0  0  0  0  0  0  0  0  0  0
   15.5321   43.1114    6.8998 C   0  0  0  0  0  0  0  0  0  0  0  0
   16.2371   42.4883    7.9334 C   0  0  0  0  0  0  0  0  0  0  0  0
   15.6447   41.4478    8.6549 C   0  0  0  0  0  0  0  0  0  0  0  0
   16.3845   40.8008    9.7735 C   0  0  0  0  0  0  0  0  0  0  0  0
   17.3374   42.2289   11.4448 C   0  0  0  0  0  0  0  0  0  0  0  0
   18.5357   41.2958   11.7474 C   0  0  0  0  0  0  0  0  0  0  0  0
   18.0746   40.0684   12.4632 C   0  0  0  0  0  0  0  0  0  0  0  0
   16.7708   39.7184   12.5875 C   0  0  0  0  0  0  0  0  0  0  0  0
   17.9594   38.2482   13.5402 C   0  0  0  0  0  0  0  0  0  0  0  0
   15.6569   40.5961   12.1006 C   0  0  2  0  0  0  0  0  0  0  0  0
   14.4230   39.8285   11.7267 C   0  0  0  0  0  0  0  0  0  0  0  0
   13.1671   40.0534   12.2562 C   0  0  0  0  0  0  0  0  0  0  0  0
   12.3380   39.1318   11.6353 C   0  0  0  0  0  0  0  0  0  0  0  0
   13.1596   38.4229   10.7817 C   0  0  0  0  0  0  0  0  0  0  0  0
   12.7175   37.3174    9.8918 C   0  0  0  0  0  0  0  0  0  0  0  0
   14.3424   41.0412    8.3493 C   0  0  0  0  0  0  0  0  0  0  0  0
   13.6386   41.6653    7.3153 C   0  0  0  0  0  0  0  0  0  0  0  0
   15.0493   44.8967    4.7957 O   0  0  0  0  0  0  0  0  0  0  0  0
   14.3926   38.8525   10.8537 O   0  0  0  0  0  0  0  0  0  0  0  0
   13.4731   43.3171    5.5295 N   0  0  0  0  0  0  0  0  0  0  0  0
   16.1150   41.5107   11.0269 N   0  0  0  0  0  0  0  0  0  0  0  0
   16.6686   38.5790   13.2890 N   0  0  0  0  0  0  0  0  0  0  0  0
   18.8507   39.1414   13.0428 N   0  0  0  0  0  0  0  0  0  0  0  0
  1  2  1  0
  2 23  1  0
  4  5  2  0
  6 19  2  0
  7  6  1  0
  7 24  1  0
  8 24  1  0
  8  9  1  0
  9 10  1  0
 11 25  1  0
 12 26  1  0
 13 11  1  0
 13 14  1  6
 13 24  1  0
 14 22  1  0
 15 16  1  0
 17 22  1  0
 18 17  1  0
 20  3  2  0
 23  3  1  0
 26 10  1  0
  2 21  2  0
  3  4  1  0
  5  6  1  0
 10 11  2  0
 12 25  2  0
 14 15  2  0
 16 17  2  0
 19 20  1  0
M  END
>  <rmsd>  (1) 
0.243103668

$$$$
