Molport-051-950-059 CSSS20538622895
     RDKit          3D

 27 30  0  0  0  0  0  0  0  0999 V2000
   17.2770   39.6928    1.2417 C   0  0  0  0  0  0  0  0  0  0  0  0
   16.5177   40.7327    1.9834 C   0  0  0  0  0  0  0  0  0  0  0  0
   15.2463   40.4431    2.4881 C   0  0  0  0  0  0  0  0  0  0  0  0
   14.5321   41.4213    3.1862 C   0  0  0  0  0  0  0  0  0  0  0  0
   15.0880   42.6906    3.3813 C   0  0  0  0  0  0  0  0  0  0  0  0
   16.3601   42.9789    2.8744 C   0  0  0  0  0  0  0  0  0  0  0  0
   17.0744   42.0007    2.1761 C   0  0  0  0  0  0  0  0  0  0  0  0
   14.1923   42.5612    6.6802 C   0  0  0  0  0  0  0  0  0  0  0  0
   14.7906   41.3865    8.3841 C   0  0  0  0  0  0  0  0  0  0  0  0
   13.4829   40.3264   10.0003 C   0  0  0  0  0  0  0  0  0  0  0  0
   13.3624   39.4619   11.2028 C   0  0  0  0  0  0  0  0  0  0  0  0
   12.4120   41.6462    8.3122 C   0  0  0  0  0  0  0  0  0  0  0  0
   13.6837   41.9084    7.7846 C   0  0  0  0  0  0  0  0  0  0  0  0
   11.1594   42.1944    7.7557 C   0  0  0  0  0  0  0  0  0  0  0  0
   11.0907   43.5118    7.2801 C   0  0  0  0  0  0  0  0  0  0  0  0
    9.8850   44.0303    6.7992 C   0  0  0  0  0  0  0  0  0  0  0  0
    8.7336   43.2390    6.8042 C   0  0  0  0  0  0  0  0  0  0  0  0
    8.7869   41.9322    7.2956 C   0  0  0  0  0  0  0  0  0  0  0  0
    9.9937   41.4148    7.7756 C   0  0  0  0  0  0  0  0  0  0  0  0
   14.1895   43.9114    4.2641 S   0  0  0  0  0  0  0  0  0  0  0  0
   13.1323   44.4911    3.3681 O   0  0  0  0  0  0  0  0  0  0  0  0
   15.1084   45.0115    4.7170 O   0  0  0  0  0  0  0  0  0  0  0  0
   13.4379   43.1958    5.6481 N   0  0  0  0  0  0  0  0  0  0  0  0
   15.5394   42.4259    6.6599 N   0  0  0  0  0  0  0  0  0  0  0  0
   15.9104   41.7026    7.7119 N   0  0  0  0  0  0  0  0  0  0  0  0
   14.7160   40.5982    9.4815 N   0  0  0  0  0  0  0  0  0  0  0  0
   12.3554   40.8425    9.4180 N   0  0  0  0  0  0  0  0  0  0  0  0
  1  2  1  0
  3  4  2  0
  5  6  2  0
  7  2  2  0
 10 26  2  0
 11 10  1  0
 12 27  2  0
 12 14  1  0
 13  8  1  0
 13  9  2  0
 15 16  2  0
 17 18  2  0
 19 14  2  0
 20  5  1  0
 20 23  1  0
 23  8  1  0
 25 24  1  0
 25  9  1  0
  2  3  1  0
  4  5  1  0
  6  7  1  0
  8 24  2  0
  9 26  1  0
 10 27  1  0
 12 13  1  0
 14 15  1  0
 16 17  1  0
 18 19  1  0
 20 21  2  0
 20 22  2  0
M  END
>  <rmsd>  (1) 
0.235077888

$$$$
