MolPort-004-979-668 CSSS00160014156 MCULE-7658782327 PubChem-45159661
     RDKit          3D

 30 33  0  0  0  0  0  0  0  0999 V2000
   12.5698   38.0430    6.5906 C   0  0  0  0  0  0  0  0  0  0  0  0
   13.3446   40.3802    6.5581 C   0  0  0  0  0  0  0  0  0  0  0  0
   14.1992   41.4466    7.1253 C   0  0  0  0  0  0  0  0  0  0  0  0
   14.2882   42.7571    6.6451 C   0  0  0  0  0  0  0  0  0  0  0  0
   13.8561   44.4459    4.7813 C   0  0  0  0  0  0  0  0  0  0  0  0
   12.8275   45.0705    3.9103 C   0  0  0  0  0  0  0  0  0  0  0  0
   15.1651   43.4196    7.4861 C   0  0  0  0  0  0  0  0  0  0  0  0
   15.5691   44.7481    7.5670 C   0  0  0  0  0  0  0  0  0  0  0  0
   16.4497   45.1016    8.6091 C   0  0  0  0  0  0  0  0  0  0  0  0
   16.5282   47.5397    7.8803 C   0  0  0  0  0  0  0  0  0  0  0  0
   15.0764   47.9590    8.1771 C   0  0  0  0  0  0  0  0  0  0  0  0
   14.9568   49.2456    9.0014 C   0  0  0  0  0  0  0  0  0  0  0  0
   16.0529   49.3113   10.0581 C   0  0  0  0  0  0  0  0  0  0  0  0
   17.4468   49.3549    9.4191 C   0  0  0  0  0  0  0  0  0  0  0  0
   17.5073   48.7079    8.0268 C   0  0  0  0  0  0  0  0  0  0  0  0
   16.8680   44.1159    9.5296 C   0  0  0  0  0  0  0  0  0  0  0  0
   15.5860   42.5002    8.4076 C   0  0  0  0  0  0  0  0  0  0  0  0
   15.1873   40.1179    9.0431 C   0  0  0  0  0  0  0  0  0  0  0  0
   14.3286   40.2266   10.2937 C   0  0  2  0  0  0  0  0  0  0  0  0
   14.6077   39.0549   11.2041 C   0  0  0  0  0  0  0  0  0  0  0  0
   13.2557   38.6731   11.7258 C   0  0  0  0  0  0  0  0  0  0  0  0
   12.3197   39.6604   11.0702 C   0  0  0  0  0  0  0  0  0  0  0  0
   13.3791   39.0931    7.0978 O   0  0  0  0  0  0  0  0  0  0  0  0
   12.5873   40.6342    5.5817 O   0  0  0  0  0  0  0  0  0  0  0  0
   15.0336   44.8907    4.7651 O   0  0  0  0  0  0  0  0  0  0  0  0
   12.9671   40.2106    9.9551 O   0  0  0  0  0  0  0  0  0  0  0  0
   13.5069   43.3091    5.5760 N   0  0  0  0  0  0  0  0  0  0  0  0
   16.9279   46.4420    8.7536 N   0  0  0  0  0  0  0  0  0  0  0  0
   16.4253   42.8277    9.4230 N   0  0  0  0  0  0  0  0  0  0  0  0
   15.0174   41.2980    8.2023 N   0  0  0  0  0  0  0  0  0  0  0  0
  1 23  1  0
  2 23  1  0
  2  3  1  0
  4 27  1  0
  4  7  1  0
  6  5  1  0
  8  9  2  0
  9 28  1  0
 10 28  1  0
 10 11  1  0
 11 12  1  0
 12 13  1  0
 13 14  1  0
 14 15  1  0
 15 10  1  0
 16 29  2  0
 17 30  1  0
 17  7  2  0
 18 30  1  0
 19 18  1  6
 19 20  1  0
 19 26  1  0
 20 21  1  0
 21 22  1  0
 22 26  1  0
 27  5  1  0
 30  3  1  0
  2 24  2  0
  3  4  2  0
  5 25  2  0
  7  8  1  0
  9 16  1  0
 17 29  1  0
M  END
>  <rmsd>  (1) 
0.164276347

$$$$
