MolPort-021-753-313 72410854 CSSS00159812936 MCULE-3609066862 PubChem-70723644 ZINC000072410854
     RDKit          3D

 27 29  0  0  0  0  0  0  0  0999 V2000
   11.5721   43.6887    1.9736 C   0  0  0  0  0  0  0  0  0  0  0  0
   10.8217   44.7862    3.8832 C   0  0  0  0  0  0  0  0  0  0  0  0
   13.1101   44.6768    3.4201 C   0  0  0  0  0  0  0  0  0  0  0  0
   13.9414   44.2997    4.6069 C   0  0  0  0  0  0  0  0  0  0  0  0
   14.2753   42.7315    6.5811 C   0  0  0  0  0  0  0  0  0  0  0  0
   15.5635   42.2037    6.3421 C   0  0  0  0  0  0  0  0  0  0  0  0
   16.1652   42.1668    4.9788 C   0  0  0  0  0  0  0  0  0  0  0  0
   16.2829   41.6282    7.3937 C   0  0  0  0  0  0  0  0  0  0  0  0
   15.7346   41.5480    8.6809 C   0  0  0  0  0  0  0  0  0  0  0  0
   14.4507   42.0615    8.9069 C   0  0  0  0  0  0  0  0  0  0  0  0
   13.7247   42.6367    7.8626 C   0  0  0  0  0  0  0  0  0  0  0  0
   17.8354   41.1501    9.9079 C   0  0  0  0  0  0  0  0  0  0  0  0
   18.2013   40.5723   11.1087 C   0  0  0  0  0  0  0  0  0  0  0  0
   16.0908   40.3228   10.8597 C   0  0  0  0  0  0  0  0  0  0  0  0
   14.7207   39.8195   11.0964 C   0  0  0  0  0  0  0  0  0  0  0  0
   14.1652   39.8242   12.3899 C   0  0  0  0  0  0  0  0  0  0  0  0
   12.8817   39.3060   12.6040 C   0  0  0  0  0  0  0  0  0  0  0  0
   12.1552   38.7690   11.5385 C   0  0  0  0  0  0  0  0  0  0  0  0
   12.7079   38.7454   10.2568 C   0  0  0  0  0  0  0  0  0  0  0  0
   13.9866   39.2630   10.0389 C   0  0  0  0  0  0  0  0  0  0  0  0
   11.8693   43.9176    3.3755 N   0  0  0  0  0  0  0  0  0  0  0  0
   13.4790   43.3174    5.5433 N   0  0  0  0  0  0  0  0  0  0  0  0
   16.5072   40.9913    9.7588 N   0  0  0  0  0  0  0  0  0  0  0  0
   17.1067   40.0554   11.7028 N   0  0  0  0  0  0  0  0  0  0  0  0
   15.0394   44.8887    4.7914 O   0  0  0  0  0  0  0  0  0  0  0  0
   14.8544   40.3465   13.4364 F   0  0  0  0  0  0  0  0  0  0  0  0
   12.3385   39.3215   13.8456 F   0  0  0  0  0  0  0  0  0  0  0  0
  1 21  1  0
  2 21  1  0
  3 21  1  0
  3  4  1  0
  4 22  1  0
  6  8  2  0
  7  6  1  0
  9 10  2  0
  9 23  1  0
 11  5  2  0
 13 24  1  0
 14 15  1  0
 14 23  1  0
 16 26  1  0
 16 17  2  0
 17 27  1  0
 18 19  2  0
 20 15  2  0
 22  5  1  0
 23 12  1  0
  4 25  2  0
  5  6  1  0
  8  9  1  0
 10 11  1  0
 12 13  2  0
 14 24  2  0
 15 16  1  0
 17 18  1  0
 19 20  1  0
M  END
>  <rmsd>  (1) 
0.233127519

$$$$
