MolPort-007-723-081 6818078 ChemDiv-E157-3308 MCULE-7356027978 PubChem-22517694 ZINC000006818078 ZINC06818078
     RDKit          3D

 19 21  0  0  0  0  0  0  0  0999 V2000
   12.6799   38.7013   11.5449 C   0  0  0  0  0  0  0  0  0  0  0  0
   13.7100   39.7154   11.0952 C   0  0  0  0  0  0  0  0  0  0  0  0
   14.0680   39.4619    9.6444 C   0  0  0  0  0  0  0  0  0  0  0  0
   15.0801   40.4554    9.1871 C   0  0  0  0  0  0  0  0  0  0  0  0
   16.0282   42.0016    8.1291 C   0  0  0  0  0  0  0  0  0  0  0  0
   14.3624   42.7148    6.5997 C   0  0  0  0  0  0  0  0  0  0  0  0
   13.8703   44.3715    4.7126 C   0  0  0  0  0  0  0  0  0  0  0  0
   12.8794   44.8516    3.7440 C   0  0  0  0  0  0  0  0  0  0  0  0
   13.0751   45.8682    2.8326 C   0  0  0  0  0  0  0  0  0  0  0  0
   11.8775   45.9614    2.1451 C   0  0  0  0  0  0  0  0  0  0  0  0
   11.0372   45.0005    2.6813 C   0  0  0  0  0  0  0  0  0  0  0  0
   16.3441   40.5786    9.6756 N   0  0  0  0  0  0  0  0  0  0  0  0
   16.9512   41.5651    9.0030 N   0  0  0  0  0  0  0  0  0  0  0  0
   13.5209   43.3023    5.6001 N   0  0  0  0  0  0  0  0  0  0  0  0
   13.9251   41.6965    7.3938 N   0  0  0  0  0  0  0  0  0  0  0  0
   14.9005   41.3524    8.2183 N   0  0  0  0  0  0  0  0  0  0  0  0
   15.9963   43.1807    6.9413 S   0  0  0  0  0  0  0  0  0  0  0  0
   15.0125   44.9022    4.7536 O   0  0  0  0  0  0  0  0  0  0  0  0
   11.6721   44.3595    3.6327 O   0  0  0  0  0  0  0  0  0  0  0  0
  1  2  1  0
  2  3  1  0
  3  4  1  0
  5 17  1  0
  6 17  1  0
  6 14  1  0
  7  8  1  0
  8 19  1  0
  9 10  1  0
 11 19  1  0
 12 13  1  0
 14  7  1  0
 16 15  1  0
 16  4  1  0
 16  5  1  0
  4 12  2  0
  5 13  2  0
  6 15  2  0
  7 18  2  0
  8  9  2  0
 10 11  2  0
M  END
>  <rmsd>  (1) 
0.214009374

$$$$
