MolPort-006-464-456 ChemDiv-V027-9265 MCULE-3401747041 PubChem-24717982 ZINC000035806637 ZINC35806637
     RDKit          3D

 32 36  0  0  0  0  0  0  0  0999 V2000
   20.5790   40.5433   10.4706 C   0  0  0  0  0  0  0  0  0  0  0  0
   18.1844   40.0863   10.7430 C   0  0  0  0  0  0  0  0  0  0  0  0
   16.0936   39.9646   10.6656 C   0  0  0  0  0  0  0  0  0  0  0  0
   14.7092   39.6058   11.0046 C   0  0  0  0  0  0  0  0  0  0  0  0
   13.7569   40.6098   11.2888 C   0  0  0  0  0  0  0  0  0  0  0  0
   12.4744   40.2010   11.6416 C   0  0  0  0  0  0  0  0  0  0  0  0
   12.1338   38.8890   11.7241 C   0  0  0  0  0  0  0  0  0  0  0  0
   10.2797   40.1059   12.2412 C   0  0  0  0  0  0  0  0  0  0  0  0
   13.0431   37.8697   11.4684 C   0  0  0  0  0  0  0  0  0  0  0  0
   14.3508   38.2422   11.1114 C   0  0  0  0  0  0  0  0  0  0  0  0
   15.7025   41.5007    8.6912 C   0  0  0  0  0  0  0  0  0  0  0  0
   14.4079   41.0679    8.3689 C   0  0  0  0  0  0  0  0  0  0  0  0
   13.6891   41.6766    7.3383 C   0  0  0  0  0  0  0  0  0  0  0  0
   14.2573   42.7192    6.5990 C   0  0  0  0  0  0  0  0  0  0  0  0
   13.8913   44.3813    4.6751 C   0  0  0  0  0  0  0  0  0  0  0  0
   12.9547   44.8821    3.6536 C   0  0  0  0  0  0  0  0  0  0  0  0
   11.6885   44.2964    3.5086 C   0  0  0  0  0  0  0  0  0  0  0  0
   10.7915   44.7756    2.5521 C   0  0  0  0  0  0  0  0  0  0  0  0
   11.1551   45.8433    1.7295 C   0  0  0  0  0  0  0  0  0  0  0  0
   10.1988   46.3556    0.7162 C   0  0  0  0  0  0  0  0  0  0  0  0
   12.4151   46.4321    1.8644 C   0  0  0  0  0  0  0  0  0  0  0  0
   13.3127   45.9525    2.8220 C   0  0  0  0  0  0  0  0  0  0  0  0
   15.5570   43.1462    6.9036 C   0  0  0  0  0  0  0  0  0  0  0  0
   16.2740   42.5387    7.9379 C   0  0  0  0  0  0  0  0  0  0  0  0
   19.5099   39.8740   11.1162 O   0  0  0  0  0  0  0  0  0  0  0  0
   10.8060   38.7812   12.0812 O   0  0  0  0  0  0  0  0  0  0  0  0
   11.3772   40.9811   11.9474 O   0  0  0  0  0  0  0  0  0  0  0  0
   15.0384   44.8964    4.7809 O   0  0  0  0  0  0  0  0  0  0  0  0
   17.8023   40.9242    9.7616 N   0  0  0  0  0  0  0  0  0  0  0  0
   16.4832   40.8434    9.7098 N   0  0  0  0  0  0  0  0  0  0  0  0
   17.1497   39.4609   11.3363 N   0  0  0  0  0  0  0  0  0  0  0  0
   13.4859   43.3162    5.5483 N   0  0  0  0  0  0  0  0  0  0  0  0
  1 25  1  0
  2 25  1  0
  2 31  1  0
  3  4  1  0
  5  6  2  0
  6 27  1  0
  7 26  1  0
  7  9  2  0
  8 26  1  0
  8 27  1  0
 10  4  2  0
 12 13  2  0
 14 32  1  0
 14 23  2  0
 15 16  1  0
 17 18  2  0
 19 21  2  0
 20 19  1  0
 22 16  2  0
 24 11  2  0
 30 29  1  0
 30  3  1  0
 30 11  1  0
 32 15  1  0
  2 29  2  0
  3 31  2  0
  4  5  1  0
  6  7  1  0
  9 10  1  0
 11 12  1  0
 13 14  1  0
 15 28  2  0
 16 17  1  0
 18 19  1  0
 21 22  1  0
 23 24  1  0
M  END
>  <rmsd>  (1) 
0.231805936

$$$$
