MolPort-010-903-887 ChemDiv-M535-1289 MCULE-9768535667 PubChem-53146000 ZINC000065165980 ZINC65165980
     RDKit          3D

 27 29  0  0  0  0  0  0  0  0999 V2000
   19.2474   44.9086   12.4180 C   0  0  0  0  0  0  0  0  0  0  0  0
   19.5415   44.0047   11.2358 C   0  0  0  0  0  0  0  0  0  0  0  0
   18.3569   43.9739   10.2835 C   0  0  0  0  0  0  0  0  0  0  0  0
   17.2037   43.1516   10.8484 C   0  0  0  0  0  0  0  0  0  0  0  0
   18.3774   41.0408   11.5159 C   0  0  0  0  0  0  0  0  0  0  0  0
   16.5792   40.9538    9.7781 C   0  0  0  0  0  0  0  0  0  0  0  0
   15.7281   41.5994    8.7536 C   0  0  0  0  0  0  0  0  0  0  0  0
   14.3949   41.1846    8.5032 C   0  0  0  0  0  0  0  0  0  0  0  0
   13.6872   41.7681    7.4403 C   0  0  0  0  0  0  0  0  0  0  0  0
   14.2653   42.7530    6.6374 C   0  0  0  0  0  0  0  0  0  0  0  0
   13.9051   44.3397    4.6544 C   0  0  0  0  0  0  0  0  0  0  0  0
   12.9637   44.7980    3.5885 C   0  0  0  0  0  0  0  0  0  0  0  0
   12.5541   43.6230    2.7190 C   0  0  0  0  0  0  0  0  0  0  0  0
   13.5936   44.6009    2.2214 C   0  0  0  0  0  0  0  0  0  0  0  0
   15.5760   43.1654    6.8995 C   0  0  0  0  0  0  0  0  0  0  0  0
   16.2997   42.5892    7.9429 C   0  0  0  0  0  0  0  0  0  0  0  0
   13.7565   40.3765   10.7962 C   0  0  0  0  0  0  0  0  0  0  0  0
   12.8864   39.3388   11.5125 C   0  0  0  0  0  0  0  0  0  0  0  0
   13.4607   37.9179   11.4524 C   0  0  0  0  0  0  0  0  0  0  0  0
   14.2080   37.5846   10.1573 C   0  0  0  0  0  0  0  0  0  0  0  0
   13.3777   37.7941    8.8882 C   0  0  0  0  0  0  0  0  0  0  0  0
   12.8516   39.2231    8.7069 C   0  0  0  0  0  0  0  0  0  0  0  0
   17.4305   41.7239   10.6461 N   0  0  0  0  0  0  0  0  0  0  0  0
   13.4918   43.3129    5.5676 N   0  0  0  0  0  0  0  0  0  0  0  0
   13.7266   40.2193    9.3341 N   0  0  0  0  0  0  0  0  0  0  0  0
   16.5741   39.6957    9.8686 O   0  0  0  0  0  0  0  0  0  0  0  0
   15.0329   44.8920    4.7656 O   0  0  0  0  0  0  0  0  0  0  0  0
  1  2  1  0
  2  3  1  0
  3  4  1  0
  4 23  1  0
  5 23  1  0
  6  7  1  0
  8  9  2  0
  8 25  1  0
 10 24  1  0
 10 15  2  0
 12 11  1  0
 12 13  1  0
 13 14  1  0
 14 12  1  0
 16  7  2  0
 17 25  1  0
 17 18  1  0
 18 19  1  0
 19 20  1  0
 20 21  1  0
 21 22  1  0
 22 25  1  0
 23  6  1  0
 24 11  1  0
  6 26  2  0
  7  8  1  0
  9 10  1  0
 11 27  2  0
 15 16  1  0
M  END
>  <rmsd>  (1) 
0.237918735

$$$$
