MolPort-000-056-093 1324433 CHEMBL1507270 MCULE-1520687221 PubChem-655444 ZINC000001324433 ZINC01324433
     RDKit          3D

 32 35  0  0  0  0  0  0  0  0999 V2000
   15.3673   45.8993    8.4270 C   0  0  0  0  0  0  0  0  0  0  0  0
   14.8728   43.6168    7.5988 C   0  0  0  0  0  0  0  0  0  0  0  0
   15.5851   43.0297    8.6560 C   0  0  0  0  0  0  0  0  0  0  0  0
   15.6475   41.6424    8.8045 C   0  0  0  0  0  0  0  0  0  0  0  0
   16.0675   39.9524   10.6772 C   0  0  0  0  0  0  0  0  0  0  0  0
   14.6689   39.5688   10.9441 C   0  0  0  0  0  0  0  0  0  0  0  0
   13.5425   40.3444   10.7105 C   0  0  0  0  0  0  0  0  0  0  0  0
   12.3527   39.7114   11.0976 C   0  0  0  0  0  0  0  0  0  0  0  0
   12.5271   38.4428   11.6453 C   0  0  0  0  0  0  0  0  0  0  0  0
   15.0131   40.8129    7.8586 C   0  0  0  0  0  0  0  0  0  0  0  0
   14.4889   38.5279    7.0558 C   0  0  0  0  0  0  0  0  0  0  0  0
   14.3016   41.3994    6.8014 C   0  0  0  0  0  0  0  0  0  0  0  0
   14.2399   42.7869    6.6515 C   0  0  0  0  0  0  0  0  0  0  0  0
   13.8616   44.4394    4.7519 C   0  0  0  0  0  0  0  0  0  0  0  0
   12.8750   45.0304    3.8092 C   0  0  0  0  0  0  0  0  0  0  0  0
   12.9154   44.2853    2.4874 C   0  0  0  0  0  0  0  0  0  0  0  0
   11.0083   45.8247   -0.1410 C   0  0  0  0  0  0  0  0  0  0  0  0
   10.9079   46.4782   -1.3651 C   0  0  0  0  0  0  0  0  0  0  0  0
   12.1125   46.7558   -2.0421 C   0  0  0  0  0  0  0  0  0  0  0  0
   13.3584   46.3780   -1.4855 C   0  0  0  0  0  0  0  0  0  0  0  0
   13.4197   45.7168   -0.2430 C   0  0  0  0  0  0  0  0  0  0  0  0
   12.2065   45.4629    0.3919 C   0  0  0  0  0  0  0  0  0  0  0  0
   14.7598   45.0083    7.5012 O   0  0  0  0  0  0  0  0  0  0  0  0
   16.9970   39.2771   11.1917 O   0  0  0  0  0  0  0  0  0  0  0  0
   15.1164   39.4210    7.9657 O   0  0  0  0  0  0  0  0  0  0  0  0
   15.0404   44.8838    4.7768 O   0  0  0  0  0  0  0  0  0  0  0  0
   16.4039   41.1092    9.8997 N   0  0  0  0  0  0  0  0  0  0  0  0
   13.4838   43.3162    5.5548 N   0  0  0  0  0  0  0  0  0  0  0  0
   11.9538   44.8624    1.5610 N   0  0  0  0  0  0  0  0  0  0  0  0
   10.6346   44.8568    1.7256 N   0  0  0  0  0  0  0  0  0  0  0  0
   10.0249   45.4440    0.6956 N   0  0  0  0  0  0  0  0  0  0  0  0
   14.1783   38.1242   11.6403 S   0  0  0  0  0  0  0  0  0  0  0  0
  1 23  1  0
  2 23  1  0
  3  4  2  0
  4 27  1  0
  5  6  1  0
  6 32  1  0
  7  8  1  0
  9 32  1  0
 10 25  1  0
 10 12  2  0
 11 25  1  0
 13 28  1  0
 13  2  2  0
 15 14  1  0
 15 16  1  0
 16 29  1  0
 17 31  1  0
 18 19  2  0
 20 21  2  0
 22 29  1  0
 22 17  2  0
 27  5  1  0
 28 14  1  0
 29 30  1  0
  2  3  1  0
  4 10  1  0
  5 24  2  0
  6  7  2  0
  8  9  2  0
 12 13  1  0
 14 26  2  0
 17 18  1  0
 19 20  1  0
 21 22  1  0
 30 31  2  0
M  END
>  <rmsd>  (1) 
0.241345793

$$$$
