MolPort-051-666-749 MCULE-8495745083 PubChem-110095884
     RDKit          3D

 22 24  0  0  0  0  0  0  0  0999 V2000
   13.4883   39.2830   11.7946 C   0  0  0  0  0  0  0  0  0  0  0  0
   14.2828   40.2144   10.8775 C   0  0  0  0  0  0  0  0  0  0  0  0
   13.4882   40.5557    9.6091 C   0  0  2  0  0  0  0  0  0  0  0  0
   12.9479   39.2982    8.9019 C   0  0  0  0  0  0  0  0  0  0  0  0
   12.6776   38.2432   11.0131 C   0  0  0  0  0  0  0  0  0  0  0  0
   12.4295   37.0194    9.0238 C   0  0  0  0  0  0  0  0  0  0  0  0
   13.1445   35.6857    9.1547 C   0  0  0  0  0  0  0  0  0  0  0  0
   14.2437   41.4187    8.6361 C   0  0  0  0  0  0  0  0  0  0  0  0
   15.6178   41.6580    8.7638 C   0  0  0  0  0  0  0  0  0  0  0  0
   15.5794   42.9857    6.8066 C   0  0  0  0  0  0  0  0  0  0  0  0
   14.2071   42.7502    6.6656 C   0  0  0  0  0  0  0  0  0  0  0  0
   13.8943   44.2543    4.6109 C   0  0  0  0  0  0  0  0  0  0  0  0
   15.4792   45.8537    3.8642 C   0  0  0  0  0  0  0  0  0  0  0  0
   14.6721   46.1394    2.7614 C   0  0  0  0  0  0  0  0  0  0  0  0
   13.0827   44.5529    3.5142 C   0  0  0  0  0  0  0  0  0  0  0  0
   13.2055   38.0714    9.6601 N   0  0  0  0  0  0  0  0  0  0  0  0
   16.2526   42.4365    7.8503 N   0  0  0  0  0  0  0  0  0  0  0  0
   13.5784   41.9715    7.5856 N   0  0  0  0  0  0  0  0  0  0  0  0
   13.4533   43.2833    5.5686 N   0  0  0  0  0  0  0  0  0  0  0  0
   15.0738   44.9181    4.7626 N   0  0  0  0  0  0  0  0  0  0  0  0
   13.4907   45.4841    2.6112 N   0  0  0  0  0  0  0  0  0  0  0  0
   14.3184   35.6988    8.3995 O   0  0  0  0  0  0  0  0  0  0  0  0
  1  2  1  0
  2  3  1  0
  3  4  1  0
  3  8  1  6
  4 16  1  0
  5 16  1  0
  5  1  1  0
  6 16  1  0
  6  7  1  0
  7 22  1  0
  8 18  2  0
  9 17  2  0
 10 11  2  0
 11 19  1  0
 13 20  2  0
 14 21  2  0
 15 12  2  0
 19 12  1  0
  8  9  1  0
 10 17  1  0
 11 18  1  0
 12 20  1  0
 13 14  1  0
 15 21  1  0
M  END
>  <rmsd>  (1) 
0.24120824

$$$$
