MolPort-007-723-173 6818134 ChemDiv-E157-3683 MCULE-6786177504 PubChem-22517779 ZINC000006818134 ZINC06818134
     RDKit          3D

 26 28  0  0  0  0  0  0  0  0999 V2000
   12.6814   38.7026   11.5442 C   0  0  0  0  0  0  0  0  0  0  0  0
   13.7113   39.7170   11.0946 C   0  0  0  0  0  0  0  0  0  0  0  0
   14.0697   39.4633    9.6439 C   0  0  0  0  0  0  0  0  0  0  0  0
   15.0815   40.4570    9.1865 C   0  0  0  0  0  0  0  0  0  0  0  0
   16.0291   42.0035    8.1285 C   0  0  0  0  0  0  0  0  0  0  0  0
   14.3631   42.7161    6.5990 C   0  0  0  0  0  0  0  0  0  0  0  0
   13.8683   44.3737    4.7099 C   0  0  0  0  0  0  0  0  0  0  0  0
   12.8778   44.8614    3.7340 C   0  0  0  0  0  0  0  0  0  0  0  0
   11.6057   44.2880    3.6711 C   0  0  0  0  0  0  0  0  0  0  0  0
   10.6486   44.7391    2.7484 C   0  0  0  0  0  0  0  0  0  0  0  0
    8.9957   43.0829    3.5708 C   0  0  0  0  0  0  0  0  0  0  0  0
   10.9809   45.7968    1.8638 C   0  0  0  0  0  0  0  0  0  0  0  0
    8.7601   45.8560    0.7015 C   0  0  0  0  0  0  0  0  0  0  0  0
   12.2610   46.3732    1.9278 C   0  0  0  0  0  0  0  0  0  0  0  0
   13.8505   48.0570    1.0468 C   0  0  0  0  0  0  0  0  0  0  0  0
   13.1974   45.9027    2.8596 C   0  0  0  0  0  0  0  0  0  0  0  0
   16.3454   40.5807    9.6752 N   0  0  0  0  0  0  0  0  0  0  0  0
   16.9521   41.5676    9.0025 N   0  0  0  0  0  0  0  0  0  0  0  0
   13.5211   43.3032    5.5996 N   0  0  0  0  0  0  0  0  0  0  0  0
   13.9262   41.6977    7.3931 N   0  0  0  0  0  0  0  0  0  0  0  0
   14.9016   41.3539    8.2177 N   0  0  0  0  0  0  0  0  0  0  0  0
   15.9969   43.1827    6.9406 S   0  0  0  0  0  0  0  0  0  0  0  0
   15.0127   44.9009    4.7554 O   0  0  0  0  0  0  0  0  0  0  0  0
    9.3817   44.1452    2.7083 O   0  0  0  0  0  0  0  0  0  0  0  0
   10.0889   46.3131    0.9086 O   0  0  0  0  0  0  0  0  0  0  0  0
   12.5816   47.4166    1.0517 O   0  0  0  0  0  0  0  0  0  0  0  0
  1  2  1  0
  2  3  1  0
  3  4  1  0
  5 22  1  0
  6 22  1  0
  6 19  1  0
  7  8  1  0
  9 10  2  0
 10 24  1  0
 11 24  1  0
 12 25  1  0
 12 14  2  0
 13 25  1  0
 14 26  1  0
 15 26  1  0
 16  8  2  0
 17 18  1  0
 19  7  1  0
 21 20  1  0
 21  4  1  0
 21  5  1  0
  4 17  2  0
  5 18  2  0
  6 20  2  0
  7 23  2  0
  8  9  1  0
 10 12  1  0
 14 16  1  0
M  END
>  <rmsd>  (1) 
0.213763788

$$$$
