MolPort-002-934-394 2970832 CHEMBL1719021 CSSS00132393515 ChemDiv-3784-0050 LN00924109 MCULE-9483770580 PubChem-3855458 ZINC000002970832 ZINC02970832
     RDKit          3D

 22 23  0  0  0  0  0  0  0  0999 V2000
   11.2317   39.5624   10.8226 C   0  0  0  0  0  0  0  0  0  0  0  0
   12.3373   38.8596   11.5872 C   0  0  0  0  0  0  0  0  0  0  0  0
   13.6079   39.6942   11.5780 C   0  0  0  0  0  0  0  0  0  0  0  0
   14.3976   39.4802   10.2961 C   0  0  0  0  0  0  0  0  0  0  0  0
   14.3723   41.1378    8.4584 C   0  0  0  0  0  0  0  0  0  0  0  0
   15.6780   41.5698    8.7398 C   0  0  0  0  0  0  0  0  0  0  0  0
   16.2655   42.5785    7.9728 C   0  0  0  0  0  0  0  0  0  0  0  0
   15.5524   43.1604    6.9220 C   0  0  0  0  0  0  0  0  0  0  0  0
   14.2465   42.7381    6.6312 C   0  0  0  0  0  0  0  0  0  0  0  0
   13.9045   44.3533    4.6707 C   0  0  0  0  0  0  0  0  0  0  0  0
   12.9899   44.7997    3.5841 C   0  0  0  0  0  0  0  0  0  0  0  0
   14.4667   44.2139    1.4923 C   0  0  0  0  0  0  0  0  0  0  0  0
   16.5297   44.4752    1.0215 C   0  0  0  0  0  0  0  0  0  0  0  0
   15.7966   45.3819    0.2728 C   0  0  0  0  0  0  0  0  0  0  0  0
   13.3814   45.9376    0.0314 C   0  0  0  0  0  0  0  0  0  0  0  0
   13.6662   41.7266    7.4042 C   0  0  0  0  0  0  0  0  0  0  0  0
   13.7555   40.1317    9.2068 O   0  0  0  0  0  0  0  0  0  0  0  0
   15.0390   44.8889    4.7806 O   0  0  0  0  0  0  0  0  0  0  0  0
   13.4845   43.3099    5.5595 N   0  0  0  0  0  0  0  0  0  0  0  0
   15.6910   43.7415    1.7862 N   0  0  0  0  0  0  0  0  0  0  0  0
   14.5043   45.1996    0.5827 N   0  0  0  0  0  0  0  0  0  0  0  0
   12.9638   43.5780    2.2361 S   0  0  0  0  0  0  0  0  0  0  0  0
  1  2  1  0
  2  3  1  0
  3  4  1  0
  4 17  1  0
  5 17  1  0
  6  7  2  0
  8  9  2  0
  9 19  1  0
 11 10  1  0
 11 22  1  0
 12 22  1  0
 13 20  1  0
 14 21  1  0
 15 21  1  0
 16  5  2  0
 19 10  1  0
 21 12  1  0
  5  6  1  0
  7  8  1  0
  9 16  1  0
 10 18  2  0
 12 20  2  0
 13 14  2  0
M  END
>  <rmsd>  (1) 
0.244992256

$$$$
