MolPort-028-888-287 ChemDiv-V030-0800 MCULE-8573276261 PubChem-71955375 ZINC000096280451 ZINC96280451
     RDKit          3D

 27 29  0  0  0  0  0  0  0  0999 V2000
   13.4253   46.0099    2.8385 C   0  0  0  0  0  0  0  0  0  0  0  0
   12.9356   44.7880    3.5991 C   0  0  0  0  0  0  0  0  0  0  0  0
   12.6875   43.6550    2.6224 C   0  0  0  0  0  0  0  0  0  0  0  0
   13.8959   44.3492    4.6659 C   0  0  0  0  0  0  0  0  0  0  0  0
   14.2665   42.7576    6.6442 C   0  0  0  0  0  0  0  0  0  0  0  0
   13.7008   41.7471    7.4281 C   0  0  0  0  0  0  0  0  0  0  0  0
   14.4147   41.1630    8.4878 C   0  0  0  0  0  0  0  0  0  0  0  0
   15.7131   41.6260    8.7592 C   0  0  0  0  0  0  0  0  0  0  0  0
   16.2868   42.6349    7.9827 C   0  0  0  0  0  0  0  0  0  0  0  0
   15.5666   43.1980    6.9279 C   0  0  0  0  0  0  0  0  0  0  0  0
   14.3873   39.8585   10.6295 C   0  0  0  0  0  0  0  0  0  0  0  0
   13.2704   39.5992   11.6268 C   0  0  0  0  0  0  0  0  0  0  0  0
   12.4760   38.3651   11.2092 C   0  0  0  0  0  0  0  0  0  0  0  0
   11.0677   37.4658    9.3532 C   0  0  0  0  0  0  0  0  0  0  0  0
   11.6693   36.3433    8.5744 C   0  0  0  0  0  0  0  0  0  0  0  0
   11.5002   36.2861    7.1867 C   0  0  0  0  0  0  0  0  0  0  0  0
   12.0715   35.2416    6.4537 C   0  0  0  0  0  0  0  0  0  0  0  0
   12.8135   34.2530    7.1073 C   0  0  0  0  0  0  0  0  0  0  0  0
   12.9839   34.3089    8.4940 C   0  0  0  0  0  0  0  0  0  0  0  0
   12.4128   35.3531    9.2272 C   0  0  0  0  0  0  0  0  0  0  0  0
   12.7324   39.2973    8.8642 C   0  0  0  0  0  0  0  0  0  0  0  0
   15.0322   44.8885    4.7680 O   0  0  0  0  0  0  0  0  0  0  0  0
   12.3416   39.3363    7.6654 O   0  0  0  0  0  0  0  0  0  0  0  0
   13.4929   43.3121    5.5714 N   0  0  0  0  0  0  0  0  0  0  0  0
   13.8212   40.1332    9.3098 N   0  0  0  0  0  0  0  0  0  0  0  0
   12.0987   38.3981    9.7948 N   0  0  0  0  0  0  0  0  0  0  0  0
   13.9139   33.0728    9.3121 Cl  0  0  0  0  0  0  0  0  0  0  0  0
  1  2  1  0
  2  3  1  0
  2  4  1  0
  4 24  1  0
  6  7  2  0
  7 25  1  0
  8  9  2  0
 10  5  2  0
 11 25  1  0
 11 12  1  0
 12 13  1  0
 13 26  1  0
 14 26  1  0
 14 15  1  0
 16 17  2  0
 18 19  2  0
 19 27  1  0
 20 15  2  0
 21 25  1  0
 24  5  1  0
 26 21  1  0
  4 22  2  0
  5  6  1  0
  7  8  1  0
  9 10  1  0
 15 16  1  0
 17 18  1  0
 19 20  1  0
 21 23  2  0
M  END
>  <rmsd>  (1) 
0.246393546

$$$$
