MolPort-002-612-738 2416901 PubChem-1623914 ZINC000002416901 ZINC02416901
     RDKit          3D

 32 35  0  0  0  0  0  0  0  0999 V2000
   12.8228   39.0255   11.4860 C   0  0  0  0  0  0  0  0  0  0  0  0
   14.3150   39.2211   11.2941 C   0  0  0  0  0  0  0  0  0  0  0  0
   14.5994   39.8234    9.9302 C   0  0  0  0  0  0  0  0  0  0  0  0
   14.2535   41.3040    9.9211 C   0  0  0  0  0  0  0  0  0  0  0  0
   14.2061   42.8071    6.6792 C   0  0  0  0  0  0  0  0  0  0  0  0
   14.0047   44.2157    4.5594 C   0  0  0  0  0  0  0  0  0  0  0  0
   13.2765   44.4097    3.2936 C   0  0  0  0  0  0  0  0  0  0  0  0
   13.7532   45.3027    2.3314 C   0  0  0  0  0  0  0  0  0  0  0  0
   13.0679   45.4919    1.1227 C   0  0  0  0  0  0  0  0  0  0  0  0
   14.7324   47.1490    0.3350 C   0  0  0  0  0  0  0  0  0  0  0  0
   11.8847   44.7784    0.8653 C   0  0  0  0  0  0  0  0  0  0  0  0
   10.0457   44.3855   -0.7930 C   0  0  0  0  0  0  0  0  0  0  0  0
   11.3946   43.8691    1.8372 C   0  0  0  0  0  0  0  0  0  0  0  0
    9.6836   42.2201    2.5474 C   0  0  0  0  0  0  0  0  0  0  0  0
   12.1013   43.6996    3.0384 C   0  0  0  0  0  0  0  0  0  0  0  0
   15.5735   42.6148    6.8004 C   0  0  0  0  0  0  0  0  0  0  0  0
   16.6611   42.8218    5.9578 C   0  0  0  0  0  0  0  0  0  0  0  0
   17.9248   42.4451    6.4443 C   0  0  0  0  0  0  0  0  0  0  0  0
   19.0663   42.6342    5.6621 C   0  0  0  0  0  0  0  0  0  0  0  0
   20.3196   42.2554    6.1529 C   0  0  0  0  0  0  0  0  0  0  0  0
   20.4374   41.6855    7.4254 C   0  0  0  0  0  0  0  0  0  0  0  0
   19.3032   41.4884    8.2192 C   0  0  0  0  0  0  0  0  0  0  0  0
   18.0439   41.8626    7.7442 C   0  0  0  0  0  0  0  0  0  0  0  0
   15.7262   42.0412    8.0287 C   0  0  0  0  0  0  0  0  0  0  0  0
   14.5271   41.8776    8.6120 N   0  0  0  0  0  0  0  0  0  0  0  0
   13.5890   42.3377    7.7917 N   0  0  0  0  0  0  0  0  0  0  0  0
   13.4891   43.3147    5.5474 N   0  0  0  0  0  0  0  0  0  0  0  0
   16.9343   41.6618    8.5165 N   0  0  0  0  0  0  0  0  0  0  0  0
   15.0526   44.8787    4.7878 O   0  0  0  0  0  0  0  0  0  0  0  0
   13.5456   46.3871    0.1587 O   0  0  0  0  0  0  0  0  0  0  0  0
   11.2454   45.0130   -0.3640 O   0  0  0  0  0  0  0  0  0  0  0  0
   10.2193   43.1439    1.6089 O   0  0  0  0  0  0  0  0  0  0  0  0
  1  2  1  0
  2  3  1  0
  3  4  1  0
  4 25  1  0
  5 27  1  0
  5 16  1  0
  6  7  1  0
  8  9  2  0
  9 30  1  0
 10 30  1  0
 11 31  1  0
 11 13  2  0
 12 31  1  0
 13 32  1  0
 14 32  1  0
 15  7  2  0
 17 18  2  0
 19 20  2  0
 21 22  2  0
 23 28  2  0
 23 18  1  0
 24 25  1  0
 24 16  2  0
 25 26  1  0
 27  6  1  0
  5 26  2  0
  6 29  2  0
  7  8  1  0
  9 11  1  0
 13 15  1  0
 16 17  1  0
 18 19  1  0
 20 21  1  0
 22 23  1  0
 24 28  1  0
M  END
>  <rmsd>  (1) 
0.197687969

$$$$
