MolPort-002-628-688 5499559 PubChem-1630919 ZINC000005499559 ZINC05499559
     RDKit          3D

 24 26  0  0  0  0  0  0  0  0999 V2000
   13.3617   38.5649   11.2192 C   0  0  0  0  0  0  0  0  0  0  0  0
   13.2320   40.0564   11.4656 C   0  0  0  0  0  0  0  0  0  0  0  0
   13.3093   40.8186   10.1552 C   0  0  0  0  0  0  0  0  0  0  0  0
   14.7472   40.8724    9.6558 C   0  0  0  0  0  0  0  0  0  0  0  0
   14.3428   42.6901    6.5869 C   0  0  0  0  0  0  0  0  0  0  0  0
   13.9395   44.2732    4.6271 C   0  0  0  0  0  0  0  0  0  0  0  0
   13.0435   44.6135    3.4894 C   0  0  0  0  0  0  0  0  0  0  0  0
   12.0693   45.6971    3.9065 C   0  0  0  0  0  0  0  0  0  0  0  0
   11.1618   46.0346    2.7426 C   0  0  0  0  0  0  0  0  0  0  0  0
   15.7115   42.4785    6.5444 C   0  0  0  0  0  0  0  0  0  0  0  0
   16.7059   42.7482    5.6094 C   0  0  0  0  0  0  0  0  0  0  0  0
   18.0065   42.3151    5.9195 C   0  0  0  0  0  0  0  0  0  0  0  0
   19.0605   42.5618    5.0373 C   0  0  0  0  0  0  0  0  0  0  0  0
   20.3515   42.1256    5.3514 C   0  0  0  0  0  0  0  0  0  0  0  0
   21.4710   42.3906    4.4110 C   0  0  0  0  0  0  0  0  0  0  0  0
   20.5933   41.4398    6.5469 C   0  0  0  0  0  0  0  0  0  0  0  0
   19.5474   41.1838    7.4393 C   0  0  0  0  0  0  0  0  0  0  0  0
   18.2526   41.6146    7.1408 C   0  0  0  0  0  0  0  0  0  0  0  0
   15.9837   41.7951    7.6937 C   0  0  0  0  0  0  0  0  0  0  0  0
   14.8538   41.5903    8.3885 N   0  0  0  0  0  0  0  0  0  0  0  0
   13.8402   42.1253    7.7122 N   0  0  0  0  0  0  0  0  0  0  0  0
   13.5170   43.3004    5.5877 N   0  0  0  0  0  0  0  0  0  0  0  0
   17.2288   41.3570    8.0088 N   0  0  0  0  0  0  0  0  0  0  0  0
   15.0199   44.9030    4.7739 O   0  0  0  0  0  0  0  0  0  0  0  0
  1  2  1  0
  2  3  1  0
  3  4  1  0
  4 20  1  0
  5 22  1  0
  5 10  1  0
  7  6  1  0
  7  8  1  0
  8  9  1  0
 11 12  2  0
 13 14  2  0
 15 14  1  0
 16 17  2  0
 18 23  2  0
 18 12  1  0
 19 20  1  0
 19 10  2  0
 20 21  1  0
 22  6  1  0
  5 21  2  0
  6 24  2  0
 10 11  1  0
 12 13  1  0
 14 16  1  0
 17 18  1  0
 19 23  1  0
M  END
>  <rmsd>  (1) 
0.163135812

$$$$
