MolPort-045-928-263 952962461 CSSS00160205879 MCULE-4026858819 PubChem-131930738 ZINC000952962461
     RDKit          3D

 23 24  0  0  0  0  0  0  0  0999 V2000
   12.7122   46.1477    3.5018 C   0  0  0  0  0  0  0  0  0  0  0  0
   13.0960   44.6818    3.4384 C   0  0  0  0  0  0  0  0  0  0  0  0
   13.8282   44.3958    2.1415 C   0  0  0  0  0  0  0  0  0  0  0  0
   13.9431   44.3095    4.6100 C   0  0  0  0  0  0  0  0  0  0  0  0
   14.2588   42.7305    6.5651 C   0  0  0  0  0  0  0  0  0  0  0  0
   13.7379   42.7046    7.8626 C   0  0  0  0  0  0  0  0  0  0  0  0
   14.4664   42.1330    8.9074 C   0  0  0  0  0  0  0  0  0  0  0  0
   15.7204   41.5577    8.6620 C   0  0  0  0  0  0  0  0  0  0  0  0
   16.0217   40.6165   11.0156 C   0  0  0  0  0  0  0  0  0  0  0  0
   14.7180   39.9441   11.1984 C   0  0  0  0  0  0  0  0  0  0  0  0
   14.0870   39.2862   10.1350 C   0  0  0  0  0  0  0  0  0  0  0  0
   12.8694   38.6361   10.3363 C   0  0  0  0  0  0  0  0  0  0  0  0
   12.2954   38.6387   11.6082 C   0  0  0  0  0  0  0  0  0  0  0  0
   14.1105   39.9102   12.4608 C   0  0  0  0  0  0  0  0  0  0  0  0
   16.2377   41.5682    7.3643 C   0  0  0  0  0  0  0  0  0  0  0  0
   15.5157   42.1397    6.3117 C   0  0  0  0  0  0  0  0  0  0  0  0
   15.0492   44.8851    4.8047 O   0  0  0  0  0  0  0  0  0  0  0  0
   16.7591   40.8145   12.0177 O   0  0  0  0  0  0  0  0  0  0  0  0
   13.4680   43.3190    5.5262 N   0  0  0  0  0  0  0  0  0  0  0  0
   16.5068   40.9985    9.7209 N   0  0  0  0  0  0  0  0  0  0  0  0
   12.9236   39.2689   12.6366 N   0  0  0  0  0  0  0  0  0  0  0  0
   12.2526   38.0061    9.3083 F   0  0  0  0  0  0  0  0  0  0  0  0
   16.1802   42.0036    4.6908 Cl  0  0  0  0  0  0  0  0  0  0  0  0
  1  2  1  0
  2  3  1  0
  2  4  1  0
  4 19  1  0
  6  7  2  0
  8 20  1  0
  8 15  2  0
  9 10  1  0
 11 12  2  0
 12 22  1  0
 13 21  2  0
 14 10  2  0
 16 23  1  0
 16  5  2  0
 19  5  1  0
 20  9  1  0
  4 17  2  0
  5  6  1  0
  7  8  1  0
  9 18  2  0
 10 11  1  0
 12 13  1  0
 14 21  1  0
 15 16  1  0
M  END
>  <rmsd>  (1) 
0.241320252

$$$$
