MolPort-019-932-453 49155154 CSSS00159283058 MCULE-2916528771 PubChem-51136863 ZINC000049155154
     RDKit          3D

 34 38  0  0  0  0  0  0  0  0999 V2000
    7.3571   43.6802   18.5834 C   0  0  0  0  0  0  0  0  0  0  0  0
    9.2723   43.9083   17.2614 C   0  0  0  0  0  0  0  0  0  0  0  0
    9.8247   44.0979   15.8520 C   0  0  0  0  0  0  0  0  0  0  0  0
    7.8534   42.8140   15.0096 C   0  0  0  0  0  0  0  0  0  0  0  0
    7.3861   42.6988   16.4598 C   0  0  0  0  0  0  0  0  0  0  0  0
   10.1788   42.2218   14.2094 C   0  0  0  0  0  0  0  0  0  0  0  0
    9.6677   41.2307   13.3596 C   0  0  0  0  0  0  0  0  0  0  0  0
   10.5448   40.4475   12.6090 C   0  0  0  0  0  0  0  0  0  0  0  0
   11.9245   40.6498   12.7073 C   0  0  0  0  0  0  0  0  0  0  0  0
   12.3992   41.6476   13.5657 C   0  0  0  0  0  0  0  0  0  0  0  0
   12.8588   39.8344   11.9168 C   0  0  0  0  0  0  0  0  0  0  0  0
   14.5947   39.0225   11.0940 C   0  0  0  0  0  0  0  0  0  0  0  0
   16.0255   38.7329   10.7402 C   0  0  2  0  0  0  0  0  0  0  0  0
   16.9602   38.7225   11.9247 C   0  0  0  0  0  0  0  0  0  0  0  0
   18.3130   38.9683   11.3037 C   0  0  0  0  0  0  0  0  0  0  0  0
   18.0395   39.4749    9.8920 C   0  0  0  0  0  0  0  0  0  0  0  0
   16.2895   41.0161    9.9660 C   0  0  0  0  0  0  0  0  0  0  0  0
   15.5644   41.6071    8.8055 C   0  0  0  0  0  0  0  0  0  0  0  0
   14.2794   41.1658    8.4706 C   0  0  0  0  0  0  0  0  0  0  0  0
   13.6024   41.7374    7.3896 C   0  0  0  0  0  0  0  0  0  0  0  0
   14.2002   42.7555    6.6380 C   0  0  0  0  0  0  0  0  0  0  0  0
   13.9158   44.3607    4.6597 C   0  0  0  0  0  0  0  0  0  0  0  0
   13.0134   44.8321    3.5778 C   0  0  0  0  0  0  0  0  0  0  0  0
   15.4861   43.1990    6.9827 C   0  0  0  0  0  0  0  0  0  0  0  0
   16.1641   42.6285    8.0638 C   0  0  0  0  0  0  0  0  0  0  0  0
    7.8101   43.8763   17.2186 N   0  0  0  0  0  0  0  0  0  0  0  0
    9.2967   43.0419   14.9928 N   0  0  0  0  0  0  0  0  0  0  0  0
   11.5281   42.4031   14.2865 N   0  0  0  0  0  0  0  0  0  0  0  0
   12.4684   38.9067   11.0194 N   0  0  0  0  0  0  0  0  0  0  0  0
   14.2023   39.9437   11.9964 N   0  0  0  0  0  0  0  0  0  0  0  0
   16.5976   39.6076    9.7096 N   0  0  0  0  0  0  0  0  0  0  0  0
   13.4731   43.3177    5.5370 N   0  0  0  0  0  0  0  0  0  0  0  0
   13.5720   38.4296   10.5311 O   0  0  0  0  0  0  0  0  0  0  0  0
   15.0527   44.8864    4.7883 O   0  0  0  0  0  0  0  0  0  0  0  0
  1 26  1  0
  2 26  1  0
  2  3  1  0
  3 27  1  0
  4 27  1  0
  4  5  1  0
  5 26  1  0
  6 28  2  0
  7  8  2  0
  9 10  2  0
  9 11  1  0
 11 30  1  0
 12 33  1  0
 13 12  1  1
 13 14  1  0
 13 31  1  0
 14 15  1  0
 15 16  1  0
 16 31  1  0
 17 31  1  0
 17 18  1  0
 19 20  2  0
 21 32  1  0
 21 24  2  0
 23 22  1  0
 25 18  2  0
 27  6  1  0
 29 33  1  0
 32 22  1  0
  6  7  1  0
  8  9  1  0
 10 28  1  0
 11 29  2  0
 12 30  2  0
 18 19  1  0
 20 21  1  0
 22 34  2  0
 24 25  1  0
M  END
>  <rmsd>  (1) 
0.241234422

$$$$
