MolPort-005-023-412 12001415 CHEMBL1444492 CSSS00159758377 MCULE-4216270797 PubChem-24790322 ZINC000012001415
     RDKit          3D

 30 33  0  0  0  0  0  0  0  0999 V2000
   15.0022   47.7193    2.1131 C   0  0  0  0  0  0  0  0  0  0  0  0
   13.3210   46.0466    2.8382 C   0  0  0  0  0  0  0  0  0  0  0  0
   12.9703   44.9617    3.6790 C   0  0  0  0  0  0  0  0  0  0  0  0
   11.6920   44.3930    3.5587 C   0  0  0  0  0  0  0  0  0  0  0  0
   10.7725   44.8824    2.6288 C   0  0  0  0  0  0  0  0  0  0  0  0
   11.1185   45.9510    1.8030 C   0  0  0  0  0  0  0  0  0  0  0  0
   12.3838   46.5293    1.9072 C   0  0  0  0  0  0  0  0  0  0  0  0
   13.8994   44.4035    4.6910 C   0  0  0  0  0  0  0  0  0  0  0  0
   14.2311   42.7202    6.5805 C   0  0  0  0  0  0  0  0  0  0  0  0
   15.4857   43.1084    7.0113 C   0  0  0  0  0  0  0  0  0  0  0  0
   15.7522   42.2334    8.0581 C   0  0  0  0  0  0  0  0  0  0  0  0
   12.4953   41.0347    7.1946 C   0  0  0  0  0  0  0  0  0  0  0  0
   12.6327   39.5042    7.2285 C   0  0  0  0  0  0  0  0  0  0  0  0
   12.2749   38.9090    8.5929 C   0  0  0  0  0  0  0  0  0  0  0  0
   12.4674   39.1424   10.9158 C   0  0  0  0  0  0  0  0  0  0  0  0
   13.5046   39.6152   11.9251 C   0  0  0  0  0  0  0  0  0  0  0  0
   14.9125   39.1819   11.5178 C   0  0  0  0  0  0  0  0  0  0  0  0
   15.2841   37.7757   11.9944 C   0  0  0  0  0  0  0  0  0  0  0  0
   14.4163   36.6911   11.3759 C   0  0  0  0  0  0  0  0  0  0  0  0
   13.9049   35.8390   12.5226 C   0  0  0  0  0  0  0  0  0  0  0  0
   14.7366   36.2078   13.7336 C   0  0  0  0  0  0  0  0  0  0  0  0
   15.1793   37.6330   13.4997 C   0  0  0  0  0  0  0  0  0  0  0  0
   11.6947   40.9611    9.6390 C   0  0  0  0  0  0  0  0  0  0  0  0
   11.5078   41.5724    8.2386 C   0  0  0  0  0  0  0  0  0  0  0  0
   14.5900   46.6322    2.9315 O   0  0  0  0  0  0  0  0  0  0  0  0
   15.0591   44.8793    4.8265 O   0  0  0  0  0  0  0  0  0  0  0  0
   13.4700   43.3139    5.5208 N   0  0  0  0  0  0  0  0  0  0  0  0
   14.7110   41.3912    8.2233 N   0  0  0  0  0  0  0  0  0  0  0  0
   13.7962   41.6885    7.3176 N   0  0  0  0  0  0  0  0  0  0  0  0
   12.6407   39.8413    9.6529 N   0  0  0  0  0  0  0  0  0  0  0  0
  1 25  1  0
  2 25  1  0
  3  4  2  0
  3  8  1  0
  5  6  2  0
  7  2  2  0
  8 27  1  0
 10 11  1  0
 12 29  1  0
 12 13  1  0
 13 14  1  0
 14 30  1  0
 15 30  1  0
 15 16  1  0
 16 17  1  0
 17 18  1  0
 18 19  1  0
 19 20  1  0
 20 21  1  0
 21 22  1  0
 22 18  1  0
 23 30  1  0
 23 24  1  0
 24 12  1  0
 27  9  1  0
 29 28  1  0
 29  9  1  0
  2  3  1  0
  4  5  1  0
  6  7  1  0
  8 26  2  0
  9 10  2  0
 11 28  2  0
M  END
>  <rmsd>  (1) 
0.20387952

$$$$
