MolPort-002-614-058 2421009 PubChem-1626256 ZINC000002421009 ZINC02421009
     RDKit          3D

 27 30  0  0  0  0  0  0  0  0999 V2000
   12.7970   39.6921   11.7473 C   0  0  0  0  0  0  0  0  0  0  0  0
   13.7799   38.9627   10.8507 C   0  0  0  0  0  0  0  0  0  0  0  0
   13.9132   39.6777    9.5183 C   0  0  0  0  0  0  0  0  0  0  0  0
   14.7564   40.9326    9.6720 C   0  0  0  0  0  0  0  0  0  0  0  0
   14.3505   42.6983    6.5893 C   0  0  0  0  0  0  0  0  0  0  0  0
   13.9360   44.2706    4.6210 C   0  0  0  0  0  0  0  0  0  0  0  0
   13.0693   44.5749    3.4695 C   0  0  0  0  0  0  0  0  0  0  0  0
   13.4467   45.5377    2.5239 C   0  0  0  0  0  0  0  0  0  0  0  0
   11.4564   45.1673    1.2835 C   0  0  0  0  0  0  0  0  0  0  0  0
   11.0396   44.2000    2.1997 C   0  0  0  0  0  0  0  0  0  0  0  0
   11.8522   43.9053    3.2955 C   0  0  0  0  0  0  0  0  0  0  0  0
   15.7187   42.4810    6.5363 C   0  0  0  0  0  0  0  0  0  0  0  0
   16.7056   42.7369    5.5908 C   0  0  0  0  0  0  0  0  0  0  0  0
   18.0080   42.3033    5.8933 C   0  0  0  0  0  0  0  0  0  0  0  0
   19.0495   42.5404    4.9945 C   0  0  0  0  0  0  0  0  0  0  0  0
   20.3434   42.1072    5.2938 C   0  0  0  0  0  0  0  0  0  0  0  0
   20.6030   41.4339    6.4913 C   0  0  0  0  0  0  0  0  0  0  0  0
   19.5742   41.1843    7.4051 C   0  0  0  0  0  0  0  0  0  0  0  0
   19.8929   40.4610    8.6692 C   0  0  0  0  0  0  0  0  0  0  0  0
   18.2669   41.6143    7.1205 C   0  0  0  0  0  0  0  0  0  0  0  0
   15.9991   41.8097    7.6893 C   0  0  0  0  0  0  0  0  0  0  0  0
   14.8735   41.6146    8.3927 N   0  0  0  0  0  0  0  0  0  0  0  0
   13.8553   42.1478    7.7253 N   0  0  0  0  0  0  0  0  0  0  0  0
   13.5189   43.3008    5.5903 N   0  0  0  0  0  0  0  0  0  0  0  0
   12.6410   45.8108    1.4626 N   0  0  0  0  0  0  0  0  0  0  0  0
   17.2446   41.3711    7.9986 N   0  0  0  0  0  0  0  0  0  0  0  0
   15.0181   44.8990    4.7740 O   0  0  0  0  0  0  0  0  0  0  0  0
  1  2  1  0
  2  3  1  0
  3  4  1  0
  4 22  1  0
  5 24  1  0
  5 12  1  0
  6  7  1  0
  8 25  2  0
  9 10  2  0
 11  7  2  0
 13 14  2  0
 15 16  2  0
 17 18  2  0
 19 18  1  0
 20 26  2  0
 20 14  1  0
 21 22  1  0
 21 12  2  0
 22 23  1  0
 24  6  1  0
  5 23  2  0
  6 27  2  0
  7  8  1  0
  9 25  1  0
 10 11  1  0
 12 13  1  0
 14 15  1  0
 16 17  1  0
 18 20  1  0
 21 26  1  0
M  END
>  <rmsd>  (1) 
0.165461868

$$$$
