MolPort-001-580-126 CSSS00121683590 LN01140996 MCULE-9787704706 PubChem-2950566
     RDKit          3D

 30 32  0  0  0  0  0  0  0  0999 V2000
   11.2091   32.9502    7.1944 C   0  0  0  0  0  0  0  0  0  0  0  0
   11.8491   35.1522    8.1216 C   0  0  0  0  0  0  0  0  0  0  0  0
   11.4518   36.4370    8.5027 C   0  0  0  0  0  0  0  0  0  0  0  0
   12.3844   37.3392    9.0214 C   0  0  0  0  0  0  0  0  0  0  0  0
   13.7304   36.9698    9.1669 C   0  0  0  0  0  0  0  0  0  0  0  0
   14.1257   35.6798    8.7839 C   0  0  0  0  0  0  0  0  0  0  0  0
   13.1939   34.7768    8.2653 C   0  0  0  0  0  0  0  0  0  0  0  0
   14.7296   37.9169    9.7148 C   0  0  0  0  0  0  0  0  0  0  0  0
   14.3738   39.3138   10.1286 C   0  0  2  0  0  0  0  0  0  0  0  0
   13.4955   39.3173   11.3658 C   0  0  0  0  0  0  0  0  0  0  0  0
   14.3529   41.0418    8.3558 C   0  0  0  0  0  0  0  0  0  0  0  0
   15.6589   41.4603    8.6552 C   0  0  0  0  0  0  0  0  0  0  0  0
   16.2502   42.4941    7.9254 C   0  0  0  0  0  0  0  0  0  0  0  0
   15.5408   43.1142    6.8941 C   0  0  0  0  0  0  0  0  0  0  0  0
   14.2349   42.7049    6.5854 C   0  0  0  0  0  0  0  0  0  0  0  0
   13.8983   44.3859    4.6741 C   0  0  0  0  0  0  0  0  0  0  0  0
   12.9821   44.8949    3.6384 C   0  0  0  0  0  0  0  0  0  0  0  0
   11.7033   44.3398    3.4897 C   0  0  0  0  0  0  0  0  0  0  0  0
   10.8243   44.8193    2.5049 C   0  0  0  0  0  0  0  0  0  0  0  0
    9.0480   43.2221    3.1457 C   0  0  0  0  0  0  0  0  0  0  0  0
   11.2348   45.8608    1.6672 C   0  0  0  0  0  0  0  0  0  0  0  0
   12.5075   46.4198    1.8083 C   0  0  0  0  0  0  0  0  0  0  0  0
   13.3778   45.9387    2.7899 C   0  0  0  0  0  0  0  0  0  0  0  0
   13.6505   41.6686    7.3216 C   0  0  0  0  0  0  0  0  0  0  0  0
   10.8928   34.2730    7.6061 O   0  0  0  0  0  0  0  0  0  0  0  0
   15.9270   37.5480    9.8495 O   0  0  0  0  0  0  0  0  0  0  0  0
   13.7334   40.0096    9.0655 O   0  0  0  0  0  0  0  0  0  0  0  0
   15.0463   44.8932    4.7976 O   0  0  0  0  0  0  0  0  0  0  0  0
    9.5454   44.2810    2.3391 O   0  0  0  0  0  0  0  0  0  0  0  0
   13.4753   43.3164    5.5340 N   0  0  0  0  0  0  0  0  0  0  0  0
  1 25  1  0
  2 25  1  0
  3  4  2  0
  5  6  2  0
  5  8  1  0
  7  2  2  0
  9  8  1  0
  9 10  1  1
  9 27  1  0
 11 27  1  0
 12 13  2  0
 14 15  2  0
 15 30  1  0
 16 17  1  0
 18 19  2  0
 19 29  1  0
 20 29  1  0
 21 22  2  0
 23 17  2  0
 24 11  2  0
 30 16  1  0
  2  3  1  0
  4  5  1  0
  6  7  1  0
  8 26  2  0
 11 12  1  0
 13 14  1  0
 15 24  1  0
 16 28  2  0
 17 18  1  0
 19 21  1  0
 22 23  1  0
M  END
>  <rmsd>  (1) 
0.234243602

$$$$
