MolPort-019-854-921 57279312 CSSS03437773826 MCULE-8688354168 PubChem-52422320 ZINC000057279312 ZINC57279312
     RDKit          3D

 21 22  0  0  0  0  0  0  0  0999 V2000
   13.7840   43.5049   11.0303 C   0  0  0  0  0  0  0  0  0  0  0  0
   13.0127   42.2535   10.6503 C   0  0  0  0  0  0  0  0  0  0  0  0
   13.7623   40.1239   11.6944 C   0  0  0  0  0  0  0  0  0  0  0  0
   13.2340   38.8109   11.1465 C   0  0  0  0  0  0  0  0  0  0  0  0
   14.9595   40.9617    9.6491 C   0  0  0  0  0  0  0  0  0  0  0  0
   14.9109   41.6244    8.3302 C   0  0  0  0  0  0  0  0  0  0  0  0
   16.3856   42.3672    5.1911 C   0  0  0  0  0  0  0  0  0  0  0  0
   14.2856   42.6615    6.5390 C   0  0  0  0  0  0  0  0  0  0  0  0
   13.9506   44.2976    4.6216 C   0  0  0  0  0  0  0  0  0  0  0  0
   13.1253   44.6654    3.4661 C   0  0  0  0  0  0  0  0  0  0  0  0
   11.8975   44.1110    3.1398 C   0  0  0  0  0  0  0  0  0  0  0  0
   11.3454   44.6632    1.9747 C   0  0  0  0  0  0  0  0  0  0  0  0
   12.1275   45.6494    1.3772 C   0  0  0  0  0  0  0  0  0  0  0  0
   13.8037   42.2468    7.7642 C   0  0  0  0  0  0  0  0  0  0  0  0
   13.9017   41.0984   10.6204 N   0  0  0  0  0  0  0  0  0  0  0  0
   15.9548   41.6350    7.4755 N   0  0  0  0  0  0  0  0  0  0  0  0
   15.5669   42.2738    6.3881 N   0  0  0  0  0  0  0  0  0  0  0  0
   13.4841   43.3036    5.5402 N   0  0  0  0  0  0  0  0  0  0  0  0
   15.9587   40.2420    9.9215 O   0  0  0  0  0  0  0  0  0  0  0  0
   15.0428   44.8930    4.8245 O   0  0  0  0  0  0  0  0  0  0  0  0
   13.5120   45.8238    2.3168 S   0  0  0  0  0  0  0  0  0  0  0  0
  1  2  1  0
  2 15  1  0
  3 15  1  0
  3  4  1  0
  5  6  1  0
  7 17  1  0
  8 18  1  0
  9 10  1  0
 10 21  1  0
 11 12  1  0
 13 21  1  0
 14  6  1  0
 15  5  1  0
 17 16  1  0
 17  8  1  0
 18  9  1  0
  5 19  2  0
  6 16  2  0
  8 14  2  0
  9 20  2  0
 10 11  2  0
 12 13  2  0
M  END
>  <rmsd>  (1) 
0.221653759

$$$$
