Molport-047-071-916 MCULE-7355664274 PubChem-132948519
     RDKit          3D

 24 26  0  0  0  0  0  0  0  0999 V2000
   14.0751   37.7546   10.0431 N   0  0  0  0  0  0  0  0  0  0  0  0
   15.4711   43.1833    6.9018 N   0  0  0  0  0  0  0  0  0  0  0  0
   13.4423   43.2836    5.5561 N   0  0  0  0  0  0  0  0  0  0  0  0
   15.0781   44.9144    4.7799 N   0  0  0  0  0  0  0  0  0  0  0  0
   13.8603   38.0950   11.4481 C   0  0  0  0  0  0  0  0  0  0  0  0
   13.0245   39.3674   11.5506 C   0  0  0  0  0  0  0  0  0  0  0  0
   13.6706   40.4862   10.7390 C   0  0  0  0  0  0  0  0  0  0  0  0
   13.8072   40.0636    9.2755 C   0  0  2  0  0  0  0  0  0  0  0  0
   14.6292   38.7796    9.1601 C   0  0  0  0  0  0  0  0  0  0  0  0
   14.4068   41.1590    8.4524 C   0  0  0  0  0  0  0  0  0  0  0  0
   15.6956   41.6432    8.7118 C   0  0  0  0  0  0  0  0  0  0  0  0
   16.2141   42.6662    7.9166 C   0  0  0  0  0  0  0  0  0  0  0  0
   14.2152   42.7307    6.6280 C   0  0  0  0  0  0  0  0  0  0  0  0
   13.6646   41.7075    7.4039 C   0  0  0  0  0  0  0  0  0  0  0  0
   13.8518   44.3304    4.6678 C   0  0  0  0  0  0  0  0  0  0  0  0
   12.9724   44.7565    3.6688 C   0  0  0  0  0  0  0  0  0  0  0  0
   13.3635   45.7759    2.7990 C   0  0  0  0  0  0  0  0  0  0  0  0
   14.6244   46.3588    2.9335 C   0  0  0  0  0  0  0  0  0  0  0  0
   15.4780   45.9089    3.9425 C   0  0  0  0  0  0  0  0  0  0  0  0
   16.8246   46.5166    4.1021 C   0  0  0  0  0  0  0  0  0  0  0  0
   13.9202   36.3990    9.5955 C   0  0  0  0  0  0  0  0  0  0  0  0
   14.2083   36.0377    8.1975 C   0  0  0  0  0  0  0  0  0  0  0  0
   14.0725   34.7965    7.7488 C   0  0  0  0  0  0  0  0  0  0  0  0
   13.5271   35.5124   10.4034 O   0  0  0  0  0  0  0  0  0  0  0  0
  1 21  1  0
  3 15  1  0
  5  1  1  0
  5  6  1  0
  6  7  1  0
  7  8  1  0
  8  9  1  0
  8 10  1  6
  9  1  1  0
 11 12  2  0
 13  2  2  0
 13  3  1  0
 14 10  2  0
 15  4  2  0
 16 17  2  0
 18 19  2  0
 20 19  1  0
 21 22  1  0
 10 11  1  0
 12  2  1  0
 13 14  1  0
 15 16  1  0
 17 18  1  0
 19  4  1  0
 21 24  2  0
 22 23  2  0
M  END
>  <rmsd>  (1) 
0.243706092

$$$$
