Molport-053-332-402 MCULE-4622279178
     RDKit          3D

 19 20  0  0  0  0  0  0  0  0999 V2000
   11.3697   42.4270   -0.4384 C   0  0  0  0  0  0  0  0  0  0  0  0
   12.5059   43.3073   -0.0145 C   0  0  0  0  0  0  0  0  0  0  0  0
   12.3457   44.2538    1.1433 C   0  0  0  0  0  0  0  0  0  0  0  0
   13.2287   43.8259    2.3203 C   0  0  0  0  0  0  0  0  0  0  0  0
   13.0493   44.7682    3.5143 C   0  0  0  0  0  0  0  0  0  0  0  0
   13.9193   44.3374    4.6567 C   0  0  0  0  0  0  0  0  0  0  0  0
   14.2598   42.7994    6.6351 C   0  0  0  0  0  0  0  0  0  0  0  0
   13.8265   41.9317    7.6153 C   0  0  0  0  0  0  0  0  0  0  0  0
   14.9173   41.7400    8.4149 C   0  0  0  0  0  0  0  0  0  0  0  0
   14.8703   40.9239    9.5426 C   0  0  0  0  0  0  0  0  0  0  0  0
   13.6456   40.2940    9.8414 C   0  0  0  0  0  0  0  0  0  0  0  0
   12.5155   40.4950    9.0121 C   0  0  0  0  0  0  0  0  0  0  0  0
   12.5995   41.3262    7.8784 C   0  0  0  0  0  0  0  0  0  0  0  0
   13.4708   43.3067    5.5495 N   0  0  0  0  0  0  0  0  0  0  0  0
   15.9556   42.4506    7.9431 N   0  0  0  0  0  0  0  0  0  0  0  0
   15.5630   43.1023    6.8532 N   0  0  0  0  0  0  0  0  0  0  0  0
   13.5195   39.2602   11.2523 Cl  0  0  0  0  0  0  0  0  0  0  0  0
   15.0529   44.8694    4.8045 O   0  0  0  0  0  0  0  0  0  0  0  0
   13.5688   43.2591   -0.6156 O   0  0  0  0  0  0  0  0  0  0  0  0
  1  2  1  0
  3  2  1  0
  3  4  1  0
  4  5  1  0
  5  6  1  0
  6 14  1  0
  7  8  1  0
  9 10  2  0
  9 15  1  0
 11 12  2  0
 11 17  1  0
 13  8  2  0
 14  7  1  0
 15 16  1  0
  2 19  2  0
  6 18  2  0
  7 16  2  0
  8  9  1  0
 10 11  1  0
 12 13  1  0
M  END
>  <rmsd>  (1) 
0.196570739

$$$$
