MolPort-019-899-714 67934156 CSSS00160035898 MCULE-6205844426 PubChem-56757329 ZINC000067934156
     RDKit          3D

 25 27  0  0  0  0  0  0  0  0999 V2000
   15.4328   38.1152   11.6271 F   0  0  0  0  0  0  0  0  0  0  0  0
   14.8540   39.3670   11.7278 C   0  0  0  0  0  0  0  0  0  0  0  0
   13.3520   39.2327   11.9144 C   0  0  0  0  0  0  0  0  0  0  0  0
   12.6982   38.6592   10.6653 C   0  0  0  0  0  0  0  0  0  0  0  0
   11.4700   40.3233    9.5568 C   0  0  0  0  0  0  0  0  0  0  0  0
   11.5301   41.4909    8.5706 C   0  0  0  0  0  0  0  0  0  0  0  0
   12.4276   41.2007    7.3576 C   0  0  0  0  0  0  0  0  0  0  0  0
   12.6115   39.7020    7.0777 C   0  0  0  0  0  0  0  0  0  0  0  0
   12.8839   38.8594    8.3383 C   0  0  0  0  0  0  0  0  0  0  0  0
   15.6598   42.4563    8.2300 C   0  0  0  0  0  0  0  0  0  0  0  0
   15.4375   43.2369    7.1008 C   0  0  0  0  0  0  0  0  0  0  0  0
   14.1897   42.8272    6.6696 C   0  0  0  0  0  0  0  0  0  0  0  0
   13.9355   44.3342    4.6236 C   0  0  0  0  0  0  0  0  0  0  0  0
   13.0722   44.7385    3.4848 C   0  0  0  0  0  0  0  0  0  0  0  0
   13.4318   45.7307    2.5349 C   0  0  0  0  0  0  0  0  0  0  0  0
   12.5526   46.0472    1.4933 C   0  0  0  0  0  0  0  0  0  0  0  0
   11.3237   45.3981    1.3759 C   0  0  0  0  0  0  0  0  0  0  0  0
   10.9618   44.4229    2.3032 C   0  0  0  0  0  0  0  0  0  0  0  0
   11.8296   44.0981    3.3468 C   0  0  0  0  0  0  0  0  0  0  0  0
   12.7505   39.6249    9.5796 N   0  0  0  0  0  0  0  0  0  0  0  0
   13.7160   41.8762    7.4860 N   0  0  0  0  0  0  0  0  0  0  0  0
   14.6019   41.6441    8.4380 N   0  0  0  0  0  0  0  0  0  0  0  0
   13.4748   43.3202    5.5287 N   0  0  0  0  0  0  0  0  0  0  0  0
   15.0623   44.8683    4.8023 O   0  0  0  0  0  0  0  0  0  0  0  0
   14.9508   46.6166    2.5780 Cl  0  0  0  0  0  0  0  0  0  0  0  0
  2  1  1  0
  2  3  1  0
  3  4  1  0
  4 20  1  0
  5 20  1  0
  5  6  1  0
  6  7  1  0
  7  8  1  0
  7 21  1  0
  8  9  1  0
  9 20  1  0
 10 11  1  0
 12 23  1  0
 12 21  1  0
 13 14  1  0
 15 25  1  0
 15 16  2  0
 17 18  2  0
 19 14  2  0
 21 22  1  0
 23 13  1  0
 10 22  2  0
 11 12  2  0
 13 24  2  0
 14 15  1  0
 16 17  1  0
 18 19  1  0
M  END
>  <rmsd>  (1) 
0.246525005

$$$$
