MolPort-019-893-664 67741709 CSSS00159787351 MCULE-4514229187 PubChem-56751291 ZINC000067741709
     RDKit          3D

 22 23  0  0  0  0  0  0  0  0999 V2000
   11.6987   44.0957    3.5093 C   0  0  0  0  0  0  0  0  0  0  0  0
   13.0245   44.8386    3.5313 C   0  0  0  0  0  0  0  0  0  0  0  0
   13.7148   44.6241    2.1976 C   0  0  0  0  0  0  0  0  0  0  0  0
   12.7402   46.3184    3.7057 C   0  0  0  0  0  0  0  0  0  0  0  0
   13.9173   44.3591    4.6470 C   0  0  0  0  0  0  0  0  0  0  0  0
   14.2348   42.7809    6.6284 C   0  0  0  0  0  0  0  0  0  0  0  0
   15.5021   43.1663    7.0236 C   0  0  0  0  0  0  0  0  0  0  0  0
   15.7575   42.3525    8.1219 C   0  0  0  0  0  0  0  0  0  0  0  0
   12.4724   41.1704    7.3532 C   0  0  0  0  0  0  0  0  0  0  0  0
   11.5282   41.7113    8.4344 C   0  0  0  0  0  0  0  0  0  0  0  0
   11.7695   41.0968    9.8265 C   0  0  0  0  0  0  0  0  0  0  0  0
   12.3724   39.1874   11.0420 C   0  0  0  0  0  0  0  0  0  0  0  0
   13.6373   38.4854   11.5159 C   0  0  0  0  0  0  0  0  0  0  0  0
   14.5952   39.4669   12.1710 C   0  0  0  0  0  0  0  0  0  0  0  0
   12.1891   39.0311    8.7100 C   0  0  0  0  0  0  0  0  0  0  0  0
   12.5963   39.6392    7.3676 C   0  0  0  0  0  0  0  0  0  0  0  0
   15.0560   44.8828    4.7947 O   0  0  0  0  0  0  0  0  0  0  0  0
   15.2278   40.2436   11.2005 O   0  0  0  0  0  0  0  0  0  0  0  0
   13.4805   43.3181    5.5339 N   0  0  0  0  0  0  0  0  0  0  0  0
   14.6991   41.5456    8.3471 N   0  0  0  0  0  0  0  0  0  0  0  0
   13.7832   41.8090    7.4327 N   0  0  0  0  0  0  0  0  0  0  0  0
   12.6196   39.9017    9.7997 N   0  0  0  0  0  0  0  0  0  0  0  0
  1  2  1  0
  2  3  1  0
  2  4  1  0
  2  5  1  0
  5 19  1  0
  7  8  1  0
  9 21  1  0
  9 10  1  0
 10 11  1  0
 11 22  1  0
 12 22  1  0
 12 13  1  0
 13 14  1  0
 14 18  1  0
 15 22  1  0
 15 16  1  0
 16  9  1  0
 19  6  1  0
 21 20  1  0
 21  6  1  0
  5 17  2  0
  6  7  2  0
  8 20  2  0
M  END
>  <rmsd>  (1) 
0.243942559

$$$$
