MolPort-009-692-502 9122423 CSSS00106925912 GURPVROGVCIAHM-UHFFFAOYSA-N MCULE-7597087955 PubChem-16952737 ZINC000009122423 ZINC09122423
     RDKit          3D

 29 32  0  0  0  0  0  0  0  0999 V2000
   10.9980   43.4700    4.0437 C   0  0  0  0  0  0  0  0  0  0  0  0
   12.1874   46.1409    2.0461 C   0  0  0  0  0  0  0  0  0  0  0  0
   12.0095   47.1424    0.9624 C   0  0  0  0  0  0  0  0  0  0  0  0
   13.3331   45.9907    2.8091 C   0  0  0  0  0  0  0  0  0  0  0  0
   12.9994   44.9477    3.6593 C   0  0  0  0  0  0  0  0  0  0  0  0
   13.8984   44.3919    4.6903 C   0  0  0  0  0  0  0  0  0  0  0  0
   14.2535   42.6986    6.5509 C   0  0  0  0  0  0  0  0  0  0  0  0
   16.0348   42.3169    7.8746 C   0  0  0  0  0  0  0  0  0  0  0  0
   15.1577   41.3369    8.3761 C   0  0  0  0  0  0  0  0  0  0  0  0
   15.4612   40.2699    9.3529 C   0  0  0  0  0  0  0  0  0  0  0  0
   14.4768   39.8354   10.3689 C   0  0  0  0  0  0  0  0  0  0  0  0
   13.3132   40.5803   10.6171 C   0  0  0  0  0  0  0  0  0  0  0  0
   12.4006   40.1686   11.5925 C   0  0  0  0  0  0  0  0  0  0  0  0
   12.6459   39.0100   12.3334 C   0  0  0  0  0  0  0  0  0  0  0  0
   13.8044   38.2649   12.1006 C   0  0  0  0  0  0  0  0  0  0  0  0
   14.7165   38.6774   11.1248 C   0  0  0  0  0  0  0  0  0  0  0  0
   17.3911   42.6026    8.3926 C   0  0  0  0  0  0  0  0  0  0  0  0
   18.3336   43.2222    7.5584 C   0  0  0  0  0  0  0  0  0  0  0  0
   19.6085   43.5363    8.0381 C   0  0  0  0  0  0  0  0  0  0  0  0
   19.9489   43.2431    9.3610 C   0  0  0  0  0  0  0  0  0  0  0  0
   19.0129   42.6406   10.2051 C   0  0  0  0  0  0  0  0  0  0  0  0
   17.7384   42.3274    9.7242 C   0  0  0  0  0  0  0  0  0  0  0  0
   11.7411   44.5354    3.3910 N   0  0  0  0  0  0  0  0  0  0  0  0
   11.2388   45.2586    2.4078 N   0  0  0  0  0  0  0  0  0  0  0  0
   13.4667   43.3108    5.5249 N   0  0  0  0  0  0  0  0  0  0  0  0
   15.5155   43.0639    6.8599 N   0  0  0  0  0  0  0  0  0  0  0  0
   15.0528   44.8799    4.8287 O   0  0  0  0  0  0  0  0  0  0  0  0
   16.5827   39.6957    9.2973 O   0  0  0  0  0  0  0  0  0  0  0  0
   13.7154   41.4325    7.5056 S   0  0  0  0  0  0  0  0  0  0  0  0
  1 23  1  0
  2  4  1  0
  3  2  1  0
  5  6  1  0
  5 23  1  0
  6 25  1  0
  7 29  1  0
  8 26  1  0
  8 17  1  0
  9 29  1  0
  9 10  1  0
 10 11  1  0
 12 13  2  0
 14 15  2  0
 16 11  2  0
 18 19  2  0
 20 21  2  0
 22 17  2  0
 23 24  1  0
 25  7  1  0
  2 24  2  0
  4  5  2  0
  6 27  2  0
  7 26  2  0
  8  9  2  0
 10 28  2  0
 11 12  1  0
 13 14  1  0
 15 16  1  0
 17 18  1  0
 19 20  1  0
 21 22  1  0
M  END
>  <rmsd>  (1) 
0.217482701

$$$$
