MolPort-002-455-712 568486 CSC026737907 CSSS00026737907 ChemDiv-D039-0036 MCULE-3172344502 PubChem-959504 Z57394225 ZINC000000568486 ZINC00568486
     RDKit          3D

 24 25  0  0  0  0  0  0  0  0999 V2000
   12.7800   39.2644   11.8314 C   0  0  0  0  0  0  0  0  0  0  0  0
   13.9051   38.9260   10.8759 C   0  0  0  0  0  0  0  0  0  0  0  0
   15.0105   40.6615    9.5221 C   0  0  0  0  0  0  0  0  0  0  0  0
   14.9587   41.6137    8.3939 C   0  0  0  0  0  0  0  0  0  0  0  0
   15.9577   42.4853    7.9764 C   0  0  0  0  0  0  0  0  0  0  0  0
   17.3054   42.6368    8.5932 C   0  0  0  0  0  0  0  0  0  0  0  0
   14.3071   42.7982    6.6460 C   0  0  0  0  0  0  0  0  0  0  0  0
   13.9064   44.3261    4.6572 C   0  0  0  0  0  0  0  0  0  0  0  0
   13.3301   45.5475    2.4994 C   0  0  0  0  0  0  0  0  0  0  0  0
   12.4126   46.5189    2.0837 C   0  0  0  0  0  0  0  0  0  0  0  0
   12.6829   47.3257    0.9766 C   0  0  0  0  0  0  0  0  0  0  0  0
   13.8713   47.1579    0.2654 C   0  0  0  0  0  0  0  0  0  0  0  0
   14.7815   46.1724    0.6520 C   0  0  0  0  0  0  0  0  0  0  0  0
   14.5176   45.3493    1.7602 C   0  0  0  0  0  0  0  0  0  0  0  0
   16.6080   44.0661    1.4074 C   0  0  0  0  0  0  0  0  0  0  0  0
   13.8991   41.8228    7.5298 C   0  0  0  0  0  0  0  0  0  0  0  0
   12.5721   41.1420    7.5344 C   0  0  0  0  0  0  0  0  0  0  0  0
   13.9072   39.8517    9.7994 O   0  0  0  0  0  0  0  0  0  0  0  0
   16.0488   40.5809   10.2337 O   0  0  0  0  0  0  0  0  0  0  0  0
   15.0325   44.8823    4.7697 O   0  0  0  0  0  0  0  0  0  0  0  0
   15.4007   44.3220    2.1122 O   0  0  0  0  0  0  0  0  0  0  0  0
   15.5638   43.2098    6.9093 N   0  0  0  0  0  0  0  0  0  0  0  0
   13.5006   43.3090    5.5781 N   0  0  0  0  0  0  0  0  0  0  0  0
   12.9942   44.7406    3.6356 N   0  0  0  0  0  0  0  0  0  0  0  0
  1  2  1  0
  2 18  1  0
  3 18  1  0
  3  4  1  0
  5 22  1  0
  6  5  1  0
  7 23  1  0
  8 24  1  0
 10 11  2  0
 12 13  2  0
 14 21  1  0
 14  9  2  0
 15 21  1  0
 16  4  1  0
 17 16  1  0
 22  7  1  0
 23  8  1  0
 24  9  1  0
  3 19  2  0
  4  5  2  0
  7 16  2  0
  8 20  2  0
  9 10  1  0
 11 12  1  0
 13 14  1  0
M  END
>  <rmsd>  (1) 
0.195869729

$$$$
