MolPort-039-210-483 CSSS03436987857 MCULE-6303953660 PubChem-121017032
     RDKit          3D

 19 20  0  0  0  0  0  0  0  0999 V2000
   12.7500   44.4585    2.7132 C   0  0  0  0  0  0  0  0  0  0  0  0
   12.5532   45.3275    3.9391 C   0  0  0  0  0  0  0  0  0  0  0  0
   11.1323   45.1730    4.4429 C   0  0  0  0  0  0  0  0  0  0  0  0
   14.2144   42.5359    6.6483 C   0  0  0  0  0  0  0  0  0  0  0  0
   14.0488   41.2275    7.0396 C   0  0  0  0  0  0  0  0  0  0  0  0
   15.1560   39.7678    8.7164 C   0  0  0  0  0  0  0  0  0  0  0  0
   14.5481   39.8640   10.1068 C   0  0  1  0  0  0  0  0  0  0  0  0
   13.0111   39.8715   10.0228 C   0  0  0  0  0  0  0  0  0  0  0  0
   12.3826   38.9617   11.0813 C   0  0  0  0  0  0  0  0  0  0  0  0
   13.1223   39.0570   12.4180 C   0  0  0  0  0  0  0  0  0  0  0  0
   14.6465   39.1106   12.2225 C   0  0  0  0  0  0  0  0  0  0  0  0
   15.2453   43.0778    7.3925 C   0  0  0  0  0  0  0  0  0  0  0  0
   13.7069   44.8554    5.2132 S   0  0  0  0  0  0  0  0  0  0  0  0
   15.1088   45.0237    4.6982 O   0  0  0  0  0  0  0  0  0  0  0  0
   13.5023   45.7334    6.4157 O   0  0  0  0  0  0  0  0  0  0  0  0
   15.0089   38.7973   10.8993 O   0  0  0  0  0  0  0  0  0  0  0  0
   13.4413   43.2001    5.6487 N   0  0  0  0  0  0  0  0  0  0  0  0
   14.9732   41.0158    7.9927 N   0  0  0  0  0  0  0  0  0  0  0  0
   15.6891   42.1074    8.2152 N   0  0  0  0  0  0  0  0  0  0  0  0
  1  2  1  0
  2  3  1  0
  2 13  1  0
  5 18  1  0
  6 18  1  0
  7  6  1  6
  7  8  1  0
  7 16  1  0
  8  9  1  0
  9 10  1  0
 10 11  1  0
 11 16  1  0
 12  4  1  0
 13 17  1  0
 17  4  1  0
 18 19  1  0
  4  5  2  0
 12 19  2  0
 13 14  2  0
 13 15  2  0
M  END
>  <rmsd>  (1) 
0.230877295

$$$$
