MolPort-002-470-510 CSC000733563 CSSS00000733563 MCULE-4803620098 PubChem-7131767 Z139720794 ZINC04219081
     RDKit          3D

 19 19  0  0  0  0  0  0  0  0999 V2000
   12.6789   39.0046   11.7127 C   0  0  0  0  0  0  0  0  0  0  0  0
   14.0778   39.2908   11.2100 C   0  0  0  0  0  0  0  0  0  0  0  0
   15.1526   40.5971    9.4215 C   0  0  0  0  0  0  0  0  0  0  0  0
   15.0337   41.5185    8.2738 C   0  0  0  0  0  0  0  0  0  0  0  0
   15.9887   42.4402    7.8624 C   0  0  0  0  0  0  0  0  0  0  0  0
   17.3439   42.6355    8.4501 C   0  0  0  0  0  0  0  0  0  0  0  0
   14.3065   42.7596    6.6006 C   0  0  0  0  0  0  0  0  0  0  0  0
   13.8949   44.3680    4.6911 C   0  0  0  0  0  0  0  0  0  0  0  0
   12.9644   44.8414    3.6324 C   0  0  0  0  0  0  0  0  0  0  0  0
   13.9347   41.7256    7.4436 C   0  0  0  0  0  0  0  0  0  0  0  0
   12.6671   40.9709    7.3761 C   0  0  0  0  0  0  0  0  0  0  0  0
   14.0088   40.1646   10.0936 O   0  0  0  0  0  0  0  0  0  0  0  0
   16.2940   40.2342    9.8177 O   0  0  0  0  0  0  0  0  0  0  0  0
   15.5265   43.1622    6.8691 O   0  0  0  0  0  0  0  0  0  0  0  0
   15.0390   44.8860    4.7889 O   0  0  0  0  0  0  0  0  0  0  0  0
   11.6442   41.5029    6.8701 O   0  0  0  0  0  0  0  0  0  0  0  0
   13.4895   43.3075    5.5609 N   0  0  0  0  0  0  0  0  0  0  0  0
   12.5963   39.6210    7.8212 N   0  0  0  0  0  0  0  0  0  0  0  0
   13.1437   43.8307    2.1790 Cl  0  0  0  0  0  0  0  0  0  0  0  0
  1  2  1  0
  2 12  1  0
  3 12  1  0
  3  4  1  0
  5 14  1  0
  6  5  1  0
  7 14  1  0
  7 17  1  0
  9  8  1  0
  9 19  1  0
 10 11  1  0
 10  4  1  0
 11 18  1  0
 17  8  1  0
  3 13  2  0
  4  5  2  0
  7 10  2  0
  8 15  2  0
 11 16  2  0
M  END
>  <rmsd>  (1) 
0.198279634

$$$$
