MolPort-007-789-507 ChemDiv-F223-0585 MCULE-9315983738 PubChem-46289723 ZINC000032959596 ZINC32959596
     RDKit          3D

 28 30  0  0  0  0  0  0  0  0999 V2000
   10.7550   41.6729   10.6248 C   0  0  0  0  0  0  0  0  0  0  0  0
   12.2853   39.7399   10.8231 C   0  0  0  0  0  0  0  0  0  0  0  0
   12.6663   38.4801   10.3560 C   0  0  0  0  0  0  0  0  0  0  0  0
   13.7546   37.7971   10.9122 C   0  0  0  0  0  0  0  0  0  0  0  0
   14.7235   35.5036   11.1103 C   0  0  0  0  0  0  0  0  0  0  0  0
   14.5051   38.4229   11.9426 C   0  0  0  0  0  0  0  0  0  0  0  0
   15.7488   37.8345   12.5331 C   0  0  0  0  0  0  0  0  0  0  0  0
   17.5474   38.8416   11.0158 C   0  0  0  0  0  0  0  0  0  0  0  0
   17.2232   40.2477   11.4124 C   0  0  0  0  0  0  0  0  0  0  0  0
   16.7916   41.0495   10.2289 C   0  0  0  0  0  0  0  0  0  0  0  0
   17.6707   42.0000    9.6713 C   0  0  0  0  0  0  0  0  0  0  0  0
   17.2873   42.7611    8.5539 C   0  0  0  0  0  0  0  0  0  0  0  0
   16.0199   42.5533    8.0092 C   0  0  0  0  0  0  0  0  0  0  0  0
   14.2733   42.7991    6.6446 C   0  0  0  0  0  0  0  0  0  0  0  0
   13.9105   44.3391    4.6599 C   0  0  0  0  0  0  0  0  0  0  0  0
   12.9978   44.7714    3.5701 C   0  0  0  0  0  0  0  0  0  0  0  0
   15.1641   41.6131    8.5610 C   0  0  0  0  0  0  0  0  0  0  0  0
   15.5206   40.8473    9.6649 C   0  0  0  0  0  0  0  0  0  0  0  0
   14.1055   39.6754   12.4217 C   0  0  0  0  0  0  0  0  0  0  0  0
   13.0034   40.3298   11.8714 C   0  0  0  0  0  0  0  0  0  0  0  0
   11.1934   40.3799   10.2306 O   0  0  0  0  0  0  0  0  0  0  0  0
   14.0348   36.5223   10.3995 O   0  0  0  0  0  0  0  0  0  0  0  0
   18.4945   38.6278   10.2141 O   0  0  0  0  0  0  0  0  0  0  0  0
   15.0408   44.8831    4.7736 O   0  0  0  0  0  0  0  0  0  0  0  0
   16.8113   37.7316   11.5376 N   0  0  0  0  0  0  0  0  0  0  0  0
   15.5294   43.2209    6.9352 N   0  0  0  0  0  0  0  0  0  0  0  0
   13.4890   43.3129    5.5636 N   0  0  0  0  0  0  0  0  0  0  0  0
   13.7265   41.5914    7.6965 S   0  0  0  0  0  0  0  0  0  0  0  0
  1 21  1  0
  2 21  1  0
  3  4  2  0
  4 22  1  0
  5 22  1  0
  6 19  2  0
  7  6  1  0
  7 25  1  0
  9  8  1  0
  9 10  1  0
 11 12  2  0
 13 26  1  0
 14 27  1  0
 14 28  1  0
 16 15  1  0
 17 28  1  0
 17 13  2  0
 18 10  2  0
 20  2  2  0
 25  8  1  0
 27 15  1  0
  2  3  1  0
  4  6  1  0
  8 23  2  0
 10 11  1  0
 12 13  1  0
 14 26  2  0
 15 24  2  0
 17 18  1  0
 19 20  1  0
M  END
>  <rmsd>  (1) 
0.2187251

$$$$
