MolPort-009-741-553 36709122 CSSS03437049413 MCULE-8154873311 PubChem-45503550 ZINC000036709122 ZINC36709122
     RDKit          3D

 23 24  0  0  0  0  0  0  0  0999 V2000
   12.7746   39.3348   11.7032 C   0  0  0  0  0  0  0  0  0  0  0  0
   13.9083   39.0073   10.7542 C   0  0  0  0  0  0  0  0  0  0  0  0
   15.0217   40.7563    9.4269 C   0  0  0  0  0  0  0  0  0  0  0  0
   14.9725   41.7058    8.3106 C   0  0  0  0  0  0  0  0  0  0  0  0
   15.9868   42.5690    7.9409 C   0  0  0  0  0  0  0  0  0  0  0  0
   14.3200   42.8094    6.6515 C   0  0  0  0  0  0  0  0  0  0  0  0
   13.9013   44.3242    4.6688 C   0  0  0  0  0  0  0  0  0  0  0  0
   13.3236   45.6505    2.5952 C   0  0  0  0  0  0  0  0  0  0  0  0
   12.4937   46.7631    2.4194 C   0  0  0  0  0  0  0  0  0  0  0  0
   12.8140   47.7486    1.4843 C   0  0  0  0  0  0  0  0  0  0  0  0
   13.9780   47.6359    0.7241 C   0  0  0  0  0  0  0  0  0  0  0  0
   14.8008   46.5176    0.8706 C   0  0  0  0  0  0  0  0  0  0  0  0
   14.4737   45.5024    1.7769 C   0  0  0  0  0  0  0  0  0  0  0  0
   14.8107   43.0575    2.0242 C   0  0  0  0  0  0  0  0  0  0  0  0
   13.9175   39.9422    9.6857 O   0  0  0  0  0  0  0  0  0  0  0  0
   16.0565   40.6806   10.1446 O   0  0  0  0  0  0  0  0  0  0  0  0
   15.5361   43.2352    6.9046 O   0  0  0  0  0  0  0  0  0  0  0  0
   15.0303   44.8769    4.7736 O   0  0  0  0  0  0  0  0  0  0  0  0
   15.3002   44.3733    1.8071 O   0  0  0  0  0  0  0  0  0  0  0  0
   13.5021   43.3032    5.5873 N   0  0  0  0  0  0  0  0  0  0  0  0
   12.9934   44.7269    3.6387 N   0  0  0  0  0  0  0  0  0  0  0  0
   13.9081   41.8493    7.4986 N   0  0  0  0  0  0  0  0  0  0  0  0
   11.7716   49.1405    1.2881 Cl  0  0  0  0  0  0  0  0  0  0  0  0
  1  2  1  0
  2 15  1  0
  3 15  1  0
  3  4  1  0
  4 22  1  0
  5 17  1  0
  6 17  1  0
  6 20  1  0
  7 21  1  0
  9 10  2  0
 10 23  1  0
 11 12  2  0
 13 19  1  0
 13  8  2  0
 14 19  1  0
 20  7  1  0
 21  8  1  0
  3 16  2  0
  4  5  2  0
  6 22  2  0
  7 18  2  0
  8  9  1  0
 10 11  1  0
 12 13  1  0
M  END
>  <rmsd>  (1) 
0.190740824

$$$$
