Molport-020-278-675 MCULE-1527816601 MCULE-2505562369 PubChem-110255547
     RDKit          3D

 26 29  0  0  0  0  0  0  0  0999 V2000
   17.5557   43.0988    8.3895 C   0  0  0  0  0  0  0  0  0  0  0  0
   16.1927   42.6233    8.0372 C   0  0  0  0  0  0  0  0  0  0  0  0
   15.5069   43.2013    6.9712 C   0  0  0  0  0  0  0  0  0  0  0  0
   14.2256   42.7323    6.6617 C   0  0  0  0  0  0  0  0  0  0  0  0
   14.3684   41.1761    8.4442 C   0  0  0  0  0  0  0  0  0  0  0  0
   13.7391   40.0757    9.2318 C   0  0  2  0  0  0  0  0  0  0  0  0
   13.5796   40.4807   10.6903 C   0  0  0  0  0  0  0  0  0  0  0  0
   12.9512   39.3344   11.4657 C   0  0  0  0  0  0  0  0  0  0  0  0
   13.8096   38.0741   11.3162 C   0  0  0  0  0  0  0  0  0  0  0  0
   14.5749   38.7940    9.1292 C   0  0  0  0  0  0  0  0  0  0  0  0
   12.7326   37.2598    9.3325 C   0  0  0  0  0  0  0  0  0  0  0  0
   12.9464   36.1151    8.4012 C   0  0  0  0  0  0  0  0  0  0  0  0
   13.6037   34.9741    6.7339 C   0  0  0  0  0  0  0  0  0  0  0  0
   12.8247   34.1742    7.5469 C   0  0  0  0  0  0  0  0  0  0  0  0
   13.8481   44.3212    4.6748 C   0  0  0  0  0  0  0  0  0  0  0  0
   15.4328   45.9051    3.8949 C   0  0  0  0  0  0  0  0  0  0  0  0
   14.5390   46.3130    2.9041 C   0  0  0  0  0  0  0  0  0  0  0  0
   12.9564   44.7319    3.6815 C   0  0  0  0  0  0  0  0  0  0  0  0
   13.6877   41.7306    7.4066 N   0  0  0  0  0  0  0  0  0  0  0  0
   15.6156   41.6245    8.7532 N   0  0  0  0  0  0  0  0  0  0  0  0
   14.0045   37.6865    9.9115 N   0  0  0  0  0  0  0  0  0  0  0  0
   13.6779   36.2034    7.2759 N   0  0  0  0  0  0  0  0  0  0  0  0
   12.4087   34.8996    8.6012 N   0  0  0  0  0  0  0  0  0  0  0  0
   13.4586   43.2793    5.5797 N   0  0  0  0  0  0  0  0  0  0  0  0
   15.0685   44.9196    4.7571 N   0  0  0  0  0  0  0  0  0  0  0  0
   13.3201   45.7175    2.8190 N   0  0  0  0  0  0  0  0  0  0  0  0
  1  2  1  0
  2 20  2  0
  3  4  2  0
  4 24  1  0
  5 19  2  0
  6  5  1  6
  6  7  1  0
  7  8  1  0
  8  9  1  0
  9 21  1  0
 10 21  1  0
 10  6  1  0
 11 21  1  0
 11 12  1  0
 13 22  1  0
 14 23  1  0
 16 25  2  0
 17 26  2  0
 18 15  2  0
 23 12  1  0
 24 15  1  0
  2  3  1  0
  4 19  1  0
  5 20  1  0
 12 22  2  0
 13 14  2  0
 15 25  1  0
 16 17  1  0
 18 26  1  0
M  END
>  <rmsd>  (1) 
0.246477559

$$$$
