Molport-052-004-877
     RDKit          3D

 25 27  0  0  0  0  0  0  0  0999 V2000
   13.4348   39.5407   11.2124 C   0  0  0  0  0  0  0  0  0  0  0  0
   14.8412   40.7013    9.4644 C   0  0  0  0  0  0  0  0  0  0  0  0
   14.9289   41.5294    8.2408 C   0  0  0  0  0  0  0  0  0  0  0  0
   14.3253   42.6789    6.5530 C   0  0  0  0  0  0  0  0  0  0  0  0
   13.9358   44.2965    4.6316 C   0  0  0  0  0  0  0  0  0  0  0  0
   13.0939   44.6632    3.4718 C   0  0  0  0  0  0  0  0  0  0  0  0
   13.4882   45.6704    2.5777 C   0  0  0  0  0  0  0  0  0  0  0  0
   12.6727   45.9779    1.4888 C   0  0  0  0  0  0  0  0  0  0  0  0
   11.4741   45.2902    1.2968 C   0  0  0  0  0  0  0  0  0  0  0  0
   11.0943   44.2919    2.2107 C   0  0  0  0  0  0  0  0  0  0  0  0
    9.8320   43.5240    2.0534 C   0  0  0  0  0  0  0  0  0  0  0  0
    8.7044   44.0831    1.4186 C   0  0  0  0  0  0  0  0  0  0  0  0
    7.5242   43.3441    1.2902 C   0  0  0  0  0  0  0  0  0  0  0  0
    7.4509   42.0451    1.7966 C   0  0  0  0  0  0  0  0  0  0  0  0
    8.5564   41.4833    2.4380 C   0  0  0  0  0  0  0  0  0  0  0  0
    9.7390   42.2174    2.5704 C   0  0  0  0  0  0  0  0  0  0  0  0
   15.7043   42.6332    6.5616 C   0  0  0  0  0  0  0  0  0  0  0  0
   17.4563   41.6040    8.0108 C   0  0  0  0  0  0  0  0  0  0  0  0
   13.5602   40.3545   10.0096 N   0  0  0  0  0  0  0  0  0  0  0  0
   13.8312   41.9804    7.5940 N   0  0  0  0  0  0  0  0  0  0  0  0
   13.4891   43.2963    5.5635 N   0  0  0  0  0  0  0  0  0  0  0  0
   11.9188   44.0091    3.2587 N   0  0  0  0  0  0  0  0  0  0  0  0
   16.0793   41.9129    7.6329 N   0  0  0  0  0  0  0  0  0  0  0  0
   15.8907   40.2971   10.0335 O   0  0  0  0  0  0  0  0  0  0  0  0
   15.0345   44.8874    4.8156 O   0  0  0  0  0  0  0  0  0  0  0  0
  1 19  1  0
  2  3  1  0
  4 20  1  0
  4 21  1  0
  5  6  1  0
  6 22  2  0
  7  8  2  0
  9 10  2  0
 10 11  1  0
 12 13  2  0
 14 15  2  0
 16 11  2  0
 17 23  1  0
 18 23  1  0
 19  2  1  0
 21  5  1  0
 23  3  1  0
  2 24  2  0
  3 20  2  0
  4 17  2  0
  5 25  2  0
  6  7  1  0
  8  9  1  0
 10 22  1  0
 11 12  1  0
 13 14  1  0
 15 16  1  0
M  END
>  <rmsd>  (1) 
0.232686684

$$$$
