MolPort-006-727-805 38540493 MCULE-8992860453 PubChem-11237328 ZINC000038540493
     RDKit          3D

 36 39  0  0  0  0  0  0  0  0999 V2000
   13.4868   39.6420   12.0207 C   0  0  0  0  0  0  0  0  0  0  0  0
   13.1924   39.0461   10.6560 C   0  0  0  0  0  0  0  0  0  0  0  0
   14.6969   40.4279    9.2573 C   0  0  0  0  0  0  0  0  0  0  0  0
   14.3215   42.7559    6.6243 C   0  0  0  0  0  0  0  0  0  0  0  0
   13.9313   44.2873    4.6269 C   0  0  0  0  0  0  0  0  0  0  0  0
   13.0692   44.6118    3.4770 C   0  0  0  0  0  0  0  0  0  0  0  0
   13.4745   45.5637    2.5318 C   0  0  0  0  0  0  0  0  0  0  0  0
   12.6576   45.8675    1.4396 C   0  0  0  0  0  0  0  0  0  0  0  0
   11.4189   45.2273    1.2735 C   0  0  0  0  0  0  0  0  0  0  0  0
   11.0180   44.2729    2.2222 C   0  0  0  0  0  0  0  0  0  0  0  0
   11.8353   43.9684    3.3138 C   0  0  0  0  0  0  0  0  0  0  0  0
    9.2399   44.9589    0.0285 C   0  0  0  0  0  0  0  0  0  0  0  0
    8.9585   44.6085   -1.4308 C   0  0  0  0  0  0  0  0  0  0  0  0
    8.8981   45.3693   -3.6394 C   0  0  0  0  0  0  0  0  0  0  0  0
   10.5871   46.1402   -2.2215 C   0  0  0  0  0  0  0  0  0  0  0  0
   10.9581   46.5795   -0.8075 C   0  0  0  0  0  0  0  0  0  0  0  0
   15.7045   42.6922    6.6547 C   0  0  0  0  0  0  0  0  0  0  0  0
   15.9897   41.8620    7.6868 C   0  0  0  0  0  0  0  0  0  0  0  0
   17.2204   41.0766    7.4296 C   0  0  0  0  0  0  0  0  0  0  0  0
   16.6895   42.5460    5.5572 C   0  0  0  0  0  0  0  0  0  0  0  0
   18.7757   41.0828    5.4134 C   0  0  0  0  0  0  0  0  0  0  0  0
   20.7758   39.5693    5.4240 C   0  0  0  0  0  0  0  0  0  0  0  0
   21.8049   40.6599    5.1807 C   0  0  0  0  0  0  0  0  0  0  0  0
   20.4512   38.8667    4.1169 C   0  0  0  0  0  0  0  0  0  0  0  0
   21.3699   38.5546    6.3779 C   0  0  0  0  0  0  0  0  0  0  0  0
   13.4163   40.0111    9.6347 O   0  0  0  0  0  0  0  0  0  0  0  0
   15.7181   39.9223    9.7998 O   0  0  0  0  0  0  0  0  0  0  0  0
   15.0238   44.8976    4.7841 O   0  0  0  0  0  0  0  0  0  0  0  0
   19.0539   41.5403    4.2711 O   0  0  0  0  0  0  0  0  0  0  0  0
   19.5927   40.1130    6.0139 O   0  0  0  0  0  0  0  0  0  0  0  0
   14.8420   41.4361    8.2510 N   0  0  0  0  0  0  0  0  0  0  0  0
   13.8169   41.9846    7.6117 N   0  0  0  0  0  0  0  0  0  0  0  0
   13.5096   43.3017    5.5786 N   0  0  0  0  0  0  0  0  0  0  0  0
   10.5808   45.5335    0.1432 N   0  0  0  0  0  0  0  0  0  0  0  0
    9.1713   45.7823   -2.2756 N   0  0  0  0  0  0  0  0  0  0  0  0
   17.6173   41.5545    6.1050 N   0  0  0  0  0  0  0  0  0  0  0  0
  1  2  1  0
  2 26  1  0
  3 26  1  0
  3 31  1  0
  4 33  1  0
  4 17  1  0
  5  6  1  0
  7  8  2  0
  9 10  2  0
  9 34  1  0
 11  6  2  0
 12 34  1  0
 12 13  1  0
 13 35  1  0
 14 35  1  0
 15 35  1  0
 15 16  1  0
 16 34  1  0
 18 31  1  0
 19 18  1  0
 19 36  1  0
 20 36  1  0
 20 17  1  0
 21 30  1  0
 22 30  1  0
 22 23  1  0
 22 24  1  0
 22 25  1  0
 31 32  1  0
 33  5  1  0
 36 21  1  0
  3 27  2  0
  4 32  2  0
  5 28  2  0
  6  7  1  0
  8  9  1  0
 10 11  1  0
 17 18  2  0
 21 29  2  0
M  END
>  <rmsd>  (1) 
0.159744397

$$$$
