MolPort-035-706-979 CSSS03437789234 MCULE-2375191643 PubChem-91938304
     RDKit          3D

 28 30  0  0  0  0  0  0  0  0999 V2000
   13.3374   35.4829    7.9698 C   0  0  0  0  0  0  0  0  0  0  0  0
   14.6422   36.2301    7.7631 C   0  0  0  0  0  0  0  0  0  0  0  0
   14.5134   37.8277    9.6504 C   0  0  0  0  0  0  0  0  0  0  0  0
   14.3909   39.2532   10.1161 C   0  0  1  0  0  0  0  0  0  0  0  0
   13.5056   39.3216   11.3524 C   0  0  0  0  0  0  0  0  0  0  0  0
   14.3514   41.0541    8.3591 C   0  0  0  0  0  0  0  0  0  0  0  0
   13.6469   41.6750    7.3236 C   0  0  0  0  0  0  0  0  0  0  0  0
   14.2331   42.7100    6.5866 C   0  0  0  0  0  0  0  0  0  0  0  0
   13.8961   44.3854    4.6682 C   0  0  0  0  0  0  0  0  0  0  0  0
   12.9911   44.9097    3.6143 C   0  0  0  0  0  0  0  0  0  0  0  0
   13.4554   45.9567    2.8006 C   0  0  0  0  0  0  0  0  0  0  0  0
   12.6549   46.4945    1.7921 C   0  0  0  0  0  0  0  0  0  0  0  0
   11.3727   45.9924    1.5801 C   0  0  0  0  0  0  0  0  0  0  0  0
   10.8924   44.9531    2.3767 C   0  0  0  0  0  0  0  0  0  0  0  0
   11.6867   44.4005    3.3967 C   0  0  0  0  0  0  0  0  0  0  0  0
    9.8903   42.8063    4.0158 C   0  0  0  0  0  0  0  0  0  0  0  0
   15.5382   43.1213    6.8989 C   0  0  0  0  0  0  0  0  0  0  0  0
   16.2448   42.5048    7.9352 C   0  0  0  0  0  0  0  0  0  0  0  0
   15.6506   41.4718    8.6636 C   0  0  0  0  0  0  0  0  0  0  0  0
   15.7677   39.7793   10.4698 C   0  0  0  0  0  0  0  0  0  0  0  0
   14.5431   37.5521    8.2791 O   0  0  0  0  0  0  0  0  0  0  0  0
   14.6515   36.8941   10.4900 O   0  0  0  0  0  0  0  0  0  0  0  0
   13.7490   40.0212    9.0854 O   0  0  0  0  0  0  0  0  0  0  0  0
   15.0453   44.8891    4.8001 O   0  0  0  0  0  0  0  0  0  0  0  0
   11.1893   43.3573    4.1874 O   0  0  0  0  0  0  0  0  0  0  0  0
   16.4166   39.2621   11.4187 O   0  0  0  0  0  0  0  0  0  0  0  0
   13.4759   43.3182    5.5315 N   0  0  0  0  0  0  0  0  0  0  0  0
   16.3578   40.8462    9.7275 N   0  0  0  0  0  0  0  0  0  0  0  0
  1  2  1  0
  2 21  1  0
  3 21  1  0
  4  3  1  0
  4  5  1  1
  4 23  1  0
  4 20  1  0
  6 23  1  0
  7  8  2  0
  8 27  1  0
  9 10  1  0
 11 12  2  0
 13 14  2  0
 15 25  1  0
 15 10  2  0
 16 25  1  0
 17 18  2  0
 19 28  1  0
 19  6  2  0
 27  9  1  0
 28 20  1  0
  3 22  2  0
  6  7  1  0
  8 17  1  0
  9 24  2  0
 10 11  1  0
 12 13  1  0
 14 15  1  0
 18 19  1  0
 20 26  2  0
M  END
>  <rmsd>  (1) 
0.233688965

$$$$
