MolPort-000-841-011 CSSS00132831161
     RDKit          3D

 34 36  0  0  0  0  0  0  0  0999 V2000
   22.2987   36.5270    3.4707 C   0  0  0  0  0  0  0  0  0  0  0  0
   23.2781   37.4182    4.2098 C   0  0  0  0  0  0  0  0  0  0  0  0
   23.0392   37.3376    5.7112 C   0  0  1  0  0  0  0  0  0  0  0  0
   24.1972   37.9405    6.4869 C   0  0  0  0  0  0  0  0  0  0  0  0
   21.4487   39.3406    5.8786 C   0  0  0  0  0  0  0  0  0  0  0  0
   19.2241   39.0434    6.7495 C   0  0  0  0  0  0  0  0  0  0  0  0
   19.4877   37.6441    7.1536 C   0  0  0  0  0  0  0  0  0  0  0  0
   18.6294   36.8584    7.8296 C   0  0  0  0  0  0  0  0  0  0  0  0
   17.3595   37.2456    8.4636 C   0  0  0  0  0  0  0  0  0  0  0  0
   16.2729   36.3753    8.3872 C   0  0  0  0  0  0  0  0  0  0  0  0
   15.0747   36.6889    9.0306 C   0  0  0  0  0  0  0  0  0  0  0  0
   14.9403   37.8668    9.7753 C   0  0  0  0  0  0  0  0  0  0  0  0
   13.3600   39.1878   11.2142 C   0  0  0  0  0  0  0  0  0  0  0  0
   16.0543   38.7436    9.8752 C   0  0  0  0  0  0  0  0  0  0  0  0
   16.0217   40.0258   10.6492 C   0  0  0  0  0  0  0  0  0  0  0  0
   15.7127   41.6563    8.7924 C   0  0  0  0  0  0  0  0  0  0  0  0
   14.4185   41.1998    8.4979 C   0  0  0  0  0  0  0  0  0  0  0  0
   13.7001   41.7541    7.4353 C   0  0  0  0  0  0  0  0  0  0  0  0
   14.2620   42.7696    6.6550 C   0  0  0  0  0  0  0  0  0  0  0  0
   13.9004   44.3474    4.6678 C   0  0  0  0  0  0  0  0  0  0  0  0
   12.9660   44.7874    3.5997 C   0  0  0  0  0  0  0  0  0  0  0  0
   15.5543   43.2272    6.9524 C   0  0  0  0  0  0  0  0  0  0  0  0
   16.2738   42.6735    8.0149 C   0  0  0  0  0  0  0  0  0  0  0  0
   17.2538   38.4069    9.2357 C   0  0  0  0  0  0  0  0  0  0  0  0
   20.7832   37.0866    6.7309 C   0  0  0  0  0  0  0  0  0  0  0  0
   21.7577   37.9401    6.1025 N   0  0  0  0  0  0  0  0  0  0  0  0
   20.2773   39.8204    6.1733 N   0  0  0  0  0  0  0  0  0  0  0  0
   13.4941   43.3127    5.5723 N   0  0  0  0  0  0  0  0  0  0  0  0
   22.6478   40.4690    5.1628 S   0  0  0  0  0  0  0  0  0  0  0  0
   18.0760   39.5518    6.8389 O   0  0  0  0  0  0  0  0  0  0  0  0
   13.6909   38.0891   10.3776 O   0  0  0  0  0  0  0  0  0  0  0  0
   16.4617   41.1189    9.8455 O   0  0  0  0  0  0  0  0  0  0  0  0
   15.0328   44.8906    4.7595 O   0  0  0  0  0  0  0  0  0  0  0  0
   21.0443   35.8671    6.9313 O   0  0  0  0  0  0  0  0  0  0  0  0
  1  2  1  0
  3  2  1  0
  3  4  1  1
  3 26  1  0
  5 29  1  0
  6 27  1  0
  6  7  1  0
  7 25  1  0
  8  9  1  0
 10 11  2  0
 12 31  1  0
 12 14  2  0
 13 31  1  0
 15 14  1  0
 15 32  1  0
 16 32  1  0
 17 18  2  0
 19 28  1  0
 19 22  2  0
 21 20  1  0
 23 16  2  0
 24  9  2  0
 25 26  1  0
 26  5  1  0
 28 20  1  0
  5 27  2  0
  6 30  2  0
  7  8  2  0
  9 10  1  0
 11 12  1  0
 14 24  1  0
 16 17  1  0
 18 19  1  0
 20 33  2  0
 22 23  1  0
 25 34  2  0
M  END
>  <rmsd>  (1) 
0.247277573

$$$$
