MolPort-001-656-925 2804259 CHEMBL3487069 CSSS00133005194 MCULE-9047264522 PubChem-19582140 ZINC000002804259 ZINC02804259
     RDKit          3D

 22 23  0  0  0  0  0  0  0  0999 V2000
   13.0184   39.4583   11.9995 C   0  0  0  0  0  0  0  0  0  0  0  0
   14.1178   39.4059   10.9603 C   0  0  0  0  0  0  0  0  0  0  0  0
   14.9036   40.2078    9.0599 C   0  0  0  0  0  0  0  0  0  0  0  0
   13.8461   41.5820    7.2780 C   0  0  0  0  0  0  0  0  0  0  0  0
   14.2615   42.6519    6.5185 C   0  0  0  0  0  0  0  0  0  0  0  0
   13.8942   44.4140    4.7183 C   0  0  0  0  0  0  0  0  0  0  0  0
   12.9575   45.0181    3.7278 C   0  0  0  0  0  0  0  0  0  0  0  0
   12.5542   43.9894    2.6654 C   0  0  0  0  0  0  0  0  0  0  0  0
   11.2586   44.3781    1.9439 C   0  0  0  0  0  0  0  0  0  0  0  0
   10.7011   46.1567    3.4286 C   0  0  0  0  0  0  0  0  0  0  0  0
   11.7374   45.6164    4.4295 C   0  0  0  0  0  0  0  0  0  0  0  0
    8.2112   45.2826    1.6112 C   0  0  0  0  0  0  0  0  0  0  0  0
   15.5546   42.9640    6.8980 C   0  0  0  0  0  0  0  0  0  0  0  0
   13.9351   40.4359   10.0383 O   0  0  0  0  0  0  0  0  0  0  0  0
   15.0544   44.8904    4.8349 O   0  0  0  0  0  0  0  0  0  0  0  0
    9.3459   47.6688    1.1638 O   0  0  0  0  0  0  0  0  0  0  0  0
    9.9245   45.8517   -0.3702 O   0  0  0  0  0  0  0  0  0  0  0  0
   14.8807   41.2838    8.0842 N   0  0  0  0  0  0  0  0  0  0  0  0
   13.4682   43.3063    5.5226 N   0  0  0  0  0  0  0  0  0  0  0  0
   11.0256   45.8188    2.0373 N   0  0  0  0  0  0  0  0  0  0  0  0
   15.9036   42.0949    7.8670 N   0  0  0  0  0  0  0  0  0  0  0  0
    9.6391   46.1975    1.0651 S   0  0  0  0  0  0  0  0  0  0  0  0
  1  2  1  0
  2 14  1  0
  3 14  1  0
  3 18  1  0
  5 19  1  0
  5 13  1  0
  7  6  1  0
  7  8  1  0
  8  9  1  0
  9 20  1  0
 10 20  1  0
 10 11  1  0
 11  7  1  0
 18  4  1  0
 18 21  1  0
 19  6  1  0
 22 20  1  0
 22 12  1  0
  4  5  2  0
  6 15  2  0
 13 21  2  0
 22 16  2  0
 22 17  2  0
M  END
>  <rmsd>  (1) 
0.234631851

$$$$
