MolPort-006-495-211 ChemDiv-V014-3900F MCULE-7172726103 PubChem-8094207
     RDKit          3D

 23 24  0  0  0  0  0  0  0  0999 V2000
   14.2618   43.0841    1.8784 C   0  0  0  0  0  0  0  0  0  0  0  0
   12.9270   43.5628    2.4218 C   0  0  0  0  0  0  0  0  0  0  0  0
   12.1211   42.3974    2.9657 C   0  0  0  0  0  0  0  0  0  0  0  0
   13.0944   44.6803    3.4544 C   0  0  0  0  0  0  0  0  0  0  0  0
   13.9472   44.2975    4.6245 C   0  0  0  0  0  0  0  0  0  0  0  0
   14.1916   42.8184    6.6961 C   0  0  0  0  0  0  0  0  0  0  0  0
   15.6638   42.2132    8.4855 C   0  0  0  0  0  0  0  0  0  0  0  0
   17.7994   40.6827    8.7263 C   0  0  0  0  0  0  0  0  0  0  0  0
   17.0080   39.3813    8.7189 C   0  0  0  0  0  0  0  0  0  0  0  0
   17.1657   38.6185   10.0290 C   0  0  0  0  0  0  0  0  0  0  0  0
   15.0019   39.2184   11.1026 C   0  0  0  0  0  0  0  0  0  0  0  0
   14.3475   39.9375   12.1084 C   0  0  0  0  0  0  0  0  0  0  0  0
   12.9506   39.9624   12.1638 C   0  0  0  0  0  0  0  0  0  0  0  0
   12.2002   39.2653   11.2129 C   0  0  0  0  0  0  0  0  0  0  0  0
   12.8461   38.5413   10.2071 C   0  0  0  0  0  0  0  0  0  0  0  0
   14.2426   38.5163   10.1517 C   0  0  0  0  0  0  0  0  0  0  0  0
   15.0549   44.8732    4.7872 O   0  0  0  0  0  0  0  0  0  0  0  0
   16.4013   39.2212   11.0703 O   0  0  0  0  0  0  0  0  0  0  0  0
   13.4816   43.3111    5.5537 N   0  0  0  0  0  0  0  0  0  0  0  0
   13.6636   41.8977    7.5309 N   0  0  0  0  0  0  0  0  0  0  0  0
   14.4811   41.5629    8.5273 N   0  0  0  0  0  0  0  0  0  0  0  0
   16.9633   41.9837    9.6933 S   0  0  0  0  0  0  0  0  0  0  0  0
   15.7478   43.2673    7.1766 S   0  0  0  0  0  0  0  0  0  0  0  0
  1  2  1  0
  2  3  1  0
  2  4  1  0
  4  5  1  0
  5 19  1  0
  6 23  1  0
  7 22  1  0
  7 23  1  0
  8 22  1  0
  8  9  1  0
  9 10  1  0
 10 18  1  0
 11 18  1  0
 12 13  2  0
 14 15  2  0
 16 11  2  0
 19  6  1  0
 20 21  1  0
  5 17  2  0
  6 20  2  0
  7 21  2  0
 11 12  1  0
 13 14  1  0
 15 16  1  0
M  END
>  <rmsd>  (1) 
0.230861947

$$$$
