MolPort-002-760-240 20615767 CSSS00132999005 MCULE-3714084329 PubChem-19340451 ZINC000020615767 ZINC20615767
     RDKit          3D

 30 33  0  0  0  0  0  0  0  0999 V2000
   13.0087   39.3846   11.9711 C   0  0  0  0  0  0  0  0  0  0  0  0
   14.1588   39.4320   10.9871 C   0  0  0  0  0  0  0  0  0  0  0  0
   14.9029   40.2202    9.0662 C   0  0  0  0  0  0  0  0  0  0  0  0
   13.8458   41.5876    7.2785 C   0  0  0  0  0  0  0  0  0  0  0  0
   14.2537   42.6681    6.5300 C   0  0  0  0  0  0  0  0  0  0  0  0
   13.8942   44.4102    4.7069 C   0  0  0  0  0  0  0  0  0  0  0  0
   12.9723   44.9867    3.7127 C   0  0  0  0  0  0  0  0  0  0  0  0
   13.3969   46.0528    2.8821 C   0  0  0  0  0  0  0  0  0  0  0  0
   12.5329   46.6148    1.9259 C   0  0  0  0  0  0  0  0  0  0  0  0
   11.2464   46.0859    1.8267 C   0  0  0  0  0  0  0  0  0  0  0  0
   10.3034   47.5563    0.0224 C   0  0  0  0  0  0  0  0  0  0  0  0
    9.9741   48.8528    0.6816 C   0  0  0  0  0  0  0  0  0  0  0  0
    8.6385   49.2306    0.8608 C   0  0  0  0  0  0  0  0  0  0  0  0
    8.3314   50.4354    1.5003 C   0  0  0  0  0  0  0  0  0  0  0  0
    9.3592   51.2617    1.9653 C   0  0  0  0  0  0  0  0  0  0  0  0
   10.6941   50.8825    1.7924 C   0  0  0  0  0  0  0  0  0  0  0  0
   11.0013   49.6777    1.1529 C   0  0  0  0  0  0  0  0  0  0  0  0
    9.1969   45.6747    1.2775 C   0  0  0  0  0  0  0  0  0  0  0  0
    7.8735   45.7626    0.5932 C   0  0  0  0  0  0  0  0  0  0  0  0
    9.5202   44.7793    2.2917 C   0  0  0  0  0  0  0  0  0  0  0  0
    8.6353   43.7440    2.8973 C   0  0  0  0  0  0  0  0  0  0  0  0
   10.8285   45.0547    2.6307 C   0  0  0  0  0  0  0  0  0  0  0  0
   11.6627   44.4787    3.5856 C   0  0  0  0  0  0  0  0  0  0  0  0
   15.5342   43.0022    6.9321 C   0  0  0  0  0  0  0  0  0  0  0  0
   13.9115   40.4136   10.0290 O   0  0  0  0  0  0  0  0  0  0  0  0
   15.0552   44.8861    4.8356 O   0  0  0  0  0  0  0  0  0  0  0  0
   14.8722   41.3053    8.1007 N   0  0  0  0  0  0  0  0  0  0  0  0
   13.4670   43.3084    5.5198 N   0  0  0  0  0  0  0  0  0  0  0  0
   10.2587   46.4680    0.9935 N   0  0  0  0  0  0  0  0  0  0  0  0
   15.8833   42.1362    7.9035 N   0  0  0  0  0  0  0  0  0  0  0  0
  1  2  1  0
  2 25  1  0
  3 25  1  0
  3 27  1  0
  5 28  1  0
  5 24  1  0
  6  7  1  0
  8  9  2  0
 10 29  1  0
 11 29  1  0
 11 12  1  0
 13 14  2  0
 15 16  2  0
 17 12  2  0
 19 18  1  0
 20 22  1  0
 21 20  1  0
 22 10  2  0
 23  7  2  0
 27  4  1  0
 27 30  1  0
 28  6  1  0
 29 18  1  0
  4  5  2  0
  6 26  2  0
  7  8  1  0
  9 10  1  0
 12 13  1  0
 14 15  1  0
 16 17  1  0
 18 20  2  0
 22 23  1  0
 24 30  2  0
M  END
>  <rmsd>  (1) 
0.228540778

$$$$
