Molport-053-262-039
     RDKit          3D

 29 32  0  0  0  0  0  0  0  0999 V2000
    9.7413   45.6520    2.1704 C   0  0  0  0  0  0  0  0  0  0  0  0
   11.5681   44.8331    3.6592 C   0  0  0  0  0  0  0  0  0  0  0  0
   12.9156   45.0928    3.8149 C   0  0  0  0  0  0  0  0  0  0  0  0
   13.2001   46.0887    2.8967 C   0  0  0  0  0  0  0  0  0  0  0  0
   13.8650   44.4500    4.7406 C   0  0  0  0  0  0  0  0  0  0  0  0
   14.2643   42.7729    6.5983 C   0  0  0  0  0  0  0  0  0  0  0  0
   15.0093   43.6038    7.4527 C   0  0  0  0  0  0  0  0  0  0  0  0
   15.7753   43.0505    8.4811 C   0  0  0  0  0  0  0  0  0  0  0  0
   15.7913   41.6680    8.6791 C   0  0  0  0  0  0  0  0  0  0  0  0
   15.0197   40.8258    7.8623 C   0  0  0  0  0  0  0  0  0  0  0  0
   14.2622   41.3872    6.8207 C   0  0  0  0  0  0  0  0  0  0  0  0
   15.0211   39.3612    8.0726 C   0  0  0  0  0  0  0  0  0  0  0  0
   15.9144   37.5487    9.5774 C   0  0  0  0  0  0  0  0  0  0  0  0
   16.3180   37.3389   11.0735 C   0  0  0  0  0  0  0  0  0  0  0  0
   14.1699   38.2110   11.5166 C   0  0  1  0  0  0  0  0  0  0  0  0
   13.2243   38.8298   12.5287 C   0  0  0  0  0  0  0  0  0  0  0  0
   12.3997   39.8494   11.7081 C   0  0  2  0  0  0  0  0  0  0  0  0
   10.9279   39.4329   11.5505 C   0  0  0  0  0  0  0  0  0  0  0  0
   13.1025   39.9688   10.3373 C   0  0  0  0  0  0  0  0  0  0  0  0
   14.4738   39.3478   10.5667 C   0  0  2  0  0  0  0  0  0  0  0  0
   11.1000   45.6491    2.6965 N   0  0  0  0  0  0  0  0  0  0  0  0
   12.0781   46.4021    2.2187 N   0  0  0  0  0  0  0  0  0  0  0  0
   13.4666   43.3185    5.5338 N   0  0  0  0  0  0  0  0  0  0  0  0
   15.1412   38.7860    9.3881 N   0  0  0  0  0  0  0  0  0  0  0  0
   15.0490   44.8796    4.7981 O   0  0  0  0  0  0  0  0  0  0  0  0
   14.9138   38.5973    7.0741 O   0  0  0  0  0  0  0  0  0  0  0  0
   15.3578   37.6969   12.0762 O   0  0  0  0  0  0  0  0  0  0  0  0
   10.2588   39.5243   12.7813 O   0  0  0  0  0  0  0  0  0  0  0  0
   16.5058   43.8576    9.2899 F   0  0  0  0  0  0  0  0  0  0  0  0
  1 21  1  0
  3  4  1  0
  3  5  1  0
  5 23  1  0
  7  8  2  0
  8 29  1  0
  9 10  2  0
 10 12  1  0
 11  6  2  0
 12 24  1  0
 13 24  1  0
 13 14  1  0
 14 27  1  0
 15 27  1  0
 15 16  1  1
 16 17  1  0
 17 18  1  6
 17 19  1  0
 18 28  1  0
 20 19  1  6
 20 24  1  0
 20 15  1  0
 21  2  1  0
 21 22  1  0
 23  6  1  0
  2  3  2  0
  4 22  2  0
  5 25  2  0
  6  7  1  0
  8  9  1  0
 10 11  1  0
 12 26  2  0
M  END
>  <rmsd>  (1) 
0.246383205

$$$$
