MolPort-047-592-445 211610127 MCULE-9931270561 PubChem-76850009 ZINC000211610127
     RDKit          3D

 22 23  0  0  0  0  0  0  0  0999 V2000
   13.6839   41.6946   10.2673 B   0  0  0  0  0  0  0  0  0  0  0  0
   14.2854   40.7424   11.1858 O   0  0  0  0  0  0  0  0  0  0  0  0
   12.2328   41.7049   10.3463 O   0  0  0  0  0  0  0  0  0  0  0  0
   16.2041   42.4403    5.1591 O   0  0  0  0  0  0  0  0  0  0  0  0
   15.0428   44.8933    4.7848 O   0  0  0  0  0  0  0  0  0  0  0  0
   13.3054   39.7391   11.2311 C   0  0  0  0  0  0  0  0  0  0  0  0
   11.9615   40.3678   10.6732 C   0  0  0  0  0  0  0  0  0  0  0  0
   10.8243   40.3648   11.6908 C   0  0  0  0  0  0  0  0  0  0  0  0
   11.4248   39.6625    9.4257 C   0  0  0  0  0  0  0  0  0  0  0  0
   13.8027   38.5379   10.4242 C   0  0  0  0  0  0  0  0  0  0  0  0
   13.1973   39.2689   12.6789 C   0  0  0  0  0  0  0  0  0  0  0  0
   14.3634   41.9304    8.8761 C   0  0  0  0  0  0  0  0  0  0  0  0
   13.6477   42.5122    7.8290 C   0  0  0  0  0  0  0  0  0  0  0  0
   14.2578   42.7343    6.5929 C   0  0  0  0  0  0  0  0  0  0  0  0
   15.5913   42.3159    6.4083 C   0  0  0  0  0  0  0  0  0  0  0  0
   15.6932   41.5639    8.6663 C   0  0  0  0  0  0  0  0  0  0  0  0
   17.5410   42.0221    4.9281 C   0  0  0  0  0  0  0  0  0  0  0  0
   13.9582   44.2814    4.5937 C   0  0  0  0  0  0  0  0  0  0  0  0
   13.1496   44.5817    3.3823 C   0  0  0  0  0  0  0  0  0  0  0  0
   13.5121   43.6170    2.2710 C   0  0  0  0  0  0  0  0  0  0  0  0
   16.2702   41.7573    7.4510 N   0  0  0  0  0  0  0  0  0  0  0  0
   13.4809   43.3194    5.5401 N   0  0  0  0  0  0  0  0  0  0  0  0
  1  2  1  0
  1 12  1  0
  1  3  1  0
  6  2  1  0
  6  7  1  0
  6 10  1  0
  6 11  1  0
  7  3  1  0
  7  8  1  0
  7  9  1  0
 13 14  2  0
 14 22  1  0
 15 21  2  0
 15  4  1  0
 16 12  2  0
 17  4  1  0
 19 18  1  0
 19 20  1  0
 22 18  1  0
 12 13  1  0
 14 15  1  0
 16 21  1  0
 18  5  2  0
M  END
>  <rmsd>  (1) 
0.24013485

$$$$
