MolPort-020-292-455 MCULE-2646133063 PubChem-110264923
     RDKit          3D

 31 34  0  0  0  0  0  0  0  0999 V2000
   17.5676   43.0466    8.3541 C   0  0  0  0  0  0  0  0  0  0  0  0
   16.1963   42.5829    8.0191 C   0  0  0  0  0  0  0  0  0  0  0  0
   15.5037   43.1650    6.9562 C   0  0  0  0  0  0  0  0  0  0  0  0
   14.2113   42.7224    6.6464 C   0  0  0  0  0  0  0  0  0  0  0  0
   13.6402   41.7027    7.4116 C   0  0  0  0  0  0  0  0  0  0  0  0
   14.3615   41.1422    8.4689 C   0  0  0  0  0  0  0  0  0  0  0  0
   13.7453   40.0522    9.2815 C   0  0  2  0  0  0  0  0  0  0  0  0
   13.6123   40.4769   10.7374 C   0  0  0  0  0  0  0  0  0  0  0  0
   12.9990   39.3415   11.5400 C   0  0  0  0  0  0  0  0  0  0  0  0
   13.8573   38.0815   11.3935 C   0  0  0  0  0  0  0  0  0  0  0  0
   14.5770   38.7671    9.1792 C   0  0  0  0  0  0  0  0  0  0  0  0
   12.7473   37.2376    9.4303 C   0  0  0  0  0  0  0  0  0  0  0  0
   12.5705   35.7718    9.6303 C   0  0  0  0  0  0  0  0  0  0  0  0
   13.4745   33.4293    9.1128 C   0  0  0  0  0  0  0  0  0  0  0  0
   12.5101   32.7464    9.8704 C   0  0  0  0  0  0  0  0  0  0  0  0
   12.5274   31.3506    9.9440 C   0  0  0  0  0  0  0  0  0  0  0  0
   13.5092   30.6279    9.2613 C   0  0  0  0  0  0  0  0  0  0  0  0
   14.4730   31.3011    8.5056 C   0  0  0  0  0  0  0  0  0  0  0  0
   14.4545   32.6973    8.4328 C   0  0  0  0  0  0  0  0  0  0  0  0
   13.8528   44.3260    4.6693 C   0  0  0  0  0  0  0  0  0  0  0  0
   15.4491   45.9099    3.9140 C   0  0  0  0  0  0  0  0  0  0  0  0
   14.5659   46.3258    2.9168 C   0  0  0  0  0  0  0  0  0  0  0  0
   12.9716   44.7449    3.6700 C   0  0  0  0  0  0  0  0  0  0  0  0
   15.6171   41.5920    8.7478 N   0  0  0  0  0  0  0  0  0  0  0  0
   14.0250   37.6728    9.9898 N   0  0  0  0  0  0  0  0  0  0  0  0
   13.4899   34.8598    9.0147 N   0  0  0  0  0  0  0  0  0  0  0  0
   13.4510   43.2819    5.5662 N   0  0  0  0  0  0  0  0  0  0  0  0
   15.0738   44.9207    4.7669 N   0  0  0  0  0  0  0  0  0  0  0  0
   13.3464   45.7343    2.8166 N   0  0  0  0  0  0  0  0  0  0  0  0
   11.6096   35.3582   10.3310 O   0  0  0  0  0  0  0  0  0  0  0  0
   13.5270   29.2754    9.3318 F   0  0  0  0  0  0  0  0  0  0  0  0
  1  2  1  0
  2 24  2  0
  3  4  2  0
  4 27  1  0
  5  6  2  0
  7  6  1  6
  7  8  1  0
  8  9  1  0
  9 10  1  0
 10 25  1  0
 11 25  1  0
 11  7  1  0
 12 25  1  0
 12 13  1  0
 13 26  1  0
 15 16  2  0
 17 18  2  0
 17 31  1  0
 19 14  2  0
 21 28  2  0
 22 29  2  0
 23 20  2  0
 26 14  1  0
 27 20  1  0
  2  3  1  0
  4  5  1  0
  6 24  1  0
 13 30  2  0
 14 15  1  0
 16 17  1  0
 18 19  1  0
 20 28  1  0
 21 22  1  0
 23 29  1  0
M  END
>  <rmsd>  (1) 
0.245932475

$$$$
