MolPort-007-713-550 ChemDiv-E002-0461 MCULE-7672710718 PubChem-22509992 ZINC000006768189
     RDKit          3D

 28 30  0  0  0  0  0  0  0  0999 V2000
   15.1324   41.6024    8.5174 C   0  0  0  0  0  0  0  0  0  0  0  0
   16.9014   40.5605    9.9259 C   0  0  0  0  0  0  0  0  0  0  0  0
   17.5132   39.5045    9.0235 C   0  0  0  0  0  0  0  0  0  0  0  0
   14.4996   40.0251   10.3910 C   0  0  0  0  0  0  0  0  0  0  0  0
   14.8205   38.7982   10.9963 C   0  0  0  0  0  0  0  0  0  0  0  0
   13.8790   38.1215   11.7768 C   0  0  0  0  0  0  0  0  0  0  0  0
   12.6081   38.6680   11.9684 C   0  0  0  0  0  0  0  0  0  0  0  0
   12.2799   39.8928   11.3829 C   0  0  0  0  0  0  0  0  0  0  0  0
   13.2219   40.5690   10.6027 C   0  0  0  0  0  0  0  0  0  0  0  0
   14.2330   42.7733    6.6290 C   0  0  0  0  0  0  0  0  0  0  0  0
   13.9118   44.3483    4.6635 C   0  0  0  0  0  0  0  0  0  0  0  0
   13.2981   45.8039    2.6429 C   0  0  0  0  0  0  0  0  0  0  0  0
   14.5051   46.5148    2.6187 C   0  0  0  0  0  0  0  0  0  0  0  0
   14.7236   47.5009    1.6552 C   0  0  0  0  0  0  0  0  0  0  0  0
   13.7375   47.7921    0.6991 C   0  0  0  0  0  0  0  0  0  0  0  0
   12.5261   47.0841    0.7173 C   0  0  0  0  0  0  0  0  0  0  0  0
   10.2953   46.7097   -0.2892 C   0  0  0  0  0  0  0  0  0  0  0  0
   12.3165   46.0937    1.6914 C   0  0  0  0  0  0  0  0  0  0  0  0
   15.1358   49.5388   -0.3613 C   0  0  0  0  0  0  0  0  0  0  0  0
   15.4855   40.7329    9.6107 N   0  0  0  0  0  0  0  0  0  0  0  0
   15.9815   42.5227    8.0032 N   0  0  0  0  0  0  0  0  0  0  0  0
   15.4795   43.1780    6.9582 N   0  0  0  0  0  0  0  0  0  0  0  0
   13.4707   43.3097    5.5435 N   0  0  0  0  0  0  0  0  0  0  0  0
   13.0355   44.7838    3.6163 N   0  0  0  0  0  0  0  0  0  0  0  0
   15.0507   44.8688    4.8095 O   0  0  0  0  0  0  0  0  0  0  0  0
   11.5476   47.3794   -0.2382 O   0  0  0  0  0  0  0  0  0  0  0  0
   13.9392   48.7771   -0.2739 O   0  0  0  0  0  0  0  0  0  0  0  0
   13.6857   41.5488    7.6429 S   0  0  0  0  0  0  0  0  0  0  0  0
  1 20  1  0
  1 28  1  0
  2 20  1  0
  2  3  1  0
  5  6  2  0
  7  8  2  0
  9  4  2  0
 10 23  1  0
 10 28  1  0
 11 24  1  0
 13 14  2  0
 15 16  2  0
 15 27  1  0
 16 26  1  0
 17 26  1  0
 18 12  2  0
 19 27  1  0
 20  4  1  0
 21 22  1  0
 23 11  1  0
 24 12  1  0
  1 21  2  0
  4  5  1  0
  6  7  1  0
  8  9  1  0
 10 22  2  0
 11 25  2  0
 12 13  1  0
 14 15  1  0
 16 18  1  0
M  END
>  <rmsd>  (1) 
0.210411593

$$$$
