MolPort-007-595-935 MCULE-7294970288 PubChem-22423740
     RDKit          3D

 19 20  0  0  0  0  0  0  0  0999 V2000
   13.2813   39.3957   11.0919 C   0  0  0  0  0  0  0  0  0  0  0  0
   13.6313   40.6168   10.2683 C   0  0  2  0  0  0  0  0  0  0  0  0
   14.7276   40.2588    9.2788 C   0  0  0  0  0  0  0  0  0  0  0  0
   14.9302   41.3560    8.2892 C   0  0  0  0  0  0  0  0  0  0  0  0
   14.3413   42.7219    6.6067 C   0  0  0  0  0  0  0  0  0  0  0  0
   13.8726   44.3669    4.7074 C   0  0  0  0  0  0  0  0  0  0  0  0
   12.8998   44.8542    3.7135 C   0  0  0  0  0  0  0  0  0  0  0  0
   13.2400   45.8970    2.8385 C   0  0  0  0  0  0  0  0  0  0  0  0
   12.3165   46.3587    1.8960 C   0  0  0  0  0  0  0  0  0  0  0  0
   11.0463   45.7810    1.8215 C   0  0  0  0  0  0  0  0  0  0  0  0
   10.6992   44.7421    2.6889 C   0  0  0  0  0  0  0  0  0  0  0  0
   11.6225   44.2804    3.6314 C   0  0  0  0  0  0  0  0  0  0  0  0
   16.1140   42.0261    8.2175 N   0  0  0  0  0  0  0  0  0  0  0  0
   13.9416   41.7184    7.4121 N   0  0  0  0  0  0  0  0  0  0  0  0
   13.5090   43.3000    5.5946 N   0  0  0  0  0  0  0  0  0  0  0  0
   15.9059   43.1329    6.9958 S   0  0  0  0  0  0  0  0  0  0  0  0
   15.0176   44.8911    4.7711 O   0  0  0  0  0  0  0  0  0  0  0  0
   14.0697   41.6343   11.1164 O   0  0  0  0  0  0  0  0  0  0  0  0
    9.8903   46.3590    0.6416 Cl  0  0  0  0  0  0  0  0  0  0  0  0
  2  1  1  1
  2  3  1  0
  2 18  1  0
  3  4  1  0
  4 14  1  0
  5 16  1  0
  5 15  1  0
  6  7  1  0
  8  9  2  0
 10 11  2  0
 10 19  1  0
 12  7  2  0
 13 16  1  0
 15  6  1  0
  4 13  2  0
  5 14  2  0
  6 17  2  0
  7  8  1  0
  9 10  1  0
 11 12  1  0
M  END
>  <rmsd>  (1) 
0.238582894

$$$$
