MolPort-028-722-939 44203134 CSC047754199 CSSS00047754199 MCULE-8381017728 PubChem-72845750 ZINC000044203134 ZINC44203134
     RDKit          3D

 28 30  0  0  0  0  0  0  0  0999 V2000
   14.6981   41.4173   -3.3179 C   0  0  0  0  0  0  0  0  0  0  0  0
   16.0113   43.5172   -3.1171 C   0  0  0  0  0  0  0  0  0  0  0  0
   14.2893   42.9249   -1.3600 C   0  0  0  0  0  0  0  0  0  0  0  0
   14.8057   43.8489   -0.3223 C   0  0  0  0  0  0  0  0  0  0  0  0
   13.9237   44.3968    0.6219 C   0  0  0  0  0  0  0  0  0  0  0  0
   14.3945   45.2500    1.6258 C   0  0  0  0  0  0  0  0  0  0  0  0
   13.4490   45.8204    2.6282 C   0  0  0  0  0  0  0  0  0  0  0  0
   13.9198   44.3609    4.6471 C   0  0  0  0  0  0  0  0  0  0  0  0
   14.1936   42.7410    6.6156 C   0  0  0  0  0  0  0  0  0  0  0  0
   13.5816   41.7348    7.3710 C   0  0  0  0  0  0  0  0  0  0  0  0
   14.2509   41.1393    8.4452 C   0  0  0  0  0  0  0  0  0  0  0  0
   14.1803   39.4999   10.3090 C   0  0  0  0  0  0  0  0  0  0  0  0
   14.0596   40.3986   11.5311 C   0  0  0  0  0  0  0  0  0  0  0  0
   13.0753   39.7279   12.4645 C   0  0  0  0  0  0  0  0  0  0  0  0
   13.1188   38.2633   12.1034 C   0  0  0  0  0  0  0  0  0  0  0  0
   13.4085   38.2309   10.6199 C   0  0  0  0  0  0  0  0  0  0  0  0
   15.5525   41.5579    8.7636 C   0  0  0  0  0  0  0  0  0  0  0  0
   16.1716   42.5611    8.0145 C   0  0  0  0  0  0  0  0  0  0  0  0
   15.4946   43.1505    6.9442 C   0  0  0  0  0  0  0  0  0  0  0  0
   15.7571   45.5519    1.7004 C   0  0  0  0  0  0  0  0  0  0  0  0
   16.6458   45.0036    0.7729 C   0  0  0  0  0  0  0  0  0  0  0  0
   16.1722   44.1537   -0.2306 C   0  0  0  0  0  0  0  0  0  0  0  0
   15.0419   42.5979   -2.5429 N   0  0  0  0  0  0  0  0  0  0  0  0
   13.0588   44.8039    3.5964 N   0  0  0  0  0  0  0  0  0  0  0  0
   13.4676   43.3208    5.5230 N   0  0  0  0  0  0  0  0  0  0  0  0
   13.1538   42.4002   -1.1918 O   0  0  0  0  0  0  0  0  0  0  0  0
   15.0557   44.8870    4.7981 O   0  0  0  0  0  0  0  0  0  0  0  0
   13.6036   40.1348    9.1727 O   0  0  0  0  0  0  0  0  0  0  0  0
  1 23  1  0
  2 23  1  0
  3  4  1  0
  5  6  2  0
  7  6  1  0
  7 24  1  0
  8 25  1  0
 10 11  2  0
 11 28  1  0
 12 28  1  0
 12 13  1  0
 13 14  1  0
 14 15  1  0
 15 16  1  0
 16 12  1  0
 17 18  2  0
 19  9  2  0
 20 21  2  0
 22  4  2  0
 23  3  1  0
 24  8  1  0
 25  9  1  0
  3 26  2  0
  4  5  1  0
  6 20  1  0
  8 27  2  0
  9 10  1  0
 11 17  1  0
 18 19  1  0
 21 22  1  0
M  END
>  <rmsd>  (1) 
0.247296095

$$$$
