MolPort-007-714-565 ChemDiv-E002-1916 MCULE-8688551559 PubChem-22510860 ZINC000006780263
     RDKit          3D

 26 28  0  0  0  0  0  0  0  0999 V2000
   15.1299   41.6176    8.5299 C   0  0  0  0  0  0  0  0  0  0  0  0
   16.8896   40.6366    9.9934 C   0  0  0  0  0  0  0  0  0  0  0  0
   17.2312   41.6398   11.0794 C   0  0  0  0  0  0  0  0  0  0  0  0
   14.4957   40.0317   10.3954 C   0  0  0  0  0  0  0  0  0  0  0  0
   13.2141   40.5651   10.6092 C   0  0  0  0  0  0  0  0  0  0  0  0
   12.2743   39.8722   11.3775 C   0  0  0  0  0  0  0  0  0  0  0  0
   12.6090   38.6419   11.9478 C   0  0  0  0  0  0  0  0  0  0  0  0
   13.8842   38.1060   11.7528 C   0  0  0  0  0  0  0  0  0  0  0  0
   14.8236   38.7991   10.9841 C   0  0  0  0  0  0  0  0  0  0  0  0
   14.2326   42.7795    6.6344 C   0  0  0  0  0  0  0  0  0  0  0  0
   13.9132   44.3461    4.6617 C   0  0  0  0  0  0  0  0  0  0  0  0
   13.3017   45.7926    2.6341 C   0  0  0  0  0  0  0  0  0  0  0  0
   12.3207   46.0776    1.6786 C   0  0  0  0  0  0  0  0  0  0  0  0
   12.5402   47.0614    0.7102 C   0  0  0  0  0  0  0  0  0  0  0  0
   13.7451   47.7695    0.6897 C   0  0  0  0  0  0  0  0  0  0  0  0
   14.7338   47.4905    1.6435 C   0  0  0  0  0  0  0  0  0  0  0  0
   14.5100   46.5058    2.6101 C   0  0  0  0  0  0  0  0  0  0  0  0
   13.9623   48.8138   -0.3486 C   0  0  0  0  0  0  0  0  0  0  0  0
   15.4807   40.7538    9.6281 N   0  0  0  0  0  0  0  0  0  0  0  0
   15.9789   42.5364    8.0128 N   0  0  0  0  0  0  0  0  0  0  0  0
   15.4782   43.1868    6.9640 N   0  0  0  0  0  0  0  0  0  0  0  0
   13.4717   43.3106    5.5452 N   0  0  0  0  0  0  0  0  0  0  0  0
   13.0383   44.7761    3.6111 N   0  0  0  0  0  0  0  0  0  0  0  0
   15.0512   44.8686    4.8079 O   0  0  0  0  0  0  0  0  0  0  0  0
   15.9095   48.1669    1.6398 F   0  0  0  0  0  0  0  0  0  0  0  0
   13.6848   41.5590    7.6526 S   0  0  0  0  0  0  0  0  0  0  0  0
  1 19  1  0
  1 26  1  0
  2 19  1  0
  2  3  1  0
  5  6  2  0
  7  8  2  0
  9  4  2  0
 10 22  1  0
 10 26  1  0
 11 23  1  0
 13 14  2  0
 15 16  2  0
 16 25  1  0
 17 12  2  0
 18 15  1  0
 19  4  1  0
 20 21  1  0
 22 11  1  0
 23 12  1  0
  1 20  2  0
  4  5  1  0
  6  7  1  0
  8  9  1  0
 10 21  2  0
 11 24  2  0
 12 13  1  0
 14 15  1  0
 16 17  1  0
M  END
>  <rmsd>  (1) 
0.212172821

$$$$
