MolPort-047-073-940 MCULE-3027997471 PubChem-132766335
     RDKit          3D

 29 32  0  0  0  0  0  0  0  0999 V2000
   15.2491   45.8794    3.8233 C   0  0  0  0  0  0  0  0  0  0  0  0
   14.1589   46.0563    2.9652 C   0  0  0  0  0  0  0  0  0  0  0  0
   13.8849   44.3209    4.6886 C   0  0  0  0  0  0  0  0  0  0  0  0
   14.1865   42.7156    6.6380 C   0  0  0  0  0  0  0  0  0  0  0  0
   13.6205   41.6978    7.4050 C   0  0  0  0  0  0  0  0  0  0  0  0
   14.3634   41.1602    8.4558 C   0  0  0  0  0  0  0  0  0  0  0  0
   13.7762   40.0691    9.2885 C   0  0  2  0  0  0  0  0  0  0  0  0
   13.6566   40.5075   10.7416 C   0  0  0  0  0  0  0  0  0  0  0  0
   13.0722   39.3714   11.5644 C   0  0  0  0  0  0  0  0  0  0  0  0
   13.9485   38.1236   11.4196 C   0  0  0  0  0  0  0  0  0  0  0  0
   12.8272   37.2392    9.4817 C   0  0  0  0  0  0  0  0  0  0  0  0
   12.7118   35.7880    9.6500 C   0  0  0  0  0  0  0  0  0  0  0  0
   14.6269   38.7964    9.1882 C   0  0  0  0  0  0  0  0  0  0  0  0
   16.1517   42.6247    7.9550 C   0  0  0  0  0  0  0  0  0  0  0  0
   17.5188   43.1265    8.2507 C   0  0  0  0  0  0  0  0  0  0  0  0
   16.4911   46.6805    3.7565 C   0  0  0  0  0  0  0  0  0  0  0  0
   17.8983   48.4976    2.7056 C   0  0  0  0  0  0  0  0  0  0  0  0
   17.8584   49.2500    1.3903 C   0  0  0  0  0  0  0  0  0  0  0  0
   16.9323   48.4629    0.4761 C   0  0  0  0  0  0  0  0  0  0  0  0
   16.1254   47.5451    1.3736 C   0  0  0  0  0  0  0  0  0  0  0  0
   12.9754   44.9527    3.4359 S   0  0  0  0  0  0  0  0  0  0  0  0
   13.4344   43.2761    5.5567 N   0  0  0  0  0  0  0  0  0  0  0  0
   14.1041   37.7020   10.0183 N   0  0  0  0  0  0  0  0  0  0  0  0
   12.6203   34.6422    9.7829 N   0  0  0  0  0  0  0  0  0  0  0  0
   15.6141   41.6327    8.7112 N   0  0  0  0  0  0  0  0  0  0  0  0
   15.4402   43.1585    6.9283 N   0  0  0  0  0  0  0  0  0  0  0  0
   15.0879   44.9219    4.7789 N   0  0  0  0  0  0  0  0  0  0  0  0
   16.7870   47.5684    2.6635 N   0  0  0  0  0  0  0  0  0  0  0  0
   17.3172   46.5801    4.7040 O   0  0  0  0  0  0  0  0  0  0  0  0
  1 16  1  0
  1 27  1  0
  2 21  1  0
  3 21  1  0
  3 22  1  0
  4 26  2  0
  5  6  2  0
  7  6  1  6
  7  8  1  0
  8  9  1  0
  9 10  1  0
 10 23  1  0
 11 23  1  0
 11 12  1  0
 13 23  1  0
 13  7  1  0
 14 25  2  0
 15 14  1  0
 16 28  1  0
 17 28  1  0
 17 18  1  0
 18 19  1  0
 19 20  1  0
 20 28  1  0
 22  4  1  0
  1  2  2  0
  3 27  2  0
  4  5  1  0
  6 25  1  0
 14 26  1  0
 16 29  2  0
 12 24  3  0
M  END
>  <rmsd>  (1) 
0.249018833

$$$$
