MolPort-039-343-150 CSSS00132746343 MCULE-7163240322 PubChem-43819310
     RDKit          3D

 32 36  0  0  0  0  0  0  0  0999 V2000
   13.7829   41.6759    7.4096 C   0  0  0  0  0  0  0  0  0  0  0  0
   14.1796   42.7636    6.6281 C   0  0  0  0  0  0  0  0  0  0  0  0
   13.9221   44.3634    4.6540 C   0  0  0  0  0  0  0  0  0  0  0  0
   13.3971   45.7215    2.5365 C   0  0  0  0  0  0  0  0  0  0  0  0
   14.6853   46.2673    2.4144 C   0  0  0  0  0  0  0  0  0  0  0  0
   14.9982   47.1298    1.3596 C   0  0  0  0  0  0  0  0  0  0  0  0
   14.0225   47.4550    0.4138 C   0  0  0  0  0  0  0  0  0  0  0  0
   12.7356   46.9235    0.5281 C   0  0  0  0  0  0  0  0  0  0  0  0
   12.4192   46.0593    1.5831 C   0  0  0  0  0  0  0  0  0  0  0  0
   12.5143   40.9410    7.2235 C   0  0  0  0  0  0  0  0  0  0  0  0
   10.9850   39.0764    7.9087 C   0  0  0  0  0  0  0  0  0  0  0  0
   10.9243   38.0352    9.0348 C   0  0  1  0  0  0  0  0  0  0  0  0
   12.0363   37.0043    8.8861 C   0  0  0  0  0  0  0  0  0  0  0  0
   13.3740   37.7295    8.9429 C   0  0  1  0  0  0  0  0  0  0  0  0
   13.4665   38.6821    7.7484 C   0  0  0  0  0  0  0  0  0  0  0  0
   13.4896   38.5103   10.2233 C   0  0  0  0  0  0  0  0  0  0  0  0
   12.5235   39.8037   11.9756 C   0  0  0  0  0  0  0  0  0  0  0  0
   13.7930   40.0923   12.4804 C   0  0  0  0  0  0  0  0  0  0  0  0
   14.9197   39.5830   11.8417 C   0  0  0  0  0  0  0  0  0  0  0  0
   14.7703   38.7920   10.7069 C   0  0  0  0  0  0  0  0  0  0  0  0
   11.0066   38.6952   10.4159 C   0  0  0  0  0  0  0  0  0  0  0  0
   14.6824   41.3347    8.3851 N   0  0  0  0  0  0  0  0  0  0  0  0
   15.7810   42.0864    8.4257 N   0  0  0  0  0  0  0  0  0  0  0  0
   13.4626   43.3184    5.5178 N   0  0  0  0  0  0  0  0  0  0  0  0
   13.0644   44.8055    3.5951 N   0  0  0  0  0  0  0  0  0  0  0  0
   12.3397   39.6164    7.7529 N   0  0  0  0  0  0  0  0  0  0  0  0
   12.3778   39.0262   10.8546 N   0  0  0  0  0  0  0  0  0  0  0  0
   15.6701   43.2258    7.2222 S   0  0  0  0  0  0  0  0  0  0  0  0
   15.0621   44.8777    4.8159 O   0  0  0  0  0  0  0  0  0  0  0  0
   11.5654   41.4940    6.6016 O   0  0  0  0  0  0  0  0  0  0  0  0
   11.5137   40.2668   12.5757 O   0  0  0  0  0  0  0  0  0  0  0  0
   10.7912   45.4076    1.6843 Cl  0  0  0  0  0  0  0  0  0  0  0  0
  1 22  1  0
  1 10  1  0
  2 28  1  0
  2 24  1  0
  3 25  1  0
  5  6  2  0
  7  8  2  0
  9 32  1  0
  9  4  2  0
 10 26  1  0
 11 26  1  0
 12 11  1  6
 12 13  1  0
 13 14  1  0
 14 15  1  6
 14 16  1  0
 15 26  1  0
 16 27  1  0
 17 18  1  0
 19 20  1  0
 21 27  1  0
 21 12  1  0
 23 28  1  0
 24  3  1  0
 25  4  1  0
 27 17  1  0
  2  1  2  0
  3 29  2  0
  4  5  1  0
  6  7  1  0
  8  9  1  0
 10 30  2  0
 17 31  2  0
 18 19  2  0
 20 16  2  0
 22 23  2  0
M  END
>  <rmsd>  (1) 
0.228632405

$$$$
