MolPort-016-717-760 MCULE-1350615302 PubChem-46974622
     RDKit          3D

 29 32  0  0  0  0  0  0  0  0999 V2000
   13.0472   39.5201   11.8454 C   0  0  0  0  0  0  0  0  0  0  0  0
   13.2709   38.8242   10.5154 C   0  0  0  0  0  0  0  0  0  0  0  0
   14.7399   40.4698    9.3692 C   0  0  0  0  0  0  0  0  0  0  0  0
   14.8912   41.4425    8.3761 C   0  0  0  0  0  0  0  0  0  0  0  0
   16.0895   42.1282    8.2411 C   0  0  0  0  0  0  0  0  0  0  0  0
   17.1819   41.8876    9.0691 C   0  0  0  0  0  0  0  0  0  0  0  0
   17.0454   40.9131   10.0688 C   0  0  0  0  0  0  0  0  0  0  0  0
   15.8358   40.2088   10.2187 C   0  0  0  0  0  0  0  0  0  0  0  0
   14.3606   42.7628    6.6512 C   0  0  0  0  0  0  0  0  0  0  0  0
   13.8811   44.3351    4.6917 C   0  0  0  0  0  0  0  0  0  0  0  0
   12.9028   44.7462    3.6451 C   0  0  0  0  0  0  0  0  0  0  0  0
   12.7921   43.6857    2.5576 C   0  0  2  0  0  0  0  0  0  0  0  0
   13.9220   43.7955    1.5764 C   0  0  0  0  0  0  0  0  0  0  0  0
   12.0584   44.1912    0.4102 C   0  0  0  0  0  0  0  0  0  0  0  0
   14.2547   44.2934   -0.9327 C   0  0  0  0  0  0  0  0  0  0  0  0
   13.6345   44.5836   -2.1581 C   0  0  0  0  0  0  0  0  0  0  0  0
   14.3954   44.7635   -3.3167 C   0  0  0  0  0  0  0  0  0  0  0  0
   15.7869   44.6551   -3.2618 C   0  0  0  0  0  0  0  0  0  0  0  0
   16.4164   44.3670   -2.0487 C   0  0  0  0  0  0  0  0  0  0  0  0
   15.6538   44.1875   -0.8912 C   0  0  0  0  0  0  0  0  0  0  0  0
   13.5264   39.7816    9.4931 O   0  0  0  0  0  0  0  0  0  0  0  0
   15.0069   44.8968    4.7373 O   0  0  0  0  0  0  0  0  0  0  0  0
   15.1315   43.5980    1.8693 O   0  0  0  0  0  0  0  0  0  0  0  0
   11.2678   44.4521   -0.5345 O   0  0  0  0  0  0  0  0  0  0  0  0
   15.9639   43.2200    6.9746 S   0  0  0  0  0  0  0  0  0  0  0  0
   13.9234   41.7932    7.4901 N   0  0  0  0  0  0  0  0  0  0  0  0
   13.5271   43.3014    5.6180 N   0  0  0  0  0  0  0  0  0  0  0  0
   13.4693   44.1085    0.2619 N   0  0  0  0  0  0  0  0  0  0  0  0
   11.6120   43.9532    1.7392 N   0  0  0  0  0  0  0  0  0  0  0  0
  1  2  1  0
  2 21  1  0
  3 21  1  0
  4  5  2  0
  4 26  1  0
  5 25  1  0
  6  7  2  0
  8  3  2  0
  9 25  1  0
  9 27  1  0
 11 10  1  0
 12 11  1  1
 12 13  1  0
 12 29  1  0
 13 28  1  0
 14 29  1  0
 16 17  2  0
 18 19  2  0
 20 15  2  0
 27 10  1  0
 28 14  1  0
 28 15  1  0
  3  4  1  0
  5  6  1  0
  7  8  1  0
  9 26  2  0
 10 22  2  0
 13 23  2  0
 14 24  2  0
 15 16  1  0
 17 18  1  0
 19 20  1  0
M  END
>  <rmsd>  (1) 
0.240261033

$$$$
