MolPort-002-455-713 1423179 CSC026731286 CSSS00026731286 MCULE-9058263817 PubChem-1504069 Z57169730 ZINC000001423179 ZINC01423179
     RDKit          3D

 26 27  0  0  0  0  0  0  0  0999 V2000
   12.7611   39.1845   11.7781 C   0  0  0  0  0  0  0  0  0  0  0  0
   13.9371   38.9109   10.8640 C   0  0  0  0  0  0  0  0  0  0  0  0
   15.0014   40.7102    9.5615 C   0  0  0  0  0  0  0  0  0  0  0  0
   14.9428   41.6662    8.4368 C   0  0  0  0  0  0  0  0  0  0  0  0
   15.9103   42.5912    8.0620 C   0  0  0  0  0  0  0  0  0  0  0  0
   17.2243   42.8077    8.7302 C   0  0  0  0  0  0  0  0  0  0  0  0
   14.2965   42.8284    6.6720 C   0  0  0  0  0  0  0  0  0  0  0  0
   13.8952   44.3426    4.6730 C   0  0  0  0  0  0  0  0  0  0  0  0
   13.1273   45.8916    2.8047 C   0  0  0  0  0  0  0  0  0  0  0  0
   12.8128   45.7820    1.4461 C   0  0  0  0  0  0  0  0  0  0  0  0
   12.9092   46.8912    0.5927 C   0  0  0  0  0  0  0  0  0  0  0  0
   12.1956   45.5836   -1.3819 C   0  0  0  0  0  0  0  0  0  0  0  0
   13.3124   48.1221    1.1129 C   0  0  0  0  0  0  0  0  0  0  0  0
   13.6005   48.2512    2.4725 C   0  0  0  0  0  0  0  0  0  0  0  0
   13.4987   47.1464    3.3342 C   0  0  0  0  0  0  0  0  0  0  0  0
   14.0999   48.5245    5.3042 C   0  0  0  0  0  0  0  0  0  0  0  0
   13.9065   41.8272    7.5350 C   0  0  0  0  0  0  0  0  0  0  0  0
   12.6162   41.0809    7.4877 C   0  0  0  0  0  0  0  0  0  0  0  0
   13.9317   39.8428    9.7930 O   0  0  0  0  0  0  0  0  0  0  0  0
   16.0153   40.6780   10.3113 O   0  0  0  0  0  0  0  0  0  0  0  0
   15.0332   44.8785    4.7630 O   0  0  0  0  0  0  0  0  0  0  0  0
   12.6123   46.7964   -0.7696 O   0  0  0  0  0  0  0  0  0  0  0  0
   13.7290   47.2890    4.7075 O   0  0  0  0  0  0  0  0  0  0  0  0
   15.5192   43.3027    6.9852 N   0  0  0  0  0  0  0  0  0  0  0  0
   13.5022   43.3097    5.5816 N   0  0  0  0  0  0  0  0  0  0  0  0
   12.9972   44.7241    3.6263 N   0  0  0  0  0  0  0  0  0  0  0  0
  1  2  1  0
  2 19  1  0
  3 19  1  0
  3  4  1  0
  5 24  1  0
  6  5  1  0
  7 25  1  0
  8 26  1  0
 10 11  2  0
 11 22  1  0
 12 22  1  0
 13 14  2  0
 15 23  1  0
 15  9  2  0
 16 23  1  0
 17  4  1  0
 18 17  1  0
 24  7  1  0
 25  8  1  0
 26  9  1  0
  3 20  2  0
  4  5  2  0
  7 17  2  0
  8 21  2  0
  9 10  1  0
 11 13  1  0
 14 15  1  0
M  END
>  <rmsd>  (1) 
0.217144489

$$$$
