Molport-020-292-983 CHEMBL3504835 CHEMBL3550852 MCULE-5536403963 MCULE-9979805251 PubChem-110265450 PubChem-118747446
     RDKit          3D

 22 24  0  0  0  0  0  0  0  0999 V2000
   12.6408   37.2843    9.3189 C   0  0  0  0  0  0  0  0  0  0  0  0
   13.7210   38.0640   11.3146 C   0  0  0  0  0  0  0  0  0  0  0  0
   12.9016   39.3499   11.4615 C   0  0  0  0  0  0  0  0  0  0  0  0
   13.5731   40.4781   10.6966 C   0  0  0  0  0  0  0  0  0  0  0  0
   13.7305   40.0744    9.2363 C   0  0  2  0  0  0  0  0  0  0  0  0
   14.5193   38.7621    9.1285 C   0  0  0  0  0  0  0  0  0  0  0  0
   14.3868   41.1611    8.4457 C   0  0  0  0  0  0  0  0  0  0  0  0
   15.6846   41.5948    8.7484 C   0  0  0  0  0  0  0  0  0  0  0  0
   16.2600   42.6105    7.9859 C   0  0  0  0  0  0  0  0  0  0  0  0
   15.5416   43.1809    6.9353 C   0  0  0  0  0  0  0  0  0  0  0  0
   14.2454   42.7275    6.6549 C   0  0  0  0  0  0  0  0  0  0  0  0
   13.8413   44.3222    4.6763 C   0  0  0  0  0  0  0  0  0  0  0  0
   13.2758   45.7004    2.8372 C   0  0  0  0  0  0  0  0  0  0  0  0
   12.2937   46.1129    1.8011 C   0  0  0  0  0  0  0  0  0  0  0  0
   14.5212   46.3223    2.9034 C   0  0  0  0  0  0  0  0  0  0  0  0
   15.4146   45.9075    3.8890 C   0  0  0  0  0  0  0  0  0  0  0  0
   16.7531   46.5440    3.9950 C   0  0  0  0  0  0  0  0  0  0  0  0
   13.9153   37.6744    9.9106 N   0  0  0  0  0  0  0  0  0  0  0  0
   13.4637   43.2800    5.5861 N   0  0  0  0  0  0  0  0  0  0  0  0
   12.9598   44.7170    3.7197 N   0  0  0  0  0  0  0  0  0  0  0  0
   15.0616   44.9207    4.7531 N   0  0  0  0  0  0  0  0  0  0  0  0
   13.7078   41.7347    7.4153 N   0  0  0  0  0  0  0  0  0  0  0  0
  1 18  1  0
  2 18  1  0
  2  3  1  0
  3  4  1  0
  4  5  1  0
  5  6  1  0
  5  7  1  6
  6 18  1  0
  7 22  2  0
  8  9  2  0
 10 11  2  0
 11 19  1  0
 12 21  2  0
 13 20  2  0
 14 13  1  0
 15 16  2  0
 17 16  1  0
 19 12  1  0
  7  8  1  0
  9 10  1  0
 11 22  1  0
 12 20  1  0
 13 15  1  0
 16 21  1  0
M  END
>  <rmsd>  (1) 
0.248006493

$$$$
