MolPort-028-889-943 ChemDiv-V030-3041 MCULE-3455100685 PubChem-83287203 ZINC000096276482 ZINC96276482
     RDKit          3D

 31 34  0  0  0  0  0  0  0  0999 V2000
   22.8597   39.8150    8.6883 C   0  0  0  0  0  0  0  0  0  0  0  0
   22.0120   41.0667   10.2942 C   0  0  0  0  0  0  0  0  0  0  0  0
   21.3009   42.3583   10.6644 C   0  0  0  0  0  0  0  0  0  0  0  0
   18.9152   41.6190   10.2124 C   0  0  0  0  0  0  0  0  0  0  0  0
   17.6841   41.7693    9.4126 C   0  0  0  0  0  0  0  0  0  0  0  0
   17.5594   42.6718    8.3518 C   0  0  0  0  0  0  0  0  0  0  0  0
   16.2699   42.4747    7.9000 C   0  0  0  0  0  0  0  0  0  0  0  0
   15.5900   43.1043    6.8615 C   0  0  0  0  0  0  0  0  0  0  0  0
   14.2567   42.7167    6.6077 C   0  0  0  0  0  0  0  0  0  0  0  0
   13.9064   44.3531    4.6636 C   0  0  0  0  0  0  0  0  0  0  0  0
   12.9671   44.8433    3.6101 C   0  0  0  0  0  0  0  0  0  0  0  0
   12.5496   43.6924    2.7125 C   0  0  0  0  0  0  0  0  0  0  0  0
   13.5947   44.6759    2.2379 C   0  0  0  0  0  0  0  0  0  0  0  0
   13.6561   41.7144    7.4012 C   0  0  0  0  0  0  0  0  0  0  0  0
   14.3661   41.0951    8.4443 C   0  0  0  0  0  0  0  0  0  0  0  0
   15.6808   41.5050    8.6644 C   0  0  0  0  0  0  0  0  0  0  0  0
   16.2572   40.0667   10.6298 C   0  0  0  0  0  0  0  0  0  0  0  0
   15.5166   40.6914   11.7727 C   0  0  0  0  0  0  0  0  0  0  0  0
   14.1762   40.3567   12.0471 C   0  0  0  0  0  0  0  0  0  0  0  0
   13.4383   39.3532   11.2272 C   0  0  0  0  0  0  0  0  0  0  0  0
   13.5129   40.9667   13.1170 C   0  0  0  0  0  0  0  0  0  0  0  0
   14.1742   41.9041   13.9146 C   0  0  0  0  0  0  0  0  0  0  0  0
   15.5045   42.2345   13.6467 C   0  0  0  0  0  0  0  0  0  0  0  0
   16.2089   43.2304   14.4950 C   0  0  0  0  0  0  0  0  0  0  0  0
   16.1729   41.6294   12.5799 C   0  0  0  0  0  0  0  0  0  0  0  0
   22.3952   41.1023    8.9533 O   0  0  0  0  0  0  0  0  0  0  0  0
   18.9852   40.7473   11.1202 O   0  0  0  0  0  0  0  0  0  0  0  0
   15.0392   44.8928    4.7847 O   0  0  0  0  0  0  0  0  0  0  0  0
   20.0355   42.4701    9.9508 N   0  0  0  0  0  0  0  0  0  0  0  0
   13.4848   43.3110    5.5553 N   0  0  0  0  0  0  0  0  0  0  0  0
   16.5385   41.0602    9.5964 N   0  0  0  0  0  0  0  0  0  0  0  0
  1 26  1  0
  2 26  1  0
  2  3  1  0
  3 29  1  0
  4  5  1  0
  6  7  1  0
  8  9  2  0
  9 30  1  0
 11 10  1  0
 11 12  1  0
 12 13  1  0
 13 11  1  0
 14 15  2  0
 16 31  1  0
 16  7  2  0
 17 31  1  0
 17 18  1  0
 19 21  2  0
 20 19  1  0
 22 23  2  0
 24 23  1  0
 25 18  2  0
 29  4  1  0
 30 10  1  0
 31  5  1  0
  4 27  2  0
  5  6  2  0
  7  8  1  0
  9 14  1  0
 10 28  2  0
 15 16  1  0
 18 19  1  0
 21 22  1  0
 23 25  1  0
M  END
>  <rmsd>  (1) 
0.23382543

$$$$
