MolPort-010-777-188 MolPort-047-912-736 ChemDiv-G889-0544 MCULE-1618328952 MCULE-8804797512 PubChem-163337550 PubChem-50807320 ZINC000046053479
     RDKit          3D

 26 27  0  0  0  0  0  0  0  0999 V2000
   12.9485   39.7060   11.5398 C   0  0  0  0  0  0  0  0  0  0  0  0
   14.1666   38.9789   11.0025 C   0  0  0  0  0  0  0  0  0  0  0  0
   15.4318   39.5000   11.6653 C   0  0  0  0  0  0  0  0  0  0  0  0
   15.8080   40.8830   11.1436 C   0  0  0  0  0  0  0  0  0  0  0  0
   17.5361   40.0881    9.4872 C   0  0  0  0  0  0  0  0  0  0  0  0
   17.2481   38.8801    8.6147 C   0  0  0  0  0  0  0  0  0  0  0  0
   15.6063   41.5177    8.7343 C   0  0  0  0  0  0  0  0  0  0  0  0
   16.2060   42.5800    8.0104 C   0  0  0  0  0  0  0  0  0  0  0  0
   15.4975   43.1626    6.9502 C   0  0  0  0  0  0  0  0  0  0  0  0
   14.2100   42.7295    6.6092 C   0  0  0  0  0  0  0  0  0  0  0  0
   13.9048   44.3747    4.6610 C   0  0  0  0  0  0  0  0  0  0  0  0
   13.0147   44.8791    3.5892 C   0  0  0  0  0  0  0  0  0  0  0  0
   11.7199   44.3569    3.3735 C   0  0  0  0  0  0  0  0  0  0  0  0
   10.9193   44.8686    2.3472 C   0  0  0  0  0  0  0  0  0  0  0  0
   11.3907   45.8968    1.5292 C   0  0  0  0  0  0  0  0  0  0  0  0
   12.6680   46.4195    1.7340 C   0  0  0  0  0  0  0  0  0  0  0  0
   13.4731   45.9134    2.7569 C   0  0  0  0  0  0  0  0  0  0  0  0
   13.6191   41.7037    7.3469 C   0  0  0  0  0  0  0  0  0  0  0  0
   14.3116   41.1019    8.3972 C   0  0  0  0  0  0  0  0  0  0  0  0
   17.5282   43.1506    8.3490 C   0  0  0  0  0  0  0  0  0  0  0  0
   16.3020   40.8134    9.7731 N   0  0  0  0  0  0  0  0  0  0  0  0
   13.4706   43.3178    5.5305 N   0  0  0  0  0  0  0  0  0  0  0  0
   15.0507   44.8827    4.8030 O   0  0  0  0  0  0  0  0  0  0  0  0
   18.1940   43.9508    7.4274 O   0  0  0  0  0  0  0  0  0  0  0  0
   18.0473   42.9637    9.4807 O   0  0  0  0  0  0  0  0  0  0  0  0
   11.2200   43.3584    4.1428 F   0  0  0  0  0  0  0  0  0  0  0  0
  1  2  1  0
  2  3  1  0
  3  4  1  0
  4 21  1  0
  5 21  1  0
  5  6  1  0
  8  9  2  0
  8 20  1  0
 10 22  1  0
 10 18  2  0
 11 12  1  0
 13 26  1  0
 13 14  2  0
 15 16  2  0
 17 12  2  0
 19  7  2  0
 20 24  1  0
 21  7  1  0
 22 11  1  0
  7  8  1  0
  9 10  1  0
 11 23  2  0
 12 13  1  0
 14 15  1  0
 16 17  1  0
 18 19  1  0
 20 25  2  0
M  END
>  <rmsd>  (1) 
0.241996333

$$$$
