Molport-047-891-759 MCULE-9852795841 PubChem-165933824
     RDKit          3D

 23 24  0  0  0  0  0  0  0  0999 V2000
   15.7491   44.1227   -0.3794 C   0  0  0  0  0  0  0  0  0  0  0  0
   16.3285   44.9456    0.5916 C   0  0  0  0  0  0  0  0  0  0  0  0
   15.5369   45.4956    1.6045 C   0  0  0  0  0  0  0  0  0  0  0  0
   14.1649   45.2252    1.6464 C   0  0  0  0  0  0  0  0  0  0  0  0
   13.5867   44.3991    0.6759 C   0  0  0  0  0  0  0  0  0  0  0  0
   14.3784   43.8491   -0.3370 C   0  0  0  0  0  0  0  0  0  0  0  0
   13.3247   45.8005    2.7359 C   0  0  0  0  0  0  0  0  0  0  0  0
   13.8926   44.3660    4.6697 C   0  0  0  0  0  0  0  0  0  0  0  0
   14.2764   42.7336    6.6097 C   0  0  0  0  0  0  0  0  0  0  0  0
   13.7107   41.7162    7.3860 C   0  0  0  0  0  0  0  0  0  0  0  0
   14.4375   41.1177    8.4205 C   0  0  0  0  0  0  0  0  0  0  0  0
   15.7492   41.5459    8.6789 C   0  0  0  0  0  0  0  0  0  0  0  0
   16.3222   42.5605    7.9087 C   0  0  0  0  0  0  0  0  0  0  0  0
   15.5884   43.1523    6.8776 C   0  0  0  0  0  0  0  0  0  0  0  0
   14.5006   39.4435   10.2408 C   0  0  0  0  0  0  0  0  0  0  0  0
   13.5723   38.4204   10.8757 C   0  0  0  0  0  0  0  0  0  0  0  0
   12.4224   39.0987   11.6048 C   0  0  0  0  0  0  0  0  0  0  0  0
   12.8860   39.6805   12.8685 C   0  0  0  0  0  0  0  0  0  0  0  0
   12.9941   44.7988    3.6918 O   0  0  0  0  0  0  0  0  0  0  0  0
   15.0321   44.8982    4.7679 O   0  0  0  0  0  0  0  0  0  0  0  0
   13.8352   40.1058    9.1725 O   0  0  0  0  0  0  0  0  0  0  0  0
   13.4926   43.3158    5.5590 N   0  0  0  0  0  0  0  0  0  0  0  0
   13.2514   40.1402   13.8656 N   0  0  0  0  0  0  0  0  0  0  0  0
  2  3  2  0
  4  5  2  0
  6  1  2  0
  7  4  1  0
  7 19  1  0
  8 19  1  0
  8 22  1  0
 10 11  2  0
 11 21  1  0
 12 13  2  0
 14  9  2  0
 15 21  1  0
 15 16  1  0
 16 17  1  0
 17 18  1  0
 22  9  1  0
  1  2  1  0
  3  4  1  0
  5  6  1  0
  8 20  2  0
  9 10  1  0
 11 12  1  0
 13 14  1  0
 18 23  3  0
M  END
>  <rmsd>  (1) 
0.244373024

$$$$
