Molport-016-721-723 19664757 MCULE-1483969681 PubChem-46978769 ZINC000019664757
     RDKit          3D

 30 33  0  0  0  0  0  0  0  0999 V2000
    8.0882   46.6158   -0.2115 C   0  0  0  0  0  0  0  0  0  0  0  0
   10.3838   46.4157    0.6947 C   0  0  0  0  0  0  0  0  0  0  0  0
   10.9275   47.1779   -0.3536 C   0  0  0  0  0  0  0  0  0  0  0  0
   12.3003   47.4388   -0.4052 C   0  0  0  0  0  0  0  0  0  0  0  0
   13.1458   46.9428    0.5897 C   0  0  0  0  0  0  0  0  0  0  0  0
   12.6176   46.1836    1.6360 C   0  0  0  0  0  0  0  0  0  0  0  0
   13.4488   45.6782    2.6313 C   0  0  0  0  0  0  0  0  0  0  0  0
   12.9271   44.9072    3.6796 C   0  0  0  0  0  0  0  0  0  0  0  0
   13.8716   44.3876    4.7008 C   0  0  0  0  0  0  0  0  0  0  0  0
   14.3192   42.7552    6.5989 C   0  0  0  0  0  0  0  0  0  0  0  0
   15.3238   41.5405    8.3950 C   0  0  0  0  0  0  0  0  0  0  0  0
   15.6947   40.6727    9.5485 C   0  0  0  0  0  0  0  0  0  0  0  0
   15.4219   41.3815   10.8694 C   0  0  0  0  0  0  0  0  0  0  0  0
   12.1074   42.5779   11.2761 C   0  0  0  0  0  0  0  0  0  0  0  0
   11.1114   43.6790   11.3419 C   0  0  0  0  0  0  0  0  0  0  0  0
   11.8127   41.2299   11.4180 C   0  0  0  0  0  0  0  0  0  0  0  0
   13.0549   40.6407   11.2771 C   0  0  0  0  0  0  0  0  0  0  0  0
   13.3198   39.1763   11.3533 C   0  0  0  0  0  0  0  0  0  0  0  0
   11.5293   44.6690    3.7027 C   0  0  0  0  0  0  0  0  0  0  0  0
   10.8643   43.9039    4.7961 C   0  0  0  0  0  0  0  0  0  0  0  0
   11.2358   45.9158    1.6921 C   0  0  0  0  0  0  0  0  0  0  0  0
    9.0117   46.1470    0.7613 O   0  0  0  0  0  0  0  0  0  0  0  0
   15.0289   44.8831    4.7795 O   0  0  0  0  0  0  0  0  0  0  0  0
   13.4962   43.3117    5.5698 N   0  0  0  0  0  0  0  0  0  0  0  0
   15.5505   43.2100    6.9201 N   0  0  0  0  0  0  0  0  0  0  0  0
   16.1076   42.5352    7.9241 N   0  0  0  0  0  0  0  0  0  0  0  0
   13.9915   41.5853   11.0671 N   0  0  0  0  0  0  0  0  0  0  0  0
   13.4225   42.7759   11.0689 N   0  0  0  0  0  0  0  0  0  0  0  0
   10.7382   45.1755    2.7178 N   0  0  0  0  0  0  0  0  0  0  0  0
   13.8542   41.4661    7.5732 S   0  0  0  0  0  0  0  0  0  0  0  0
  1 22  1  0
  2 22  1  0
  3  4  2  0
  5  6  2  0
  7  8  2  0
  8  9  1  0
  9 24  1  0
 10 30  1  0
 11 30  1  0
 12 11  1  0
 12 13  1  0
 13 27  1  0
 14 16  1  0
 15 14  1  0
 17 27  1  0
 18 17  1  0
 19 29  2  0
 20 19  1  0
 21  2  2  0
 21  6  1  0
 24 10  1  0
 25 26  1  0
 27 28  1  0
  2  3  1  0
  4  5  1  0
  6  7  1  0
  8 19  1  0
  9 23  2  0
 10 25  2  0
 11 26  2  0
 14 28  2  0
 16 17  2  0
 21 29  1  0
M  END
>  <rmsd>  (1) 
0.208107114

$$$$
