MolPort-020-295-159 MCULE-8672316029 PubChem-110267252
     RDKit          3D

 24 26  0  0  0  0  0  0  0  0999 V2000
   11.6028   44.1337    3.5172 C   0  0  0  0  0  0  0  0  0  0  0  0
   12.9533   44.7459    3.6674 C   0  0  0  0  0  0  0  0  0  0  0  0
   13.8425   44.3232    4.6695 C   0  0  0  0  0  0  0  0  0  0  0  0
   15.4610   45.9035    3.9237 C   0  0  0  0  0  0  0  0  0  0  0  0
   14.6024   46.3469    2.9176 C   0  0  0  0  0  0  0  0  0  0  0  0
   13.3425   45.7619    2.7925 C   0  0  0  0  0  0  0  0  0  0  0  0
   14.2430   42.7411    6.6430 C   0  0  0  0  0  0  0  0  0  0  0  0
   16.2429   42.6936    7.9092 C   0  0  0  0  0  0  0  0  0  0  0  0
   15.7264   41.6761    8.7080 C   0  0  0  0  0  0  0  0  0  0  0  0
   14.4366   41.2070    8.4376 C   0  0  0  0  0  0  0  0  0  0  0  0
   13.8252   40.1166    9.2572 C   0  0  2  0  0  0  0  0  0  0  0  0
   13.6432   40.5509   10.7131 C   0  0  0  0  0  0  0  0  0  0  0  0
   13.0740   39.4099   11.5607 C   0  0  0  0  0  0  0  0  0  0  0  0
   13.6245   38.0393   11.1468 C   0  0  0  0  0  0  0  0  0  0  0  0
   14.6272   38.8082    9.1269 C   0  0  0  0  0  0  0  0  0  0  0  0
   14.3540   35.6220    9.1807 C   0  0  0  0  0  0  0  0  0  0  0  0
   15.0674   44.9129    4.7682 N   0  0  0  0  0  0  0  0  0  0  0  0
   13.4540   43.2794    5.5752 N   0  0  0  0  0  0  0  0  0  0  0  0
   15.4971   43.2057    6.8964 N   0  0  0  0  0  0  0  0  0  0  0  0
   13.7255   41.7484    7.4140 N   0  0  0  0  0  0  0  0  0  0  0  0
   14.8899   38.1805   10.4267 N   0  0  0  0  0  0  0  0  0  0  0  0
   15.5123   36.5888   10.1277 S   0  0  0  0  0  0  0  0  0  0  0  0
   16.8036   36.6918    9.3656 O   0  0  0  0  0  0  0  0  0  0  0  0
   15.7718   35.8988   11.4374 O   0  0  0  0  0  0  0  0  0  0  0  0
  1  2  1  0
  3 17  2  0
  3 18  1  0
  4  5  2  0
  6  2  2  0
  7 20  2  0
  8 19  2  0
  9 10  2  0
 11 10  1  6
 11 12  1  0
 12 13  1  0
 13 14  1  0
 14 21  1  0
 15 21  1  0
 15 11  1  0
 18  7  1  0
 22 21  1  0
 22 16  1  0
  2  3  1  0
  4 17  1  0
  5  6  1  0
  7 19  1  0
  8  9  1  0
 10 20  1  0
 22 23  2  0
 22 24  2  0
M  END
>  <rmsd>  (1) 
0.249444798

$$$$
