Molport-046-956-332 MCULE-5763772112 MCULE-8712035988 PubChem-110095197
     RDKit          3D

 20 22  0  0  0  0  0  0  0  0999 V2000
   17.5555   43.1792    8.2136 C   0  0  0  0  0  0  0  0  0  0  0  0
   16.1898   42.6654    7.9329 C   0  0  0  0  0  0  0  0  0  0  0  0
   14.4181   41.1895    8.4569 C   0  0  0  0  0  0  0  0  0  0  0  0
   13.6611   41.7165    7.4107 C   0  0  0  0  0  0  0  0  0  0  0  0
   14.2117   42.7351    6.6333 C   0  0  0  0  0  0  0  0  0  0  0  0
   13.8536   44.3270    4.6651 C   0  0  0  0  0  0  0  0  0  0  0  0
   15.4651   45.9006    3.9347 C   0  0  0  0  0  0  0  0  0  0  0  0
   14.6037   46.3326    2.9281 C   0  0  0  0  0  0  0  0  0  0  0  0
   13.3541   45.7248    2.8223 C   0  0  0  0  0  0  0  0  0  0  0  0
   13.8484   40.0990    9.3018 C   0  0  2  0  0  0  0  0  0  0  0  0
   13.6984   40.5561   10.7532 C   0  0  0  0  0  0  0  0  0  0  0  0
   13.1729   39.4198   11.6346 C   0  0  0  0  0  0  0  0  0  0  0  0
   13.7231   38.0507   11.2149 C   0  0  0  0  0  0  0  0  0  0  0  0
   14.6905   38.8150    9.1769 C   0  0  0  0  0  0  0  0  0  0  0  0
   15.6670   41.6729    8.6987 N   0  0  0  0  0  0  0  0  0  0  0  0
   15.4646   43.1887    6.9102 N   0  0  0  0  0  0  0  0  0  0  0  0
   13.4424   43.2831    5.5563 N   0  0  0  0  0  0  0  0  0  0  0  0
   15.0779   44.9111    4.7811 N   0  0  0  0  0  0  0  0  0  0  0  0
   13.0029   44.7383    3.6878 N   0  0  0  0  0  0  0  0  0  0  0  0
   14.9750   38.1972   10.4760 N   0  0  0  0  0  0  0  0  0  0  0  0
  1  2  1  0
  2 16  2  0
  3 15  2  0
  4  5  2  0
  5 17  1  0
  6 19  2  0
  7 18  2  0
  8  9  2  0
 10  3  1  6
 10 11  1  0
 11 12  1  0
 12 13  1  0
 13 20  1  0
 14 20  1  0
 14 10  1  0
 17  6  1  0
  2 15  1  0
  3  4  1  0
  5 16  1  0
  6 18  1  0
  7  8  1  0
  9 19  1  0
M  END
>  <rmsd>  (1) 
0.248584554

$$$$
