MolPort-007-723-358 6818236 ChemDiv-E157-4659 MCULE-2103009041 PubChem-22517944 ZINC000006818236 ZINC06818236
     RDKit          3D

 24 26  0  0  0  0  0  0  0  0999 V2000
   12.1071   38.9716   11.2113 C   0  0  0  0  0  0  0  0  0  0  0  0
   13.4517   39.6372   11.0094 C   0  0  0  0  0  0  0  0  0  0  0  0
   14.4494   39.0427   11.9853 C   0  0  0  0  0  0  0  0  0  0  0  0
   13.9131   39.4096    9.5793 C   0  0  0  0  0  0  0  0  0  0  0  0
   14.9383   40.4191    9.1792 C   0  0  0  0  0  0  0  0  0  0  0  0
   15.9171   41.9857    8.1803 C   0  0  0  0  0  0  0  0  0  0  0  0
   14.3081   42.7087    6.5957 C   0  0  0  0  0  0  0  0  0  0  0  0
   13.8838   44.3826    4.7099 C   0  0  0  0  0  0  0  0  0  0  0  0
   12.9207   44.8728    3.6897 C   0  0  0  0  0  0  0  0  0  0  0  0
   12.2351   44.2945    1.3830 C   0  0  0  0  0  0  0  0  0  0  0  0
   12.3969   43.4632    0.2659 C   0  0  0  0  0  0  0  0  0  0  0  0
   11.6192   43.6635   -0.8789 C   0  0  0  0  0  0  0  0  0  0  0  0
   10.6762   44.6942   -0.9149 C   0  0  0  0  0  0  0  0  0  0  0  0
   10.5090   45.5269    0.1944 C   0  0  0  0  0  0  0  0  0  0  0  0
   11.2850   45.3288    1.3397 C   0  0  0  0  0  0  0  0  0  0  0  0
   16.1815   40.5437    9.7185 N   0  0  0  0  0  0  0  0  0  0  0  0
   16.8079   41.5434    9.0840 N   0  0  0  0  0  0  0  0  0  0  0  0
   13.5022   43.3056    5.5728 N   0  0  0  0  0  0  0  0  0  0  0  0
   13.8470   41.6769    7.3583 N   0  0  0  0  0  0  0  0  0  0  0  0
   14.7915   41.3278    8.2160 N   0  0  0  0  0  0  0  0  0  0  0  0
   15.9238   43.1811    7.0082 S   0  0  0  0  0  0  0  0  0  0  0  0
   15.0299   44.8994    4.7747 O   0  0  0  0  0  0  0  0  0  0  0  0
   13.0234   44.0760    2.5171 O   0  0  0  0  0  0  0  0  0  0  0  0
   13.3082   42.4596    0.2876 F   0  0  0  0  0  0  0  0  0  0  0  0
  1  2  1  0
  2  3  1  0
  2  4  1  0
  4  5  1  0
  6 21  1  0
  7 21  1  0
  7 18  1  0
  9  8  1  0
  9 23  1  0
 10 23  1  0
 11 24  1  0
 11 12  2  0
 13 14  2  0
 15 10  2  0
 16 17  1  0
 18  8  1  0
 20 19  1  0
 20  5  1  0
 20  6  1  0
  5 16  2  0
  6 17  2  0
  7 19  2  0
  8 22  2  0
 10 11  1  0
 12 13  1  0
 14 15  1  0
M  END
>  <rmsd>  (1) 
0.177787125

$$$$
