MolPort-002-782-092 36616315 CSSS00133001696 MCULE-1810885400 PubChem-44822874 ZINC000036616315 ZINC36616315
     RDKit          3D

 26 29  0  0  0  0  0  0  0  0999 V2000
   12.8586   39.4831   12.0795 C   0  0  0  0  0  0  0  0  0  0  0  0
   13.8691   39.2138   10.9848 C   0  0  0  0  0  0  0  0  0  0  0  0
   13.9038   40.3886   10.0311 C   0  0  0  0  0  0  0  0  0  0  0  0
   14.9067   40.1133    8.9272 C   0  0  0  0  0  0  0  0  0  0  0  0
   14.3434   42.6401    6.5017 C   0  0  0  0  0  0  0  0  0  0  0  0
   13.8690   44.4182    4.7342 C   0  0  0  0  0  0  0  0  0  0  0  0
   12.8814   44.9951    3.7994 C   0  0  0  0  0  0  0  0  0  0  0  0
   13.1645   46.0828    2.9657 C   0  0  0  0  0  0  0  0  0  0  0  0
   14.2959   46.8608    2.7702 C   0  0  0  0  0  0  0  0  0  0  0  0
   12.0567   48.4301    0.4466 C   0  0  0  0  0  0  0  0  0  0  0  0
   12.2222   46.5877    2.1238 C   0  0  0  0  0  0  0  0  0  0  0  0
   10.6341   45.0056    2.8108 C   0  0  0  0  0  0  0  0  0  0  0  0
   11.5802   44.4584    3.7122 C   0  0  0  0  0  0  0  0  0  0  0  0
    9.2470   44.4464    2.7608 C   0  0  0  0  0  0  0  0  0  0  0  0
    9.2788   43.0263    2.2221 C   0  0  0  0  0  0  0  0  0  0  0  0
    8.8427   44.1610    1.3245 C   0  0  0  0  0  0  0  0  0  0  0  0
   15.6653   42.9649    6.7847 C   0  0  0  0  0  0  0  0  0  0  0  0
   15.9971   42.0289    7.7459 C   0  0  0  0  0  0  0  0  0  0  0  0
   17.3269   41.9170    8.4091 C   0  0  0  0  0  0  0  0  0  0  0  0
   14.9434   41.2310    7.9956 N   0  0  0  0  0  0  0  0  0  0  0  0
   13.9255   41.5924    7.2361 N   0  0  0  0  0  0  0  0  0  0  0  0
   13.4967   43.3028    5.5556 N   0  0  0  0  0  0  0  0  0  0  0  0
   13.9905   47.7928    1.8275 N   0  0  0  0  0  0  0  0  0  0  0  0
   12.7322   47.6186    1.4436 N   0  0  0  0  0  0  0  0  0  0  0  0
   10.9683   46.0809    2.0322 N   0  0  0  0  0  0  0  0  0  0  0  0
   15.0310   44.9028    4.8066 O   0  0  0  0  0  0  0  0  0  0  0  0
  1  2  1  0
  2  3  1  0
  3  4  1  0
  4 20  1  0
  5 22  1  0
  5 17  1  0
  6  7  1  0
  8  9  1  0
 10 24  1  0
 11  8  2  0
 12 25  2  0
 13  7  2  0
 14 12  1  0
 14 15  1  0
 15 16  1  0
 16 14  1  0
 18 20  1  0
 19 18  1  0
 20 21  1  0
 22  6  1  0
 24 23  1  0
 24 11  1  0
  5 21  2  0
  6 26  2  0
  7  8  1  0
  9 23  2  0
 11 25  1  0
 12 13  1  0
 17 18  2  0
M  END
>  <rmsd>  (1) 
0.235595927

$$$$
