MolPort-046-958-371 MCULE-5358002909 PubChem-110093591
     RDKit          3D

 30 33  0  0  0  0  0  0  0  0999 V2000
   17.5690   43.0038    8.3529 C   0  0  0  0  0  0  0  0  0  0  0  0
   16.1944   42.5491    8.0190 C   0  0  0  0  0  0  0  0  0  0  0  0
   15.5028   43.1395    6.9600 C   0  0  0  0  0  0  0  0  0  0  0  0
   14.2073   42.7046    6.6518 C   0  0  0  0  0  0  0  0  0  0  0  0
   13.6318   41.6852    7.4138 C   0  0  0  0  0  0  0  0  0  0  0  0
   14.3526   41.1166    8.4672 C   0  0  0  0  0  0  0  0  0  0  0  0
   13.7327   40.0266    9.2769 C   0  0  2  0  0  0  0  0  0  0  0  0
   13.6094   40.4455   10.7429 C   0  0  0  0  0  0  0  0  0  0  0  0
   12.9677   39.3279   11.5618 C   0  0  0  0  0  0  0  0  0  0  0  0
   13.7922   38.0495   11.4410 C   0  0  0  0  0  0  0  0  0  0  0  0
   14.5470   38.7389    9.1565 C   0  0  0  0  0  0  0  0  0  0  0  0
   13.4592   36.4962    9.4758 C   0  0  0  0  0  0  0  0  0  0  0  0
   13.1633   35.3241   10.3259 C   0  0  0  0  0  0  0  0  0  0  0  0
   11.9329   34.6770   10.1847 C   0  0  0  0  0  0  0  0  0  0  0  0
   12.5222   33.1200   11.8588 C   0  0  0  0  0  0  0  0  0  0  0  0
   14.0799   34.7987   11.2577 C   0  0  0  0  0  0  0  0  0  0  0  0
   15.4543   35.3583   11.4118 C   0  0  0  0  0  0  0  0  0  0  0  0
   12.1743   31.9365   12.6874 C   0  0  0  0  0  0  0  0  0  0  0  0
   13.8766   44.3209    4.6952 C   0  0  0  0  0  0  0  0  0  0  0  0
   15.1962   45.8843    3.7919 C   0  0  0  0  0  0  0  0  0  0  0  0
   14.0978   46.0508    2.9489 C   0  0  0  0  0  0  0  0  0  0  0  0
   16.4315   46.6985    3.6520 C   0  0  0  0  0  0  0  0  0  0  0  0
   15.6113   41.5585    8.7449 N   0  0  0  0  0  0  0  0  0  0  0  0
   13.9766   37.7171   10.0297 N   0  0  0  0  0  0  0  0  0  0  0  0
   11.6335   33.5965   10.9503 N   0  0  0  0  0  0  0  0  0  0  0  0
   13.7351   33.7140   12.0001 N   0  0  0  0  0  0  0  0  0  0  0  0
   13.4505   43.2745    5.5758 N   0  0  0  0  0  0  0  0  0  0  0  0
   15.0771   44.9316    4.7552 N   0  0  0  0  0  0  0  0  0  0  0  0
   13.2190   36.4264    8.2396 O   0  0  0  0  0  0  0  0  0  0  0  0
   12.9361   44.9393    3.4563 S   0  0  0  0  0  0  0  0  0  0  0  0
  1  2  1  0
  2 23  2  0
  3  4  2  0
  4 27  1  0
  5  6  2  0
  7  6  1  6
  7  8  1  0
  8  9  1  0
  9 10  1  0
 10 24  1  0
 11 24  1  0
 11  7  1  0
 12 13  1  0
 14 25  2  0
 15 26  2  0
 16 13  2  0
 17 16  1  0
 18 15  1  0
 19 30  1  0
 20 28  1  0
 21 30  1  0
 22 20  1  0
 24 12  1  0
 27 19  1  0
  2  3  1  0
  4  5  1  0
  6 23  1  0
 12 29  2  0
 13 14  1  0
 15 25  1  0
 16 26  1  0
 19 28  2  0
 20 21  2  0
M  END
>  <rmsd>  (1) 
0.242607221

$$$$
