MolPort-010-852-238 41108816 ChemDiv-G952-1562 MCULE-1534031103 PubChem-52103591 ZINC000041108816
     RDKit          3D

 27 30  0  0  0  0  0  0  0  0999 V2000
   14.4974   41.5014    8.4028 N   0  0  0  0  0  0  0  0  0  0  0  0
   13.6229   41.8262    7.4650 N   0  0  0  0  0  0  0  0  0  0  0  0
   16.4431   41.7407    9.4140 N   0  0  0  0  0  0  0  0  0  0  0  0
   15.7203   40.8444   10.0984 N   0  0  0  0  0  0  0  0  0  0  0  0
   13.4715   43.3123    5.5346 N   0  0  0  0  0  0  0  0  0  0  0  0
   14.1806   42.7702    6.6548 C   0  0  0  0  0  0  0  0  0  0  0  0
   15.6524   42.1074    8.3915 C   0  0  0  0  0  0  0  0  0  0  0  0
   14.5227   40.6993    9.4666 C   0  0  0  0  0  0  0  0  0  0  0  0
   13.3841   39.8390    9.9244 C   0  0  0  0  0  0  0  0  0  0  0  0
   13.7967   38.3753   10.1212 C   0  0  0  0  0  0  0  0  0  0  0  0
   14.6119   38.1824   11.4001 C   0  0  0  0  0  0  0  0  0  0  0  0
   13.8376   38.7031   12.6057 C   0  0  0  0  0  0  0  0  0  0  0  0
   13.5353   40.1869   12.4284 C   0  0  0  0  0  0  0  0  0  0  0  0
   12.6970   40.4090   11.1701 C   0  0  0  0  0  0  0  0  0  0  0  0
   13.9424   44.3250    4.6388 C   0  0  0  0  0  0  0  0  0  0  0  0
   13.0998   44.7165    3.4740 C   0  0  0  0  0  0  0  0  0  0  0  0
   13.3488   42.7803    1.9352 C   0  0  0  0  0  0  0  0  0  0  0  0
   13.9372   42.2635    0.7769 C   0  0  0  0  0  0  0  0  0  0  0  0
   13.7118   40.9357    0.4030 C   0  0  0  0  0  0  0  0  0  0  0  0
   12.8922   40.1084    1.1874 C   0  0  0  0  0  0  0  0  0  0  0  0
   12.3017   40.6259    2.3443 C   0  0  0  0  0  0  0  0  0  0  0  0
   12.5259   41.9538    2.7170 C   0  0  0  0  0  0  0  0  0  0  0  0
   13.2079   38.1696   -0.3156 C   0  0  0  0  0  0  0  0  0  0  0  0
   15.7871   43.2065    7.1359 S   0  0  0  0  0  0  0  0  0  0  0  0
   13.5942   44.1139    2.2820 O   0  0  0  0  0  0  0  0  0  0  0  0
   12.6505   38.7760    0.8424 O   0  0  0  0  0  0  0  0  0  0  0  0
   15.0611   44.8773    4.8053 O   0  0  0  0  0  0  0  0  0  0  0  0
  1  2  1  0
  3  4  1  0
  5 15  1  0
  6 24  1  0
  6  5  1  0
  7 24  1  0
  7  1  1  0
  8  1  1  0
  9  8  1  0
  9 10  1  0
 10 11  1  0
 11 12  1  0
 12 13  1  0
 13 14  1  0
 14  9  1  0
 16 15  1  0
 16 25  1  0
 17 25  1  0
 18 19  2  0
 20 21  2  0
 20 26  1  0
 22 17  2  0
 23 26  1  0
  6  2  2  0
  7  3  2  0
  8  4  2  0
 15 27  2  0
 17 18  1  0
 19 20  1  0
 21 22  1  0
M  END
>  <rmsd>  (1) 
0.212449044

$$$$
