MolPort-047-459-720 219860716 MCULE-2419899372 MCULE-3818994584 PubChem-159302235 PubChem-159329173 PubChem-161182785 PubChem-165095731 PubChem-86683701
     RDKit          3D

 35 39  0  0  0  0  0  0  0  0999 V2000
   13.8964   41.8241   10.3259 B   0  0  0  0  0  0  0  0  0  0  0  0
   12.4696   42.0285   10.5259 O   0  0  0  0  0  0  0  0  0  0  0  0
   14.4399   40.7837   11.1878 O   0  0  0  0  0  0  0  0  0  0  0  0
   16.0333   42.2413    5.1581 O   0  0  0  0  0  0  0  0  0  0  0  0
   18.8919   47.7022   -2.6173 O   0  0  0  0  0  0  0  0  0  0  0  0
   12.0567   40.7820   11.0256 C   0  0  0  0  0  0  0  0  0  0  0  0
   13.3507   39.9051   11.2546 C   0  0  0  0  0  0  0  0  0  0  0  0
   13.5423   38.8053   10.2029 C   0  0  0  0  0  0  0  0  0  0  0  0
   13.3795   39.2063   12.6103 C   0  0  0  0  0  0  0  0  0  0  0  0
   11.2877   41.0501   12.3178 C   0  0  0  0  0  0  0  0  0  0  0  0
   11.0657   40.1609   10.0451 C   0  0  0  0  0  0  0  0  0  0  0  0
   14.4823   41.9711    8.8808 C   0  0  0  0  0  0  0  0  0  0  0  0
   15.7661   41.5063    8.5911 C   0  0  0  0  0  0  0  0  0  0  0  0
   15.5568   42.1949    6.3257 C   0  0  0  0  0  0  0  0  0  0  0  0
   14.2658   42.7010    6.5850 C   0  0  0  0  0  0  0  0  0  0  0  0
   13.7317   42.5636    7.8668 C   0  0  0  0  0  0  0  0  0  0  0  0
   13.9226   44.2093    4.5742 C   0  0  0  0  0  0  0  0  0  0  0  0
   15.5114   45.8327    3.8718 C   0  0  0  0  0  0  0  0  0  0  0  0
   14.7973   46.0726    2.6869 C   0  0  0  0  0  0  0  0  0  0  0  0
   13.6164   45.3445    2.4737 C   0  0  0  0  0  0  0  0  0  0  0  0
   13.1723   44.4188    3.4173 C   0  0  0  0  0  0  0  0  0  0  0  0
   16.5512   47.7142    1.9863 C   0  0  0  0  0  0  0  0  0  0  0  0
   17.0014   48.6035    0.8380 C   0  0  0  0  0  0  0  0  0  0  0  0
   15.3271   47.9930   -0.6236 C   0  0  0  0  0  0  0  0  0  0  0  0
   14.5673   47.1639    0.4176 C   0  0  2  0  0  0  0  0  0  0  0  0
   13.2040   47.8024    0.6229 C   0  0  0  0  0  0  0  0  0  0  0  0
   17.4033   48.6869   -1.4819 C   0  0  0  0  0  0  0  0  0  0  0  0
   18.8993   48.4883   -1.4570 C   0  0  0  0  0  0  0  0  0  0  0  0
   17.5023   47.8532   -2.7350 C   0  0  0  0  0  0  0  0  0  0  0  0
   17.6159   41.0999    7.0968 C   0  0  0  0  0  0  0  0  0  0  0  0
   16.2789   41.6221    7.3370 N   0  0  0  0  0  0  0  0  0  0  0  0
   13.4532   43.2863    5.5592 N   0  0  0  0  0  0  0  0  0  0  0  0
   15.0647   44.9224    4.7771 N   0  0  0  0  0  0  0  0  0  0  0  0
   15.2760   47.0282    1.7105 N   0  0  0  0  0  0  0  0  0  0  0  0
   16.7676   47.9108   -0.4187 N   0  0  0  0  0  0  0  0  0  0  0  0
  1  2  1  0
  1 12  1  0
  1  3  1  0
  6  2  1  0
  6  7  1  0
  6 10  1  0
  6 11  1  0
  7  3  1  0
  7  8  1  0
  7  9  1  0
 13 31  1  0
 14 15  1  0
 15 32  1  0
 16 12  1  0
 18 33  2  0
 19 20  2  0
 19 34  1  0
 21 17  2  0
 22 34  1  0
 22 23  1  0
 23 35  1  0
 24 35  1  0
 24 25  1  0
 25 26  1  1
 25 34  1  0
 27 35  1  0
 27 28  1  0
 28  5  1  0
 29  5  1  0
 29 27  1  0
 30 31  1  0
 31 14  1  0
 32 17  1  0
 12 13  2  0
 14  4  2  0
 15 16  2  0
 17 33  1  0
 18 19  1  0
 20 21  1  0
M  END
>  <rmsd>  (1) 
0.24306573

$$$$
