MolPort-001-806-469 CSSS00104793216 MCULE-5388989386 PubChem-2809596 ZINC000000118054 ZINC00118054
     RDKit          3D

 23 25  0  0  0  0  0  0  0  0999 V2000
   17.7406   41.2974   10.0773 C   0  0  0  0  0  0  0  0  0  0  0  0
   15.6833   41.5210    8.7117 C   0  0  0  0  0  0  0  0  0  0  0  0
   16.2544   42.5567    7.9539 C   0  0  0  0  0  0  0  0  0  0  0  0
   15.5427   43.1558    6.9149 C   0  0  0  0  0  0  0  0  0  0  0  0
   14.2457   42.7291    6.6102 C   0  0  0  0  0  0  0  0  0  0  0  0
   13.9001   44.3733    4.6714 C   0  0  0  0  0  0  0  0  0  0  0  0
   12.9728   44.8709    3.6136 C   0  0  0  0  0  0  0  0  0  0  0  0
   12.6593   43.7524    2.6092 C   0  0  0  0  0  0  0  0  0  0  0  0
   11.3579   44.0371    1.8662 C   0  0  0  0  0  0  0  0  0  0  0  0
   10.1633   44.1045    2.8284 C   0  0  0  0  0  0  0  0  0  0  0  0
   10.5399   44.5441    4.2497 C   0  0  0  0  0  0  0  0  0  0  0  0
   11.7221   45.5110    4.2389 C   0  0  0  0  0  0  0  0  0  0  0  0
   13.6710   41.7024    7.3626 C   0  0  0  0  0  0  0  0  0  0  0  0
   14.3652   41.0950    8.4150 C   0  0  0  0  0  0  0  0  0  0  0  0
   14.1417   39.5104   10.3449 C   0  0  0  0  0  0  0  0  0  0  0  0
   13.7959   40.4373   11.5014 C   0  0  0  0  0  0  0  0  0  0  0  0
   12.8091   39.6935   12.3768 C   0  0  0  0  0  0  0  0  0  0  0  0
   12.9966   38.2323   12.0467 C   0  0  0  0  0  0  0  0  0  0  0  0
   13.4061   38.2081   10.5927 C   0  0  0  0  0  0  0  0  0  0  0  0
   16.4159   40.9110    9.7365 O   0  0  0  0  0  0  0  0  0  0  0  0
   15.0413   44.8951    4.7788 O   0  0  0  0  0  0  0  0  0  0  0  0
   13.7021   40.0754    9.1156 O   0  0  0  0  0  0  0  0  0  0  0  0
   13.4825   43.3155    5.5474 N   0  0  0  0  0  0  0  0  0  0  0  0
  1 20  1  0
  2 20  1  0
  3  4  2  0
  5 23  1  0
  5 13  2  0
  7  6  1  0
  7  8  1  0
  8  9  1  0
  9 10  1  0
 10 11  1  0
 11 12  1  0
 12  7  1  0
 14 22  1  0
 14  2  2  0
 15 22  1  0
 15 16  1  0
 16 17  1  0
 17 18  1  0
 18 19  1  0
 19 15  1  0
 23  6  1  0
  2  3  1  0
  4  5  1  0
  6 21  2  0
 13 14  1  0
M  END
>  <rmsd>  (1) 
0.231568411

$$$$
