Molport-053-335-138
     RDKit          3D

 15 16  0  0  0  0  0  0  0  0999 V2000
   13.1267   43.5726    2.2147 Cl  0  0  0  0  0  0  0  0  0  0  0  0
   13.0358   44.7670    3.5306 C   0  0  0  0  0  0  0  0  0  0  0  0
   13.9182   44.3382    4.6589 C   0  0  0  0  0  0  0  0  0  0  0  0
   14.3272   42.6788    6.5364 C   0  0  0  0  0  0  0  0  0  0  0  0
   15.7135   42.6122    6.5364 C   0  0  0  0  0  0  0  0  0  0  0  0
   14.9832   41.5185    8.2088 C   0  0  0  0  0  0  0  0  0  0  0  0
   14.8869   40.7423    9.3621 C   0  0  0  0  0  0  0  0  0  0  0  0
   13.6019   40.4600    9.8551 C   0  0  0  0  0  0  0  0  0  0  0  0
   12.4624   40.9551    9.1908 C   0  0  0  0  0  0  0  0  0  0  0  0
   12.6189   41.7311    8.0331 C   0  0  0  0  0  0  0  0  0  0  0  0
   15.0378   44.8958    4.8124 O   0  0  0  0  0  0  0  0  0  0  0  0
   13.4841   43.3012    5.5522 N   0  0  0  0  0  0  0  0  0  0  0  0
   16.1308   41.8800    7.5973 N   0  0  0  0  0  0  0  0  0  0  0  0
   13.8805   41.9772    7.5908 N   0  0  0  0  0  0  0  0  0  0  0  0
   13.4001   39.4025   11.4319 Br  0  0  0  0  0  0  0  0  0  0  0  0
  2  1  1  0
  2  3  1  0
  3 12  1  0
  5 13  1  0
  6  7  1  0
  8 15  1  0
  8  9  1  0
 10 14  1  0
 12  4  1  0
 14  4  1  0
 14  6  1  0
  3 11  2  0
  4  5  2  0
  6 13  2  0
  7  8  2  0
  9 10  2  0
M  END
>  <rmsd>  (1) 
0.224570632

$$$$
