Molport-051-896-426
     RDKit          3D

 37 41  0  0  0  0  0  0  0  0999 V2000
   13.3829   39.5621   11.9857 C   0  0  0  0  0  0  0  0  0  0  0  0
   13.5337   38.8855   10.6337 C   0  0  0  0  0  0  0  0  0  0  0  0
   14.7995   40.5982    9.3758 C   0  0  0  0  0  0  0  0  0  0  0  0
   14.8305   41.5844    8.2902 C   0  0  0  0  0  0  0  0  0  0  0  0
   15.8890   42.4131    7.9862 C   0  0  0  0  0  0  0  0  0  0  0  0
   14.2696   42.7724    6.6408 C   0  0  0  0  0  0  0  0  0  0  0  0
   13.9121   44.3349    4.6576 C   0  0  0  0  0  0  0  0  0  0  0  0
   13.0141   44.7527    3.5651 C   0  0  0  0  0  0  0  0  0  0  0  0
   13.4218   45.7183    2.6306 C   0  0  0  0  0  0  0  0  0  0  0  0
   12.5700   46.0936    1.5843 C   0  0  0  0  0  0  0  0  0  0  0  0
   11.3060   45.5050    1.4647 C   0  0  0  0  0  0  0  0  0  0  0  0
   10.4172   45.8737    0.3239 C   0  0  0  0  0  0  0  0  0  0  0  0
    8.1467   46.4365    0.1643 C   0  0  0  0  0  0  0  0  0  0  0  0
    7.4937   47.4944   -0.7311 C   0  0  0  0  0  0  0  0  0  0  0  0
    6.9668   49.7698   -0.9937 C   0  0  0  0  0  0  0  0  0  0  0  0
    5.4854   49.9510   -0.8421 C   0  0  0  0  0  0  0  0  0  0  0  0
    5.0093   50.8034    0.1643 C   0  0  0  0  0  0  0  0  0  0  0  0
    3.6357   51.0053    0.3365 C   0  0  0  0  0  0  0  0  0  0  0  0
    2.7212   50.3542   -0.4950 C   0  0  0  0  0  0  0  0  0  0  0  0
    3.1763   49.4967   -1.5010 C   0  0  0  0  0  0  0  0  0  0  0  0
    2.2542   48.8476   -2.3269 C   0  0  0  0  0  0  0  0  0  0  0  0
    2.7006   47.9928   -3.3400 C   0  0  0  0  0  0  0  0  0  0  0  0
    4.0709   47.7834   -3.5303 C   0  0  0  0  0  0  0  0  0  0  0  0
    5.0003   48.4268   -2.7065 C   0  0  0  0  0  0  0  0  0  0  0  0
    4.5672   49.2871   -1.6838 C   0  0  0  0  0  0  0  0  0  0  0  0
    8.8081   49.2287    0.3610 C   0  0  0  0  0  0  0  0  0  0  0  0
    9.8901   48.1503    0.1923 C   0  0  0  0  0  0  0  0  0  0  0  0
   10.8873   44.5526    2.4010 C   0  0  0  0  0  0  0  0  0  0  0  0
   11.7385   44.1781    3.4460 C   0  0  0  0  0  0  0  0  0  0  0  0
   13.6330   39.8616    9.6027 O   0  0  0  0  0  0  0  0  0  0  0  0
   15.8234   40.4159   10.0920 O   0  0  0  0  0  0  0  0  0  0  0  0
   15.0414   44.8788    4.7910 O   0  0  0  0  0  0  0  0  0  0  0  0
   15.5259   43.1700    6.9314 N   0  0  0  0  0  0  0  0  0  0  0  0
   13.4915   43.3064    5.5638 N   0  0  0  0  0  0  0  0  0  0  0  0
    9.4363   46.8673    0.7385 N   0  0  0  0  0  0  0  0  0  0  0  0
    7.4615   48.7853   -0.0402 N   0  0  0  0  0  0  0  0  0  0  0  0
   13.8033   41.8033    7.4491 N   0  0  0  0  0  0  0  0  0  0  0  0
  1  2  1  0
  2 30  1  0
  3 30  1  0
  3  4  1  0
  5 33  1  0
  6 34  1  0
  6 37  1  0
  7  8  1  0
  9 10  2  0
 11 28  2  0
 12 11  1  0
 12 35  1  0
 13 35  1  0
 13 14  1  0
 14 36  1  0
 15 36  1  0
 15 16  1  0
 17 18  2  0
 19 20  2  0
 21 22  2  0
 23 24  2  0
 25 16  2  0
 25 20  1  0
 26 36  1  0
 26 27  1  0
 27 35  1  0
 29  8  2  0
 34  7  1  0
 37  4  1  0
  3 31  2  0
  4  5  2  0
  6 33  2  0
  7 32  2  0
  8  9  1  0
 10 11  1  0
 16 17  1  0
 18 19  1  0
 20 21  1  0
 22 23  1  0
 24 25  1  0
 28 29  1  0
M  END
>  <rmsd>  (1) 
0.150456727

$$$$
