MolPort-028-743-856 CSSS00160083590 MCULE-8390611716 PubChem-72939668
     RDKit          3D

 28 31  0  0  0  0  0  0  0  0999 V2000
   15.0536   44.8889    4.7963 O   0  0  0  0  0  0  0  0  0  0  0  0
   12.6277   49.0323   -0.2566 O   0  0  0  0  0  0  0  0  0  0  0  0
   15.0324   50.0500   -1.5334 O   0  0  0  0  0  0  0  0  0  0  0  0
   13.6230   40.1284    9.1707 O   0  0  0  0  0  0  0  0  0  0  0  0
   13.9151   44.3657    4.6534 C   0  0  0  0  0  0  0  0  0  0  0  0
   13.4320   45.8710    2.6925 C   0  0  0  0  0  0  0  0  0  0  0  0
   12.3091   46.1120    1.7029 C   0  0  0  0  0  0  0  0  0  0  0  0
   12.6827   47.2027    0.7602 C   0  0  0  0  0  0  0  0  0  0  0  0
   13.6254   48.3199   -0.7202 C   0  0  0  0  0  0  0  0  0  0  0  0
   14.5458   48.7630   -1.8059 C   0  0  1  0  0  0  0  0  0  0  0  0
   13.8174   48.7928   -3.1300 C   0  0  0  0  0  0  0  0  0  0  0  0
   14.3117   50.0470   -3.7846 C   0  0  0  0  0  0  0  0  0  0  0  0
   15.2969   50.6140   -2.7896 C   0  0  0  0  0  0  0  0  0  0  0  0
   14.2011   42.7384    6.6146 C   0  0  0  0  0  0  0  0  0  0  0  0
   13.5930   41.7306    7.3709 C   0  0  0  0  0  0  0  0  0  0  0  0
   14.2671   41.1337    8.4413 C   0  0  0  0  0  0  0  0  0  0  0  0
   14.2037   39.4938   10.3051 C   0  0  0  0  0  0  0  0  0  0  0  0
   14.0834   40.3929   11.5262 C   0  0  0  0  0  0  0  0  0  0  0  0
   13.0150   39.7792   12.4026 C   0  0  0  0  0  0  0  0  0  0  0  0
   13.0375   38.3059   12.0767 C   0  0  0  0  0  0  0  0  0  0  0  0
   13.4306   38.2248   10.6176 C   0  0  0  0  0  0  0  0  0  0  0  0
   15.5702   41.5517    8.7542 C   0  0  0  0  0  0  0  0  0  0  0  0
   16.1854   42.5565    8.0043 C   0  0  0  0  0  0  0  0  0  0  0  0
   15.5032   43.1479    6.9382 C   0  0  0  0  0  0  0  0  0  0  0  0
   13.0484   44.8132    3.6117 N   0  0  0  0  0  0  0  0  0  0  0  0
   12.0121   48.3668    0.6721 N   0  0  0  0  0  0  0  0  0  0  0  0
   13.7128   47.1241   -0.1080 N   0  0  0  0  0  0  0  0  0  0  0  0
   13.4696   43.3201    5.5267 N   0  0  0  0  0  0  0  0  0  0  0  0
  5 25  1  0
  5 28  1  0
  6 25  1  0
  6  7  1  0
  7  8  1  0
  8 27  1  0
  9  2  1  0
 10  9  1  1
 10 11  1  0
 10  3  1  0
 11 12  1  0
 12 13  1  0
 13  3  1  0
 15 16  2  0
 16  4  1  0
 17  4  1  0
 17 18  1  0
 18 19  1  0
 19 20  1  0
 20 21  1  0
 21 17  1  0
 22 23  2  0
 24 14  2  0
 26  2  1  0
 28 14  1  0
  5  1  2  0
  8 26  2  0
  9 27  2  0
 14 15  1  0
 16 22  1  0
 23 24  1  0
M  END
>  <rmsd>  (1) 
0.242025301

$$$$
