Molport-053-317-150 PubChem-110111773
     RDKit          3D

 27 30  0  0  0  0  0  0  0  0999 V2000
   16.3697   36.3742    7.5037 C   0  0  0  0  0  0  0  0  0  0  0  0
   16.9704   36.1194    8.8447 C   0  0  0  0  0  0  0  0  0  0  0  0
   16.2180   36.2292   10.0275 C   0  0  0  0  0  0  0  0  0  0  0  0
   18.1251   35.6469   11.3259 C   0  0  0  0  0  0  0  0  0  0  0  0
   18.9006   35.5167   10.1716 C   0  0  0  0  0  0  0  0  0  0  0  0
   18.3161   35.7561    8.9284 C   0  0  0  0  0  0  0  0  0  0  0  0
   14.7734   36.6067    9.9993 C   0  0  0  0  0  0  0  0  0  0  0  0
   13.3956   38.0718   11.1797 C   0  0  0  0  0  0  0  0  0  0  0  0
   13.1648   39.4971   11.7011 C   0  0  0  0  0  0  0  0  0  0  0  0
   13.8269   40.5574   10.8162 C   0  0  0  0  0  0  0  0  0  0  0  0
   13.7957   40.1396    9.3465 C   0  0  2  0  0  0  0  0  0  0  0  0
   14.4062   38.7440    9.1220 C   0  0  0  0  0  0  0  0  0  0  0  0
   14.4265   41.1623    8.4598 C   0  0  0  0  0  0  0  0  0  0  0  0
   13.6638   41.7419    7.4445 C   0  0  0  0  0  0  0  0  0  0  0  0
   14.2400   42.7033    6.6099 C   0  0  0  0  0  0  0  0  0  0  0  0
   16.3056   42.5130    7.7755 C   0  0  0  0  0  0  0  0  0  0  0  0
   15.7622   41.5501    8.6280 C   0  0  0  0  0  0  0  0  0  0  0  0
   13.8529   44.3195    4.6673 C   0  0  0  0  0  0  0  0  0  0  0  0
   15.4558   45.9055    3.9222 C   0  0  0  0  0  0  0  0  0  0  0  0
   14.5837   46.3107    2.9089 C   0  0  0  0  0  0  0  0  0  0  0  0
   12.9816   44.7294    3.6540 C   0  0  0  0  0  0  0  0  0  0  0  0
   16.8154   35.9980   11.2308 N   0  0  0  0  0  0  0  0  0  0  0  0
   14.6110   37.9994   10.3706 N   0  0  0  0  0  0  0  0  0  0  0  0
   15.5421   43.0624    6.7927 N   0  0  0  0  0  0  0  0  0  0  0  0
   13.4478   43.2787    5.5645 N   0  0  0  0  0  0  0  0  0  0  0  0
   15.0716   44.9209    4.7782 N   0  0  0  0  0  0  0  0  0  0  0  0
   13.3653   45.7148    2.7978 N   0  0  0  0  0  0  0  0  0  0  0  0
  1  2  1  0
  3 22  2  0
  4  5  2  0
  6  2  2  0
  7  3  1  0
  7 23  1  0
  8 23  1  0
  8  9  1  0
  9 10  1  0
 10 11  1  0
 11 12  1  0
 11 13  1  6
 12 23  1  0
 14 15  2  0
 15 25  1  0
 16 24  2  0
 17 13  2  0
 19 26  2  0
 20 27  2  0
 21 18  2  0
 25 18  1  0
  2  3  1  0
  4 22  1  0
  5  6  1  0
 13 14  1  0
 15 24  1  0
 16 17  1  0
 18 26  1  0
 19 20  1  0
 21 27  1  0
M  END
>  <rmsd>  (1) 
0.245377764

$$$$
