Molport-051-996-551 MCULE-9800697149 PubChem-118351748 PubChem-129158233 PubChem-145420292 PubChem-157092727 PubChem-157831666 PubChem-158370418 PubChem-159068665 PubChem-159124835 PubChem-160433104 PubChem-165060170 PubChem-165086823
     RDKit          3D

 26 26  0  0  0  0  0  0  0  0999 V2000
   12.1839   45.9672    1.7399 C   0  0  0  0  0  0  0  0  0  0  0  0
   13.3620   45.8049    2.6769 C   0  0  0  0  0  0  0  0  0  0  0  0
   13.6058   47.1313    3.3759 C   0  0  0  0  0  0  0  0  0  0  0  0
   14.5811   45.4252    1.8541 C   0  0  0  0  0  0  0  0  0  0  0  0
   13.9129   44.3595    4.6502 C   0  0  0  0  0  0  0  0  0  0  0  0
   14.2038   42.7514    6.6310 C   0  0  0  0  0  0  0  0  0  0  0  0
   15.5015   43.1762    6.9434 C   0  0  0  0  0  0  0  0  0  0  0  0
   16.2170   42.6189    8.0125 C   0  0  0  0  0  0  0  0  0  0  0  0
   15.6010   41.6239    8.8087 C   0  0  0  0  0  0  0  0  0  0  0  0
   14.3117   41.1882    8.4769 C   0  0  0  0  0  0  0  0  0  0  0  0
   13.6108   41.7377    7.3948 C   0  0  0  0  0  0  0  0  0  0  0  0
   11.6525   40.2765    7.7988 C   0  0  0  0  0  0  0  0  0  0  0  0
   16.7703   41.9838   10.9996 C   0  0  0  0  0  0  0  0  0  0  0  0
   16.2247   39.6520   10.2354 C   0  0  0  0  0  0  0  0  0  0  0  0
   15.3251   39.3062   11.4177 C   0  0  0  0  0  0  0  0  0  0  0  0
   13.2478   39.8881   12.2987 C   0  0  0  0  0  0  0  0  0  0  0  0
   13.3910   38.2173   10.6846 C   0  0  0  0  0  0  0  0  0  0  0  0
   13.0538   44.7816    3.6266 O   0  0  0  0  0  0  0  0  0  0  0  0
   15.0506   44.8863    4.7895 O   0  0  0  0  0  0  0  0  0  0  0  0
   12.3230   41.2959    7.0699 O   0  0  0  0  0  0  0  0  0  0  0  0
   17.9591   44.1515    7.8324 O   0  0  0  0  0  0  0  0  0  0  0  0
   18.5171   42.1250    8.6612 O   0  0  0  0  0  0  0  0  0  0  0  0
   13.4724   43.3204    5.5336 N   0  0  0  0  0  0  0  0  0  0  0  0
   16.2351   41.0894    9.9818 N   0  0  0  0  0  0  0  0  0  0  0  0
   13.9273   39.5097   11.0737 N   0  0  0  0  0  0  0  0  0  0  0  0
   17.5762   43.0311    8.2289 N   0  0  0  0  0  0  0  0  0  0  0  0
  1  2  1  0
  2  3  1  0
  2  4  1  0
  2 18  1  0
  5 18  1  0
  5 23  1  0
  7  8  2  0
  8 26  1  0
  9 10  2  0
  9 24  1  0
 11 20  1  0
 11  6  2  0
 12 20  1  0
 13 24  1  0
 14 24  1  0
 14 15  1  0
 15 25  1  0
 16 25  1  0
 17 25  1  0
 23  6  1  0
 26 22  1  0
  5 19  2  0
  6  7  1  0
  8  9  1  0
 10 11  1  0
 26 21  2  0
M  CHG  2  22  -1  26   1
M  END
>  <rmsd>  (1) 
0.242217973

$$$$
