MolPort-010-852-371 41076405 ChemDiv-G952-3364 MCULE-9272492653 PubChem-52095937 ZINC000041076405 ZINC41076405
     RDKit          3D

 22 24  0  0  0  0  0  0  0  0999 V2000
   14.0909   39.0354   11.9744 C   0  0  0  0  0  0  0  0  0  0  0  0
   13.1322   39.7029   11.0066 C   0  0  0  0  0  0  0  0  0  0  0  0
   13.5578   39.4442    9.5705 C   0  0  0  0  0  0  0  0  0  0  0  0
   14.6610   40.3646    9.1627 C   0  0  0  0  0  0  0  0  0  0  0  0
   15.7636   41.8363    8.1483 C   0  0  0  0  0  0  0  0  0  0  0  0
   14.2166   42.6752    6.5597 C   0  0  0  0  0  0  0  0  0  0  0  0
   13.9268   44.3655    4.6641 C   0  0  0  0  0  0  0  0  0  0  0  0
   13.0466   44.8408    3.5587 C   0  0  0  0  0  0  0  0  0  0  0  0
   13.5389   44.3415    2.2049 C   0  0  0  0  0  0  0  0  0  0  0  0
   13.1291   42.9272    1.9517 C   0  0  0  0  0  0  0  0  0  0  0  0
   12.1350   42.6565    1.0051 C   0  0  0  0  0  0  0  0  0  0  0  0
   11.7573   41.3361    0.7418 C   0  0  0  0  0  0  0  0  0  0  0  0
   12.3784   40.2826    1.4196 C   0  0  0  0  0  0  0  0  0  0  0  0
   13.3799   40.5489    2.3581 C   0  0  0  0  0  0  0  0  0  0  0  0
   13.7577   41.8688    2.6209 C   0  0  0  0  0  0  0  0  0  0  0  0
   15.9170   40.3781    9.6864 N   0  0  0  0  0  0  0  0  0  0  0  0
   16.6227   41.3159    9.0410 N   0  0  0  0  0  0  0  0  0  0  0  0
   13.4680   43.3115    5.5177 N   0  0  0  0  0  0  0  0  0  0  0  0
   13.6710   41.6975    7.3375 N   0  0  0  0  0  0  0  0  0  0  0  0
   14.5839   41.2824    8.2000 N   0  0  0  0  0  0  0  0  0  0  0  0
   15.8715   43.0049    6.9545 S   0  0  0  0  0  0  0  0  0  0  0  0
   15.0592   44.8924    4.8257 O   0  0  0  0  0  0  0  0  0  0  0  0
  1  2  1  0
  2  3  1  0
  3  4  1  0
  5 21  1  0
  6 21  1  0
  6 18  1  0
  8  7  1  0
  8  9  1  0
  9 10  1  0
 11 12  2  0
 13 14  2  0
 15 10  2  0
 16 17  1  0
 18  7  1  0
 20 19  1  0
 20  4  1  0
 20  5  1  0
  4 16  2  0
  5 17  2  0
  6 19  2  0
  7 22  2  0
 10 11  1  0
 12 13  1  0
 14 15  1  0
M  END
>  <rmsd>  (1) 
0.228610739

$$$$
