Molport-047-885-905 PubChem-165928730
     RDKit          3D

 22 23  0  0  0  0  0  0  0  0999 V2000
    9.6754   46.8061    0.6538 C   0  0  0  0  0  0  0  0  0  0  0  0
    9.8734   47.4524    1.8780 C   0  0  0  0  0  0  0  0  0  0  0  0
   11.0198   47.1848    2.6326 C   0  0  0  0  0  0  0  0  0  0  0  0
   11.9720   46.2749    2.1605 C   0  0  0  0  0  0  0  0  0  0  0  0
   11.7691   45.6223    0.9396 C   0  0  0  0  0  0  0  0  0  0  0  0
   10.6226   45.8901    0.1852 C   0  0  0  0  0  0  0  0  0  0  0  0
   13.1785   45.9707    2.9752 C   0  0  0  0  0  0  0  0  0  0  0  0
   13.8621   44.3921    4.7350 C   0  0  0  0  0  0  0  0  0  0  0  0
   14.3830   42.6793    6.5480 C   0  0  0  0  0  0  0  0  0  0  0  0
   16.0788   42.1441    7.8052 C   0  0  0  0  0  0  0  0  0  0  0  0
   15.6981   43.0323    6.8113 C   0  0  0  0  0  0  0  0  0  0  0  0
   15.0159   40.2946    9.0805 C   0  0  0  0  0  0  0  0  0  0  0  0
   14.4627   40.8439   10.3845 C   0  0  0  0  0  0  0  0  0  0  0  0
   14.4100   39.7506   11.4413 C   0  0  0  0  0  0  0  0  0  0  0  0
   13.2798   38.7679   11.1697 C   0  0  0  0  0  0  0  0  0  0  0  0
   11.9849   39.3670   11.5082 C   0  0  0  0  0  0  0  0  0  0  0  0
   12.9029   44.8881    3.8525 O   0  0  0  0  0  0  0  0  0  0  0  0
   15.0155   44.9019    4.7750 O   0  0  0  0  0  0  0  0  0  0  0  0
   13.5153   43.2982    5.5913 N   0  0  0  0  0  0  0  0  0  0  0  0
   13.9937   41.6553    7.3234 N   0  0  0  0  0  0  0  0  0  0  0  0
   15.0333   41.3398    8.0723 N   0  0  0  0  0  0  0  0  0  0  0  0
   10.9627   39.8393   11.7749 N   0  0  0  0  0  0  0  0  0  0  0  0
  2  3  2  0
  4  5  2  0
  6  1  2  0
  7  4  1  0
  7 17  1  0
  8 17  1  0
  8 19  1  0
 11  9  1  0
 12 21  1  0
 12 13  1  0
 13 14  1  0
 14 15  1  0
 15 16  1  0
 19  9  1  0
 21 20  1  0
 21 10  1  0
  1  2  1  0
  3  4  1  0
  5  6  1  0
  8 18  2  0
  9 20  2  0
 10 11  2  0
 16 22  3  0
M  END
>  <rmsd>  (1) 
0.211961135

$$$$
