Molport-000-127-861 PubChem-6496806 ZINC000006677846
     RDKit          3D

 20 21  0  0  0  0  0  0  0  0999 V2000
   17.3982   42.7608    8.4848 C   0  0  0  0  0  0  0  0  0  0  0  0
   16.0294   42.4709    7.9722 C   0  0  0  0  0  0  0  0  0  0  0  0
   15.1732   41.5072    8.5221 C   0  0  0  0  0  0  0  0  0  0  0  0
   14.2665   42.7619    6.6159 C   0  0  0  0  0  0  0  0  0  0  0  0
   13.9017   44.3570    4.6748 C   0  0  0  0  0  0  0  0  0  0  0  0
   13.3835   45.8297    2.7731 C   0  0  0  0  0  0  0  0  0  0  0  0
   15.4888   40.5718    9.6296 C   0  0  0  0  0  0  0  0  0  0  0  0
   14.4418   39.9134   10.4455 C   0  0  0  0  0  0  0  0  0  0  0  0
   14.7699   38.7902   11.2213 C   0  0  0  0  0  0  0  0  0  0  0  0
   13.8039   38.1693   12.0183 C   0  0  0  0  0  0  0  0  0  0  0  0
   12.5005   38.6702   12.0527 C   0  0  0  0  0  0  0  0  0  0  0  0
   12.1647   39.7945   11.2951 C   0  0  0  0  0  0  0  0  0  0  0  0
   13.1317   40.4141   10.4989 C   0  0  0  0  0  0  0  0  0  0  0  0
   13.7410   41.5320    7.6271 S   0  0  0  0  0  0  0  0  0  0  0  0
   15.5182   43.1663    6.9213 N   0  0  0  0  0  0  0  0  0  0  0  0
   13.4797   43.3094    5.5536 N   0  0  0  0  0  0  0  0  0  0  0  0
   15.0443   44.8783    4.7970 O   0  0  0  0  0  0  0  0  0  0  0  0
   13.0294   44.7952    3.6785 O   0  0  0  0  0  0  0  0  0  0  0  0
   16.6983   40.3192    9.8827 O   0  0  0  0  0  0  0  0  0  0  0  0
   11.2901   37.8930   13.0497 Cl  0  0  0  0  0  0  0  0  0  0  0  0
  1  2  1  0
  2 15  1  0
  3 14  1  0
  3  7  1  0
  4 14  1  0
  4 16  1  0
  5 18  1  0
  6 18  1  0
  7  8  1  0
  9 10  2  0
 11 12  2  0
 11 20  1  0
 13  8  2  0
 16  5  1  0
  2  3  2  0
  4 15  2  0
  5 17  2  0
  7 19  2  0
  8  9  1  0
 10 11  1  0
 12 13  1  0
M  END
>  <rmsd>  (1) 
0.187858373

$$$$
