MolPort-006-609-964 ChemDiv-V020-9513 MCULE-5221763621 PubChem-46070048 ZINC000034735459 ZINC34735459
     RDKit          3D

 34 37  0  0  0  0  0  0  0  0999 V2000
    7.9988   47.0383    6.7687 C   0  0  0  0  0  0  0  0  0  0  0  0
   10.0487   46.5111    5.4906 C   0  0  0  0  0  0  0  0  0  0  0  0
   10.8733   45.5345    4.9227 C   0  0  0  0  0  0  0  0  0  0  0  0
   12.0408   45.9013    4.2430 C   0  0  0  0  0  0  0  0  0  0  0  0
   12.9267   44.8535    3.6605 C   0  0  0  0  0  0  0  0  0  0  0  0
   13.8918   44.3600    4.6836 C   0  0  0  0  0  0  0  0  0  0  0  0
   14.2746   42.7385    6.6335 C   0  0  0  0  0  0  0  0  0  0  0  0
   13.7028   41.7385    7.4248 C   0  0  0  0  0  0  0  0  0  0  0  0
   14.4233   41.1403    8.4724 C   0  0  0  0  0  0  0  0  0  0  0  0
   15.7343   41.5783    8.7249 C   0  0  0  0  0  0  0  0  0  0  0  0
   16.3140   42.5777    7.9407 C   0  0  0  0  0  0  0  0  0  0  0  0
   15.5868   43.1553    6.8983 C   0  0  0  0  0  0  0  0  0  0  0  0
   14.3789   39.8639   10.6315 C   0  0  0  0  0  0  0  0  0  0  0  0
   13.2573   39.6317   11.6295 C   0  0  0  0  0  0  0  0  0  0  0  0
   12.4493   38.4022   11.2240 C   0  0  0  0  0  0  0  0  0  0  0  0
   11.0596   37.4802    9.3544 C   0  0  0  0  0  0  0  0  0  0  0  0
   11.7080   36.1874    8.9907 C   0  0  0  0  0  0  0  0  0  0  0  0
   11.7113   35.1317    9.9084 C   0  0  0  0  0  0  0  0  0  0  0  0
   12.3317   33.9227    9.5800 C   0  0  0  0  0  0  0  0  0  0  0  0
   12.9534   33.7683    8.3361 C   0  0  0  0  0  0  0  0  0  0  0  0
   12.9531   34.8231    7.4182 C   0  0  0  0  0  0  0  0  0  0  0  0
   12.3309   36.0324    7.7457 C   0  0  0  0  0  0  0  0  0  0  0  0
   13.5893   32.5254    8.0029 C   0  0  0  0  0  0  0  0  0  0  0  0
   12.7193   39.3045    8.8690 C   0  0  0  0  0  0  0  0  0  0  0  0
   12.3917   47.2513    4.1375 C   0  0  0  0  0  0  0  0  0  0  0  0
   11.5734   48.2326    4.7044 C   0  0  0  0  0  0  0  0  0  0  0  0
   10.4063   47.8654    5.3805 C   0  0  0  0  0  0  0  0  0  0  0  0
    8.8873   46.1122    6.1557 O   0  0  0  0  0  0  0  0  0  0  0  0
   15.0303   44.8933    4.7674 O   0  0  0  0  0  0  0  0  0  0  0  0
   12.3493   39.3146    7.6626 O   0  0  0  0  0  0  0  0  0  0  0  0
   13.4940   43.3090    5.5742 N   0  0  0  0  0  0  0  0  0  0  0  0
   13.8192   40.1283    9.3067 N   0  0  0  0  0  0  0  0  0  0  0  0
   12.0570   38.4406    9.8125 N   0  0  0  0  0  0  0  0  0  0  0  0
   14.1007   31.5209    7.7374 N   0  0  0  0  0  0  0  0  0  0  0  0
  1 28  1  0
  2 28  1  0
  3  4  2  0
  5  4  1  0
  5  6  1  0
  6 31  1  0
  8  9  2  0
  9 32  1  0
 10 11  2  0
 12  7  2  0
 13 32  1  0
 13 14  1  0
 14 15  1  0
 15 33  1  0
 16 33  1  0
 16 17  1  0
 18 19  2  0
 20 21  2  0
 20 23  1  0
 22 17  2  0
 24 32  1  0
 25 26  2  0
 27  2  2  0
 31  7  1  0
 33 24  1  0
  2  3  1  0
  4 25  1  0
  6 29  2  0
  7  8  1  0
  9 10  1  0
 11 12  1  0
 17 18  1  0
 19 20  1  0
 21 22  1  0
 24 30  2  0
 26 27  1  0
 23 34  3  0
M  END
>  <rmsd>  (1) 
0.245819017

$$$$
