Molport-047-071-720 PubChem-132766982
     RDKit          3D

 31 34  0  0  0  0  0  0  0  0999 V2000
   16.4416   46.6918    3.6653 C   0  0  0  0  0  0  0  0  0  0  0  0
   15.2000   45.8810    3.8014 C   0  0  0  0  0  0  0  0  0  0  0  0
   13.8689   44.3178    4.6988 C   0  0  0  0  0  0  0  0  0  0  0  0
   14.2301   42.7194    6.6456 C   0  0  0  0  0  0  0  0  0  0  0  0
   13.6896   41.6990    7.4274 C   0  0  0  0  0  0  0  0  0  0  0  0
   14.4605   41.1691    8.4618 C   0  0  0  0  0  0  0  0  0  0  0  0
   16.2256   42.6460    7.9175 C   0  0  0  0  0  0  0  0  0  0  0  0
   17.5951   43.1584    8.1809 C   0  0  0  0  0  0  0  0  0  0  0  0
   13.9014   40.0758    9.3102 C   0  0  2  0  0  0  0  0  0  0  0  0
   13.8009   40.5192   10.7732 C   0  0  0  0  0  0  0  0  0  0  0  0
   13.3406   39.3984   11.7201 C   0  0  0  0  0  0  0  0  0  0  0  0
   13.1788   38.0469   11.0230 C   0  0  0  0  0  0  0  0  0  0  0  0
   14.7469   38.8063    9.1848 C   0  0  0  0  0  0  0  0  0  0  0  0
   15.0806   36.5722   10.2797 C   0  0  0  0  0  0  0  0  0  0  0  0
   14.6916   35.5524   11.2675 C   0  0  0  0  0  0  0  0  0  0  0  0
   15.3648   34.4146   11.4097 C   0  0  0  0  0  0  0  0  0  0  0  0
   14.9720   33.4037   12.3957 C   0  0  0  0  0  0  0  0  0  0  0  0
   15.6151   32.1991   12.6066 C   0  0  0  0  0  0  0  0  0  0  0  0
   13.0155   31.9441   15.0249 C   0  0  0  0  0  0  0  0  0  0  0  0
   13.9112   33.4611   13.2794 C   0  0  0  0  0  0  0  0  0  0  0  0
   14.0886   46.0292    2.9768 C   0  0  0  0  0  0  0  0  0  0  0  0
   13.9450   46.9911    1.8493 C   0  0  0  0  0  0  0  0  0  0  0  0
   15.0750   44.9263    4.7605 N   0  0  0  0  0  0  0  0  0  0  0  0
   13.4489   43.2717    5.5807 N   0  0  0  0  0  0  0  0  0  0  0  0
   15.7129   41.6516    8.6877 N   0  0  0  0  0  0  0  0  0  0  0  0
   15.4868   43.1724    6.9063 N   0  0  0  0  0  0  0  0  0  0  0  0
   14.3291   37.7900   10.1556 N   0  0  0  0  0  0  0  0  0  0  0  0
   14.9574   31.5532   13.5893 N   0  0  0  0  0  0  0  0  0  0  0  0
   13.9489   32.3150   13.9782 N   0  0  0  0  0  0  0  0  0  0  0  0
   16.0815   36.3734    9.5369 O   0  0  0  0  0  0  0  0  0  0  0  0
   12.9102   44.9317    3.4612 S   0  0  0  0  0  0  0  0  0  0  0  0
  1  2  1  0
  2 23  1  0
  3 24  1  0
  3 31  1  0
  4 26  2  0
  5  6  2  0
  7 25  2  0
  8  7  1  0
  9  6  1  6
  9 10  1  0
 10 11  1  0
 11 12  1  0
 12 27  1  0
 13 27  1  0
 13  9  1  0
 14 15  1  0
 16 17  1  0
 17 18  1  0
 19 29  1  0
 21 31  1  0
 22 21  1  0
 24  4  1  0
 27 14  1  0
 29 28  1  0
 29 20  1  0
  3 23  2  0
  4  5  1  0
  6 25  1  0
  7 26  1  0
 14 30  2  0
 15 16  2  0
 18 28  2  0
 20 17  2  0
 21  2  2  0
M  END
>  <rmsd>  (1) 
0.24654828

$$$$
