MolPort-016-718-555 MCULE-1416712221 PubChem-46975451
     RDKit          3D

 27 30  0  0  0  0  0  0  0  0999 V2000
   13.0289   39.4936   11.8288 C   0  0  0  0  0  0  0  0  0  0  0  0
   13.2870   38.8059   10.5007 C   0  0  0  0  0  0  0  0  0  0  0  0
   14.7407   40.4831    9.3813 C   0  0  0  0  0  0  0  0  0  0  0  0
   14.8885   41.4606    8.3923 C   0  0  0  0  0  0  0  0  0  0  0  0
   16.0749   42.1701    8.2775 C   0  0  0  0  0  0  0  0  0  0  0  0
   17.1585   41.9496    9.1224 C   0  0  0  0  0  0  0  0  0  0  0  0
   17.0256   40.9708   10.1182 C   0  0  0  0  0  0  0  0  0  0  0  0
   15.8280   40.2423   10.2477 C   0  0  0  0  0  0  0  0  0  0  0  0
   14.3592   42.7732    6.6611 C   0  0  0  0  0  0  0  0  0  0  0  0
   13.8812   44.3346    4.6922 C   0  0  0  0  0  0  0  0  0  0  0  0
   12.8834   44.7760    3.6821 C   0  0  0  0  0  0  0  0  0  0  0  0
   11.9880   45.8465    4.2789 C   0  0  0  0  0  0  0  0  0  0  0  0
   10.9379   46.2819    3.2668 C   0  0  2  0  0  0  0  0  0  0  0  0
   10.2403   47.5071    3.7497 C   0  0  0  0  0  0  0  0  0  0  0  0
   10.7768   48.7794    3.9559 C   0  0  0  0  0  0  0  0  0  0  0  0
    9.9210   49.7979    4.4054 C   0  0  0  0  0  0  0  0  0  0  0  0
    8.5570   49.5338    4.6344 C   0  0  0  0  0  0  0  0  0  0  0  0
    8.0348   48.2492    4.4142 C   0  0  0  0  0  0  0  0  0  0  0  0
    8.9024   47.2530    3.9691 C   0  0  0  0  0  0  0  0  0  0  0  0
    9.7744   45.3285    3.2630 C   0  0  0  0  0  0  0  0  0  0  0  0
   13.5392   39.7710    9.4849 O   0  0  0  0  0  0  0  0  0  0  0  0
   15.0079   44.8954    4.7333 O   0  0  0  0  0  0  0  0  0  0  0  0
    9.8575   44.1255    2.9012 O   0  0  0  0  0  0  0  0  0  0  0  0
   15.9473   43.2622    7.0112 S   0  0  0  0  0  0  0  0  0  0  0  0
   13.9279   41.7940    7.4919 N   0  0  0  0  0  0  0  0  0  0  0  0
   13.5290   43.3019    5.6199 N   0  0  0  0  0  0  0  0  0  0  0  0
    8.5434   45.9121    3.6874 N   0  0  0  0  0  0  0  0  0  0  0  0
  1  2  1  0
  2 21  1  0
  3 21  1  0
  4  5  2  0
  4 25  1  0
  5 24  1  0
  6  7  2  0
  8  3  2  0
  9 24  1  0
  9 26  1  0
 11 10  1  0
 11 12  1  0
 13 12  1  1
 13 14  1  0
 13 20  1  0
 15 16  2  0
 17 18  2  0
 19 27  1  0
 19 14  2  0
 26 10  1  0
 27 20  1  0
  3  4  1  0
  5  6  1  0
  7  8  1  0
  9 25  2  0
 10 22  2  0
 14 15  1  0
 16 17  1  0
 18 19  1  0
 20 23  2  0
M  END
>  <rmsd>  (1) 
0.24659203

$$$$
