MolPort-002-849-494 8715584 LN01241865 MCULE-3229897286 PubChem-11842450 ZINC000008715584 ZINC08715584
     RDKit          3D

 24 26  0  0  0  0  0  0  0  0999 V2000
   13.3935   45.9587    2.8671 C   0  0  0  0  0  0  0  0  0  0  0  0
   13.8994   44.3890    4.6930 C   0  0  0  0  0  0  0  0  0  0  0  0
   14.2503   42.6988    6.5541 C   0  0  0  0  0  0  0  0  0  0  0  0
   16.0312   42.3177    7.8790 C   0  0  0  0  0  0  0  0  0  0  0  0
   15.1534   41.3388    8.3816 C   0  0  0  0  0  0  0  0  0  0  0  0
   15.4564   40.2727    9.3598 C   0  0  0  0  0  0  0  0  0  0  0  0
   14.4705   39.8378   10.3737 C   0  0  0  0  0  0  0  0  0  0  0  0
   14.7068   38.6872   11.1386 C   0  0  0  0  0  0  0  0  0  0  0  0
   12.6729   38.9941   12.3242 C   0  0  0  0  0  0  0  0  0  0  0  0
   12.3970   40.1506   11.5937 C   0  0  0  0  0  0  0  0  0  0  0  0
   13.3022   40.5716   10.6189 C   0  0  0  0  0  0  0  0  0  0  0  0
   17.3874   42.6035    8.3970 C   0  0  0  0  0  0  0  0  0  0  0  0
   17.7335   42.3320    9.7297 C   0  0  0  0  0  0  0  0  0  0  0  0
   19.0079   42.6453   10.2105 C   0  0  0  0  0  0  0  0  0  0  0  0
   19.9452   43.2442    9.3652 C   0  0  0  0  0  0  0  0  0  0  0  0
   19.6060   43.5339    8.0413 C   0  0  0  0  0  0  0  0  0  0  0  0
   18.3312   43.2197    7.5617 C   0  0  0  0  0  0  0  0  0  0  0  0
   13.0270   44.8903    3.7272 O   0  0  0  0  0  0  0  0  0  0  0  0
   15.0536   44.8810    4.8274 O   0  0  0  0  0  0  0  0  0  0  0  0
   16.5786   39.7000    9.3074 O   0  0  0  0  0  0  0  0  0  0  0  0
   13.4644   43.3103    5.5267 N   0  0  0  0  0  0  0  0  0  0  0  0
   15.5126   43.0636    6.8632 N   0  0  0  0  0  0  0  0  0  0  0  0
   13.8127   38.2926   12.0848 N   0  0  0  0  0  0  0  0  0  0  0  0
   13.7115   41.4341    7.5106 S   0  0  0  0  0  0  0  0  0  0  0  0
  1 18  1  0
  2 18  1  0
  2 21  1  0
  3 24  1  0
  4 22  1  0
  4 12  1  0
  5 24  1  0
  5  6  1  0
  6  7  1  0
  8 23  2  0
  9 10  2  0
 11  7  2  0
 13 14  2  0
 15 16  2  0
 17 12  2  0
 21  3  1  0
  2 19  2  0
  3 22  2  0
  4  5  2  0
  6 20  2  0
  7  8  1  0
  9 23  1  0
 10 11  1  0
 12 13  1  0
 14 15  1  0
 16 17  1  0
M  END
>  <rmsd>  (1) 
0.217100158

$$$$
