MolPort-010-948-485 ChemDiv-T479-0240 MCULE-7737912314 PubChem-53189980 ZINC000065283002 ZINC65283002
     RDKit          3D

 28 31  0  0  0  0  0  0  0  0999 V2000
   13.3604   39.4512   11.1898 C   0  0  0  0  0  0  0  0  0  0  0  0
   14.0440   40.5581   11.9688 C   0  0  0  0  0  0  0  0  0  0  0  0
   14.1083   41.8309   11.1099 C   0  0  0  0  0  0  0  0  0  0  0  0
   15.5146   42.4202   11.0162 C   0  0  0  0  0  0  0  0  0  0  0  0
   16.4719   40.0999   11.3879 C   0  0  0  0  0  0  0  0  0  0  0  0
   15.4077   40.0844   12.4878 C   0  0  0  0  0  0  0  0  0  0  0  0
   17.5441   41.6691    9.7591 C   0  0  0  0  0  0  0  0  0  0  0  0
   17.3244   42.1472    8.4486 C   0  0  0  0  0  0  0  0  0  0  0  0
   19.6646   42.4172    8.1597 C   0  0  0  0  0  0  0  0  0  0  0  0
   18.8640   41.5634   10.2078 C   0  0  0  0  0  0  0  0  0  0  0  0
   15.6413   43.0270    6.8742 C   0  0  0  0  0  0  0  0  0  0  0  0
   14.3380   42.6950    6.5691 C   0  0  0  0  0  0  0  0  0  0  0  0
   13.8743   44.3823    4.7184 C   0  0  0  0  0  0  0  0  0  0  0  0
   12.9077   44.9082    3.7383 C   0  0  0  0  0  0  0  0  0  0  0  0
   13.2615   45.9684    2.8901 C   0  0  0  0  0  0  0  0  0  0  0  0
   12.3439   46.4666    1.9606 C   0  0  0  0  0  0  0  0  0  0  0  0
   11.0658   45.9085    1.8723 C   0  0  0  0  0  0  0  0  0  0  0  0
   10.0903   46.4380    0.8842 C   0  0  0  0  0  0  0  0  0  0  0  0
   10.7051   44.8523    2.7132 C   0  0  0  0  0  0  0  0  0  0  0  0
   11.6228   44.3541    3.6427 C   0  0  0  0  0  0  0  0  0  0  0  0
   13.9679   41.6489    7.3864 C   0  0  0  0  0  0  0  0  0  0  0  0
   16.4696   41.3715   10.6601 N   0  0  0  0  0  0  0  0  0  0  0  0
   18.3941   42.5196    7.6927 N   0  0  0  0  0  0  0  0  0  0  0  0
   19.8942   41.9329    9.4058 N   0  0  0  0  0  0  0  0  0  0  0  0
   16.0122   42.1975    7.8678 N   0  0  0  0  0  0  0  0  0  0  0  0
   13.4988   43.2972    5.5780 N   0  0  0  0  0  0  0  0  0  0  0  0
   15.0273   41.3630    8.1679 N   0  0  0  0  0  0  0  0  0  0  0  0
   15.0267   44.8892    4.7964 O   0  0  0  0  0  0  0  0  0  0  0  0
  1  2  1  0
  2  3  1  0
  3  4  1  0
  4 22  1  0
  5 22  1  0
  5  6  1  0
  6  2  1  0
  7  8  2  0
  8 25  1  0
  9 23  2  0
 10 24  2  0
 12 26  1  0
 12 21  1  0
 13 14  1  0
 15 16  2  0
 17 19  2  0
 18 17  1  0
 20 14  2  0
 22  7  1  0
 25 11  1  0
 25 27  1  0
 26 13  1  0
  8 23  1  0
  9 24  1  0
 10  7  1  0
 11 12  2  0
 13 28  2  0
 14 15  1  0
 16 17  1  0
 19 20  1  0
 21 27  2  0
M  END
>  <rmsd>  (1) 
0.206293404

$$$$
