MolPort-006-580-049 ChemDiv-V019-1762 MCULE-8391059656 PubChem-46041015 ZINC000037544724 ZINC37544724
     RDKit          3D

 29 31  0  0  0  0  0  0  0  0999 V2000
    7.4221   43.6066    8.1994 C   0  0  0  0  0  0  0  0  0  0  0  0
    8.4836   41.5619    9.0994 C   0  0  0  0  0  0  0  0  0  0  0  0
    7.9325   41.7567   10.3769 C   0  0  0  0  0  0  0  0  0  0  0  0
    8.2002   40.8493   11.4057 C   0  0  0  0  0  0  0  0  0  0  0  0
    9.0178   39.7421   11.1650 C   0  0  0  0  0  0  0  0  0  0  0  0
    9.5638   39.5382    9.8939 C   0  0  0  0  0  0  0  0  0  0  0  0
   10.4626   38.3744    9.6456 C   0  0  0  0  0  0  0  0  0  0  0  0
   12.3844   38.5581   11.2514 C   0  0  0  0  0  0  0  0  0  0  0  0
   13.3049   39.7124   11.6276 C   0  0  0  0  0  0  0  0  0  0  0  0
   14.4107   39.8074   10.5849 C   0  0  0  0  0  0  0  0  0  0  0  0
   12.6425   39.3749    8.8873 C   0  0  0  0  0  0  0  0  0  0  0  0
   14.4395   41.1046    8.4355 C   0  0  0  0  0  0  0  0  0  0  0  0
   15.7585   41.5257    8.6717 C   0  0  0  0  0  0  0  0  0  0  0  0
   16.3380   42.5261    7.8881 C   0  0  0  0  0  0  0  0  0  0  0  0
   15.6025   43.1216    6.8617 C   0  0  0  0  0  0  0  0  0  0  0  0
   14.2824   42.7215    6.6126 C   0  0  0  0  0  0  0  0  0  0  0  0
   13.8896   44.3625    4.6824 C   0  0  0  0  0  0  0  0  0  0  0  0
   13.2634   45.9100    2.7770 C   0  0  0  0  0  0  0  0  0  0  0  0
   12.8825   47.2138    3.4022 C   0  0  0  0  0  0  0  0  0  0  0  0
   13.5995   47.7365    4.3936 C   0  0  0  0  0  0  0  0  0  0  0  0
   13.7121   41.7183    7.4019 C   0  0  0  0  0  0  0  0  0  0  0  0
    9.3011   40.4510    8.8666 C   0  0  0  0  0  0  0  0  0  0  0  0
    8.2380   42.4527    8.0511 O   0  0  0  0  0  0  0  0  0  0  0  0
   12.2787   39.3207    7.6806 O   0  0  0  0  0  0  0  0  0  0  0  0
   15.0295   44.8932    4.7748 O   0  0  0  0  0  0  0  0  0  0  0  0
   11.8478   38.7430    9.9049 N   0  0  0  0  0  0  0  0  0  0  0  0
   13.8405   40.0849    9.2647 N   0  0  0  0  0  0  0  0  0  0  0  0
   13.4935   43.3088    5.5691 N   0  0  0  0  0  0  0  0  0  0  0  0
   12.9728   44.8044    3.6798 N   0  0  0  0  0  0  0  0  0  0  0  0
  1 23  1  0
  2 23  1  0
  3  4  2  0
  5  6  2  0
  7  6  1  0
  7 26  1  0
  8 26  1  0
  8  9  1  0
  9 10  1  0
 10 27  1  0
 11 26  1  0
 13 14  2  0
 15 16  2  0
 16 28  1  0
 17 29  1  0
 18 29  1  0
 18 19  1  0
 21 12  2  0
 22  2  2  0
 27 11  1  0
 27 12  1  0
 28 17  1  0
  2  3  1  0
  4  5  1  0
  6 22  1  0
 11 24  2  0
 12 13  1  0
 14 15  1  0
 16 21  1  0
 17 25  2  0
 19 20  2  0
M  END
>  <rmsd>  (1) 
0.249452397

$$$$
