MolPort-007-752-072 ChemDiv-E649-1604 MCULE-2966478132 PubChem-20909601 ZINC000015680328 ZINC15680328
     RDKit          3D

 31 33  0  0  0  0  0  0  0  0999 V2000
   12.6432   47.4067    8.4365 C   0  0  0  0  0  0  0  0  0  0  0  0
   13.8866   47.1002    7.6280 C   0  0  0  0  0  0  0  0  0  0  0  0
   15.0693   44.9520    7.8467 C   0  0  0  0  0  0  0  0  0  0  0  0
   15.1117   43.4957    7.6064 C   0  0  0  0  0  0  0  0  0  0  0  0
   14.3667   42.7882    6.6400 C   0  0  0  0  0  0  0  0  0  0  0  0
   13.8442   44.4154    4.7746 C   0  0  0  0  0  0  0  0  0  0  0  0
   12.8039   44.9996    3.8878 C   0  0  0  0  0  0  0  0  0  0  0  0
   14.5871   41.4575    6.9057 C   0  0  0  0  0  0  0  0  0  0  0  0
   15.4361   41.4013    7.9393 C   0  0  0  0  0  0  0  0  0  0  0  0
   14.7411   39.1877    7.1944 C   0  0  0  0  0  0  0  0  0  0  0  0
   14.5069   37.7328    6.9858 C   0  0  0  0  0  0  0  0  0  0  0  0
   14.1633   40.2209    6.4351 C   0  0  0  0  0  0  0  0  0  0  0  0
   13.2154   40.0261    5.3013 C   0  0  0  0  0  0  0  0  0  0  0  0
   16.5552   42.8834    9.6083 C   0  0  0  0  0  0  0  0  0  0  0  0
   15.6453   42.9528   10.7863 C   0  0  0  0  0  0  0  0  0  0  0  0
   14.0808   41.6350   12.3406 C   0  0  0  0  0  0  0  0  0  0  0  0
   13.4696   40.3924   12.6000 C   0  0  0  0  0  0  0  0  0  0  0  0
   13.7071   39.2142   11.7123 C   0  0  0  0  0  0  0  0  0  0  0  0
   12.7213   39.2233   10.5580 C   0  0  0  0  0  0  0  0  0  0  0  0
   12.5921   40.2573   13.6826 C   0  0  0  0  0  0  0  0  0  0  0  0
   12.3264   41.3464   14.5157 C   0  0  0  0  0  0  0  0  0  0  0  0
   12.9311   42.5797   14.2651 C   0  0  0  0  0  0  0  0  0  0  0  0
   13.8026   42.7233   13.1827 C   0  0  0  0  0  0  0  0  0  0  0  0
   13.9758   45.7006    7.4066 O   0  0  0  0  0  0  0  0  0  0  0  0
   16.0098   45.5131    8.4716 O   0  0  0  0  0  0  0  0  0  0  0  0
   15.0136   44.8842    4.7561 O   0  0  0  0  0  0  0  0  0  0  0  0
   15.4560   44.0593   11.3571 O   0  0  0  0  0  0  0  0  0  0  0  0
   13.5163   43.3009    5.6078 N   0  0  0  0  0  0  0  0  0  0  0  0
   15.7886   42.6124    8.3977 N   0  0  0  0  0  0  0  0  0  0  0  0
   14.9821   41.7620   11.2298 N   0  0  0  0  0  0  0  0  0  0  0  0
   15.7547   39.8265    8.4188 S   0  0  0  0  0  0  0  0  0  0  0  0
  1  2  1  0
  2 24  1  0
  3 24  1  0
  3  4  1  0
  5 28  1  0
  5  8  1  0
  7  6  1  0
  9 31  1  0
  9 29  1  0
 10 31  1  0
 11 10  1  0
 12  8  1  0
 13 12  1  0
 14 29  1  0
 14 15  1  0
 15 30  1  0
 17 20  2  0
 18 17  1  0
 18 19  1  0
 21 22  2  0
 23 16  2  0
 28  6  1  0
 29  4  1  0
 30 16  1  0
  3 25  2  0
  4  5  2  0
  6 26  2  0
  8  9  2  0
 10 12  2  0
 15 27  2  0
 16 17  1  0
 20 21  1  0
 22 23  1  0
M  END
>  <rmsd>  (1) 
0.238181993

$$$$
