MolPort-007-723-643 6818398 CHEMBL1311429 ChemDiv-E157-6969 MCULE-8039060778 PubChem-22518151 ZINC000006818398 ZINC06818398
     RDKit          3D

 24 25  0  0  0  0  0  0  0  0999 V2000
   12.6681   46.2810    3.7469 C   0  0  0  0  0  0  0  0  0  0  0  0
   13.0008   44.8111    3.5767 C   0  0  0  0  0  0  0  0  0  0  0  0
   13.6337   44.5795    2.2180 C   0  0  0  0  0  0  0  0  0  0  0  0
   13.9121   44.3497    4.6658 C   0  0  0  0  0  0  0  0  0  0  0  0
   14.2358   42.7723    6.6276 C   0  0  0  0  0  0  0  0  0  0  0  0
   15.1346   41.6037    8.5053 C   0  0  0  0  0  0  0  0  0  0  0  0
   13.5282   39.2756   11.2639 C   0  0  0  0  0  0  0  0  0  0  0  0
   13.5797   41.7769   11.5339 C   0  0  0  0  0  0  0  0  0  0  0  0
   12.4384   41.7279   12.3527 C   0  0  0  0  0  0  0  0  0  0  0  0
   11.9023   42.8976   12.8985 C   0  0  0  0  0  0  0  0  0  0  0  0
   10.6949   42.8289   13.7618 C   0  0  0  0  0  0  0  0  0  0  0  0
   12.5005   44.1312   12.6314 C   0  0  0  0  0  0  0  0  0  0  0  0
   13.6354   44.1946   11.8199 C   0  0  0  0  0  0  0  0  0  0  0  0
   14.2727   45.5057   11.5333 C   0  0  0  0  0  0  0  0  0  0  0  0
   14.1712   43.0246   11.2760 C   0  0  0  0  0  0  0  0  0  0  0  0
   15.0520   44.8729    4.8032 O   0  0  0  0  0  0  0  0  0  0  0  0
   16.6836   41.1678   10.6340 O   0  0  0  0  0  0  0  0  0  0  0  0
   15.8281   39.2170    9.4301 O   0  0  0  0  0  0  0  0  0  0  0  0
   13.4709   43.3101    5.5448 N   0  0  0  0  0  0  0  0  0  0  0  0
   15.4810   43.1816    6.9574 N   0  0  0  0  0  0  0  0  0  0  0  0
   15.9809   42.5301    8.0056 N   0  0  0  0  0  0  0  0  0  0  0  0
   14.1277   40.5695   10.9675 N   0  0  0  0  0  0  0  0  0  0  0  0
   13.6857   41.5529    7.6479 S   0  0  0  0  0  0  0  0  0  0  0  0
   15.4989   40.6068    9.8989 S   0  0  0  0  0  0  0  0  0  0  0  0
  1  2  1  0
  2  3  1  0
  2  4  1  0
  4 19  1  0
  5 23  1  0
  6 23  1  0
  7 22  1  0
  9 10  2  0
 11 10  1  0
 12 13  2  0
 14 13  1  0
 15  8  2  0
 19  5  1  0
 20 21  1  0
 22  8  1  0
 24  6  1  0
 24 22  1  0
  4 16  2  0
  5 20  2  0
  6 21  2  0
  8  9  1  0
 10 12  1  0
 13 15  1  0
 24 17  2  0
 24 18  2  0
M  END
>  <rmsd>  (1) 
0.19533886

$$$$
