MolPort-020-298-669 MCULE-3947586328 PubChem-110269814
     RDKit          3D

 22 24  0  0  0  0  0  0  0  0999 V2000
   12.9019   39.3473   11.4615 C   0  0  0  0  0  0  0  0  0  0  0  0
   13.5718   40.4769   10.6968 C   0  0  0  0  0  0  0  0  0  0  0  0
   13.7295   40.0746    9.2362 C   0  0  2  0  0  0  0  0  0  0  0  0
   14.5188   38.7630    9.1284 C   0  0  0  0  0  0  0  0  0  0  0  0
   13.7203   38.0611   11.3104 C   0  0  0  0  0  0  0  0  0  0  0  0
   12.6264   37.2885    9.3186 C   0  0  0  0  0  0  0  0  0  0  0  0
   12.8285   36.2098    8.2682 C   0  0  0  0  0  0  0  0  0  0  0  0
   14.3860   41.1618    8.4464 C   0  0  0  0  0  0  0  0  0  0  0  0
   14.2455   42.7281    6.6555 C   0  0  0  0  0  0  0  0  0  0  0  0
   15.5413   43.1819    6.9368 C   0  0  0  0  0  0  0  0  0  0  0  0
   16.2592   42.6115    7.9880 C   0  0  0  0  0  0  0  0  0  0  0  0
   15.6835   41.5958    8.7501 C   0  0  0  0  0  0  0  0  0  0  0  0
   13.8418   44.3224    4.6759 C   0  0  0  0  0  0  0  0  0  0  0  0
   13.2755   45.6993    2.8360 C   0  0  0  0  0  0  0  0  0  0  0  0
   14.5202   46.3220    2.9021 C   0  0  0  0  0  0  0  0  0  0  0  0
   15.4140   45.9083    3.8878 C   0  0  0  0  0  0  0  0  0  0  0  0
   13.9086   37.6729    9.9050 N   0  0  0  0  0  0  0  0  0  0  0  0
   13.7077   41.7351    7.4153 N   0  0  0  0  0  0  0  0  0  0  0  0
   13.4644   43.2802    5.5860 N   0  0  0  0  0  0  0  0  0  0  0  0
   12.9599   44.7161    3.7190 N   0  0  0  0  0  0  0  0  0  0  0  0
   15.0617   44.9217    4.7526 N   0  0  0  0  0  0  0  0  0  0  0  0
   13.2556   35.0294    8.8764 O   0  0  0  0  0  0  0  0  0  0  0  0
  1  2  1  0
  2  3  1  0
  3  4  1  0
  3  8  1  6
  4 17  1  0
  5 17  1  0
  5  1  1  0
  6 17  1  0
  6  7  1  0
  7 22  1  0
  9 18  2  0
  9 19  1  0
 10 11  2  0
 12  8  2  0
 13 21  2  0
 14 20  2  0
 15 16  2  0
 19 13  1  0
  8 18  1  0
  9 10  1  0
 11 12  1  0
 13 20  1  0
 14 15  1  0
 16 21  1  0
M  END
>  <rmsd>  (1) 
0.24815163

$$$$
