Molport-047-879-569 PubChem-165923563
     RDKit          3D

 24 25  0  0  0  0  0  0  0  0999 V2000
   11.7572   43.6554   11.0149 C   0  0  0  0  0  0  0  0  0  0  0  0
   12.4978   41.3254   10.7444 C   0  0  0  0  0  0  0  0  0  0  0  0
   13.6256   40.3539   10.6165 C   0  0  2  0  0  0  0  0  0  0  0  0
   13.8384   39.9582    9.1604 C   0  0  0  0  0  0  0  0  0  0  0  0
   14.4507   41.0716    8.3752 C   0  0  0  0  0  0  0  0  0  0  0  0
   13.7199   41.6759    7.3472 C   0  0  0  0  0  0  0  0  0  0  0  0
   14.2762   42.7181    6.5979 C   0  0  0  0  0  0  0  0  0  0  0  0
   15.5802   43.1499    6.8857 C   0  0  0  0  0  0  0  0  0  0  0  0
   16.3162   42.5446    7.9081 C   0  0  0  0  0  0  0  0  0  0  0  0
   15.7528   41.5048    8.6518 C   0  0  0  0  0  0  0  0  0  0  0  0
   13.8845   44.3841    4.6885 C   0  0  0  0  0  0  0  0  0  0  0  0
   13.2625   45.9389    2.8677 C   0  0  0  0  0  0  0  0  0  0  0  0
   13.1011   47.2346    3.5880 C   0  0  0  0  0  0  0  0  0  0  0  0
   11.8217   47.7204    3.8809 C   0  0  0  0  0  0  0  0  0  0  0  0
   11.6722   48.9285    4.5690 C   0  0  0  0  0  0  0  0  0  0  0  0
   12.8015   49.6506    4.9671 C   0  0  0  0  0  0  0  0  0  0  0  0
   14.0804   49.1646    4.6780 C   0  0  0  0  0  0  0  0  0  0  0  0
   14.2300   47.9566    3.9898 C   0  0  0  0  0  0  0  0  0  0  0  0
   12.7835   42.6795   10.9193 O   0  0  0  0  0  0  0  0  0  0  0  0
   11.3049   40.9233   10.6594 O   0  0  0  0  0  0  0  0  0  0  0  0
   15.0335   44.8976    4.7749 O   0  0  0  0  0  0  0  0  0  0  0  0
   12.9750   44.8475    3.7352 O   0  0  0  0  0  0  0  0  0  0  0  0
   13.4901   43.3148    5.5572 N   0  0  0  0  0  0  0  0  0  0  0  0
   13.3624   39.2240   11.3690 F   0  0  0  0  0  0  0  0  0  0  0  0
  1 19  1  0
  2 19  1  0
  3  2  1  0
  3  4  1  0
  3 24  1  1
  4  5  1  0
  6  7  2  0
  7 23  1  0
  8  9  2  0
 10  5  2  0
 11 22  1  0
 12 22  1  0
 12 13  1  0
 14 15  2  0
 16 17  2  0
 18 13  2  0
 23 11  1  0
  2 20  2  0
  5  6  1  0
  7  8  1  0
  9 10  1  0
 11 21  2  0
 13 14  1  0
 15 16  1  0
 17 18  1  0
M  END
>  <rmsd>  (1) 
0.236623868

$$$$
