MolPort-016-718-227 19714870 MCULE-5279797870 PubChem-46975114 ZINC000019714870
     RDKit          3D

 27 30  0  0  0  0  0  0  0  0999 V2000
   13.0694   39.5471   11.8588 C   0  0  0  0  0  0  0  0  0  0  0  0
   13.2580   38.8438   10.5269 C   0  0  0  0  0  0  0  0  0  0  0  0
   14.7402   40.4601    9.3564 C   0  0  0  0  0  0  0  0  0  0  0  0
   15.8436   40.1802   10.1901 C   0  0  0  0  0  0  0  0  0  0  0  0
   17.0647   40.8595   10.0193 C   0  0  0  0  0  0  0  0  0  0  0  0
   17.2053   41.8279    9.0143 C   0  0  0  0  0  0  0  0  0  0  0  0
   16.1055   42.0875    8.2021 C   0  0  0  0  0  0  0  0  0  0  0  0
   14.3640   42.7541    6.6386 C   0  0  0  0  0  0  0  0  0  0  0  0
   13.8764   44.3398    4.6864 C   0  0  0  0  0  0  0  0  0  0  0  0
   12.9044   44.7604    3.6617 C   0  0  0  0  0  0  0  0  0  0  0  0
   11.6519   44.1349    3.5746 C   0  0  0  0  0  0  0  0  0  0  0  0
   10.7302   44.5299    2.6010 C   0  0  0  0  0  0  0  0  0  0  0  0
   11.0554   45.5505    1.7024 C   0  0  0  0  0  0  0  0  0  0  0  0
   10.0636   45.9892    0.6799 C   0  0  0  0  0  0  0  0  0  0  0  0
    8.0091   46.8171    1.8462 C   0  0  0  0  0  0  0  0  0  0  0  0
   12.2989   46.1844    1.7878 C   0  0  0  0  0  0  0  0  0  0  0  0
   13.2207   45.7889    2.7615 C   0  0  0  0  0  0  0  0  0  0  0  0
   14.8953   41.4274    8.3587 C   0  0  0  0  0  0  0  0  0  0  0  0
   13.5166   39.7936    9.4980 O   0  0  0  0  0  0  0  0  0  0  0  0
   15.0064   44.8968    4.7423 O   0  0  0  0  0  0  0  0  0  0  0  0
   15.9817   43.1786    6.9346 S   0  0  0  0  0  0  0  0  0  0  0  0
   13.5264   43.3027    5.6139 N   0  0  0  0  0  0  0  0  0  0  0  0
    9.1882   47.0087    1.2344 N   0  0  0  0  0  0  0  0  0  0  0  0
    7.5468   48.0147    2.2599 N   0  0  0  0  0  0  0  0  0  0  0  0
    8.4598   48.9066    1.8980 N   0  0  0  0  0  0  0  0  0  0  0  0
    9.4587   48.2987    1.2803 N   0  0  0  0  0  0  0  0  0  0  0  0
   13.9204   41.7962    7.4876 N   0  0  0  0  0  0  0  0  0  0  0  0
  1  2  1  0
  2 19  1  0
  3 19  1  0
  4  5  2  0
  6  7  2  0
  7 21  1  0
  8 21  1  0
  8 22  1  0
  9 10  1  0
 11 12  2  0
 13 16  2  0
 14 13  1  0
 14 23  1  0
 17 10  2  0
 18 27  1  0
 18  3  2  0
 22  9  1  0
 23 15  1  0
 23 26  1  0
 24 25  1  0
  3  4  1  0
  5  6  1  0
  8 27  2  0
  9 20  2  0
 10 11  1  0
 12 13  1  0
 15 24  2  0
 16 17  1  0
 18  7  1  0
 25 26  2  0
M  END
>  <rmsd>  (1) 
0.234963208

$$$$
