MolPort-020-298-488 MCULE-2685163120 PubChem-110269683
     RDKit          3D

 27 29  0  0  0  0  0  0  0  0999 V2000
   16.8172   46.5198    4.0986 C   0  0  0  0  0  0  0  0  0  0  0  0
   15.4741   45.9042    3.9377 C   0  0  0  0  0  0  0  0  0  0  0  0
   13.8524   44.3230    4.6676 C   0  0  0  0  0  0  0  0  0  0  0  0
   12.9735   44.7405    3.6646 C   0  0  0  0  0  0  0  0  0  0  0  0
   13.3627   45.7567    2.7902 C   0  0  0  0  0  0  0  0  0  0  0  0
   14.6209   46.3454    2.9244 C   0  0  0  0  0  0  0  0  0  0  0  0
   14.2216   42.7318    6.6328 C   0  0  0  0  0  0  0  0  0  0  0  0
   16.2180   42.6456    7.9031 C   0  0  0  0  0  0  0  0  0  0  0  0
   14.4356   41.1967    8.4641 C   0  0  0  0  0  0  0  0  0  0  0  0
   13.6703   41.7252    7.4247 C   0  0  0  0  0  0  0  0  0  0  0  0
   13.8659   40.1158    9.3200 C   0  0  2  0  0  0  0  0  0  0  0  0
   13.7892   40.5582   10.7835 C   0  0  0  0  0  0  0  0  0  0  0  0
   13.5778   39.3870   11.7488 C   0  0  0  0  0  0  0  0  0  0  0  0
   13.1554   38.1180   11.0128 C   0  0  0  0  0  0  0  0  0  0  0  0
   14.6711   38.8196    9.1741 C   0  0  0  0  0  0  0  0  0  0  0  0
   13.6784   36.6190    9.1999 C   0  0  0  0  0  0  0  0  0  0  0  0
   12.4257   36.9549    8.4283 C   0  0  0  0  0  0  0  0  0  0  0  0
   11.0773   35.3588    9.8320 C   0  0  0  0  0  0  0  0  0  0  0  0
    9.9731   36.6443    8.0008 C   0  0  0  0  0  0  0  0  0  0  0  0
   17.5943   43.1436    8.1597 C   0  0  0  0  0  0  0  0  0  0  0  0
   15.0761   44.9128    4.7795 N   0  0  0  0  0  0  0  0  0  0  0  0
   13.4443   43.2814    5.5624 N   0  0  0  0  0  0  0  0  0  0  0  0
   15.4842   43.1714    6.8880 N   0  0  0  0  0  0  0  0  0  0  0  0
   15.6944   41.6647    8.6833 N   0  0  0  0  0  0  0  0  0  0  0  0
   14.1765   37.7223   10.0298 N   0  0  0  0  0  0  0  0  0  0  0  0
   11.1768   36.3254    8.7505 N   0  0  0  0  0  0  0  0  0  0  0  0
   12.4893   37.7777    7.4751 O   0  0  0  0  0  0  0  0  0  0  0  0
  1  2  1  0
  3 21  2  0
  3 22  1  0
  4  5  2  0
  6  2  2  0
  8 23  2  0
  9 24  2  0
 10  7  2  0
 11  9  1  6
 11 12  1  0
 12 13  1  0
 13 14  1  0
 14 25  1  0
 15 25  1  0
 15 11  1  0
 16 25  1  0
 16 17  1  0
 17 26  1  0
 18 26  1  0
 19 26  1  0
 20  8  1  0
 22  7  1  0
  2 21  1  0
  3  4  1  0
  5  6  1  0
  7 23  1  0
  8 24  1  0
  9 10  1  0
 17 27  2  0
M  END
>  <rmsd>  (1) 
0.249584526

$$$$
