MolPort-046-958-708 MCULE-1415893023 PubChem-110094059
     RDKit          3D

 22 24  0  0  0  0  0  0  0  0999 V2000
   13.2812   35.3212   10.3876 C   0  0  0  0  0  0  0  0  0  0  0  0
   13.7990   36.3975    9.4942 C   0  0  0  0  0  0  0  0  0  0  0  0
   13.7283   38.0696   11.3778 C   0  0  0  0  0  0  0  0  0  0  0  0
   12.9209   39.3599   11.4831 C   0  0  0  0  0  0  0  0  0  0  0  0
   13.6057   40.4728   10.6956 C   0  0  0  0  0  0  0  0  0  0  0  0
   13.7542   40.0651    9.2292 C   0  0  2  0  0  0  0  0  0  0  0  0
   14.5469   38.7632    9.1088 C   0  0  0  0  0  0  0  0  0  0  0  0
   14.3922   41.1559    8.4299 C   0  0  0  0  0  0  0  0  0  0  0  0
   15.6877   41.6064    8.7129 C   0  0  0  0  0  0  0  0  0  0  0  0
   15.5350   43.1643    6.9381 C   0  0  0  0  0  0  0  0  0  0  0  0
   14.2388   42.7192    6.6487 C   0  0  0  0  0  0  0  0  0  0  0  0
   13.8449   44.3243    4.6790 C   0  0  0  0  0  0  0  0  0  0  0  0
   15.4244   45.9132    3.8992 C   0  0  0  0  0  0  0  0  0  0  0  0
   14.5241   46.3274    2.9167 C   0  0  0  0  0  0  0  0  0  0  0  0
   12.9467   44.7415    3.6943 C   0  0  0  0  0  0  0  0  0  0  0  0
   14.0890   36.1094    8.3024 O   0  0  0  0  0  0  0  0  0  0  0  0
   13.9583   37.7414    9.9719 N   0  0  0  0  0  0  0  0  0  0  0  0
   16.2285   42.5996    7.9608 N   0  0  0  0  0  0  0  0  0  0  0  0
   13.7029   41.7247    7.4054 N   0  0  0  0  0  0  0  0  0  0  0  0
   13.4603   43.2785    5.5814 N   0  0  0  0  0  0  0  0  0  0  0  0
   15.0656   44.9225    4.7575 N   0  0  0  0  0  0  0  0  0  0  0  0
   13.3050   45.7325    2.8356 N   0  0  0  0  0  0  0  0  0  0  0  0
  1  2  1  0
  2 17  1  0
  3 17  1  0
  3  4  1  0
  4  5  1  0
  5  6  1  0
  6  7  1  0
  6  8  1  6
  7 17  1  0
  8 19  2  0
  9 18  2  0
 10 11  2  0
 11 20  1  0
 13 21  2  0
 14 22  2  0
 15 12  2  0
 20 12  1  0
  2 16  2  0
  8  9  1  0
 10 18  1  0
 11 19  1  0
 12 21  1  0
 13 14  1  0
 15 22  1  0
M  END
>  <rmsd>  (1) 
0.240998909

$$$$
