MolPort-010-852-196 41076408 ChemDiv-G952-1299 MCULE-1760288747 PubChem-52095940 ZINC000041076408 ZINC41076408
     RDKit          3D

 24 26  0  0  0  0  0  0  0  0999 V2000
   14.0533   39.0101   11.9548 C   0  0  0  0  0  0  0  0  0  0  0  0
   13.1112   39.5939   10.9189 C   0  0  0  0  0  0  0  0  0  0  0  0
   13.6605   39.3802    9.5179 C   0  0  0  0  0  0  0  0  0  0  0  0
   14.7036   40.3971    9.1884 C   0  0  0  0  0  0  0  0  0  0  0  0
   15.7344   41.9750    8.2620 C   0  0  0  0  0  0  0  0  0  0  0  0
   14.2210   42.7045    6.5889 C   0  0  0  0  0  0  0  0  0  0  0  0
   13.9067   44.3897    4.6920 C   0  0  0  0  0  0  0  0  0  0  0  0
   12.9764   44.9378    3.6648 C   0  0  0  0  0  0  0  0  0  0  0  0
   11.9393   46.8467    4.8726 C   0  0  0  0  0  0  0  0  0  0  0  0
   10.8086   47.3615    5.5160 C   0  0  0  0  0  0  0  0  0  0  0  0
   10.8474   48.6281    6.1069 C   0  0  0  0  0  0  0  0  0  0  0  0
    9.6422   49.1666    6.7891 C   0  0  0  0  0  0  0  0  0  0  0  0
   12.0195   49.3879    6.0563 C   0  0  0  0  0  0  0  0  0  0  0  0
   13.1528   48.8818    5.4141 C   0  0  0  0  0  0  0  0  0  0  0  0
   14.3992   49.6888    5.3595 C   0  0  0  0  0  0  0  0  0  0  0  0
   13.1138   47.6159    4.8230 C   0  0  0  0  0  0  0  0  0  0  0  0
   15.9106   40.5235    9.8040 N   0  0  0  0  0  0  0  0  0  0  0  0
   16.5698   41.5307    9.2163 N   0  0  0  0  0  0  0  0  0  0  0  0
   13.4732   43.3112    5.5285 N   0  0  0  0  0  0  0  0  0  0  0  0
   13.7192   41.6647    7.3139 N   0  0  0  0  0  0  0  0  0  0  0  0
   14.6120   41.3116    8.2237 N   0  0  0  0  0  0  0  0  0  0  0  0
   15.8058   43.1814    7.1036 S   0  0  0  0  0  0  0  0  0  0  0  0
   15.0562   44.8889    4.8109 O   0  0  0  0  0  0  0  0  0  0  0  0
   11.8675   45.5761    4.2909 O   0  0  0  0  0  0  0  0  0  0  0  0
  1  2  1  0
  2  3  1  0
  3  4  1  0
  5 22  1  0
  6 22  1  0
  6 19  1  0
  8  7  1  0
  8 24  1  0
  9 24  1  0
 10 11  2  0
 12 11  1  0
 13 14  2  0
 15 14  1  0
 16  9  2  0
 17 18  1  0
 19  7  1  0
 21 20  1  0
 21  4  1  0
 21  5  1  0
  4 17  2  0
  5 18  2  0
  6 20  2  0
  7 23  2  0
  9 10  1  0
 11 13  1  0
 14 16  1  0
M  END
>  <rmsd>  (1) 
0.196091086

$$$$
