MolPort-047-592-959 211499115 MCULE-4439733513 PubChem-76847709 ZINC000211499115
     RDKit          3D

 24 25  0  0  0  0  0  0  0  0999 V2000
   13.6810   41.6933   10.2664 B   0  0  0  0  0  0  0  0  0  0  0  0
   14.2810   40.7405   11.1852 O   0  0  0  0  0  0  0  0  0  0  0  0
   12.2298   41.7040   10.3436 O   0  0  0  0  0  0  0  0  0  0  0  0
   16.2082   42.4411    5.1619 O   0  0  0  0  0  0  0  0  0  0  0  0
   15.0414   44.8924    4.7842 O   0  0  0  0  0  0  0  0  0  0  0  0
   13.3007   39.7375   11.2289 C   0  0  0  0  0  0  0  0  0  0  0  0
   11.9578   40.3668   10.6694 C   0  0  0  0  0  0  0  0  0  0  0  0
   11.4226   39.6623    9.4207 C   0  0  0  0  0  0  0  0  0  0  0  0
   10.8189   40.3635   11.6853 C   0  0  0  0  0  0  0  0  0  0  0  0
   13.1904   39.2670   12.6765 C   0  0  0  0  0  0  0  0  0  0  0  0
   13.7987   38.5364   10.4224 C   0  0  0  0  0  0  0  0  0  0  0  0
   14.3622   41.9295    8.8761 C   0  0  0  0  0  0  0  0  0  0  0  0
   13.6480   42.5117    7.8283 C   0  0  0  0  0  0  0  0  0  0  0  0
   14.2594   42.7340    6.5929 C   0  0  0  0  0  0  0  0  0  0  0  0
   15.5933   42.3158    6.4100 C   0  0  0  0  0  0  0  0  0  0  0  0
   15.6922   41.5630    8.6677 C   0  0  0  0  0  0  0  0  0  0  0  0
   17.5458   42.0236    4.9331 C   0  0  0  0  0  0  0  0  0  0  0  0
   13.9655   44.2674    4.5800 C   0  0  0  0  0  0  0  0  0  0  0  0
   13.1269   44.6051    3.3894 C   0  0  0  0  0  0  0  0  0  0  0  0
   16.2708   41.7569    7.4534 N   0  0  0  0  0  0  0  0  0  0  0  0
   13.4830   43.3202    5.5401 N   0  0  0  0  0  0  0  0  0  0  0  0
   12.4153   43.4915    2.9817 F   0  0  0  0  0  0  0  0  0  0  0  0
   12.2424   45.6132    3.7231 F   0  0  0  0  0  0  0  0  0  0  0  0
   13.9303   45.0304    2.3466 F   0  0  0  0  0  0  0  0  0  0  0  0
  1  2  1  0
  1 12  1  0
  1  3  1  0
  6  2  1  0
  6  7  1  0
  6 10  1  0
  6 11  1  0
  7  3  1  0
  7  8  1  0
  7  9  1  0
 13 14  2  0
 14 21  1  0
 15 20  2  0
 15  4  1  0
 16 12  2  0
 17  4  1  0
 19 18  1  0
 19 22  1  0
 19 23  1  0
 19 24  1  0
 21 18  1  0
 12 13  1  0
 14 15  1  0
 16 20  1  0
 18  5  2  0
M  END
>  <rmsd>  (1) 
0.239751592

$$$$
