MolPort-020-275-230 MCULE-1542188336 PubChem-110252907
     RDKit          3D

 25 27  0  0  0  0  0  0  0  0999 V2000
   16.7827   46.5354    4.0362 C   0  0  0  0  0  0  0  0  0  0  0  0
   15.4393   45.9135    3.9076 C   0  0  0  0  0  0  0  0  0  0  0  0
   13.8433   44.3243    4.6763 C   0  0  0  0  0  0  0  0  0  0  0  0
   12.9404   44.7352    3.6918 C   0  0  0  0  0  0  0  0  0  0  0  0
   13.3041   45.7520    2.8073 C   0  0  0  0  0  0  0  0  0  0  0  0
   14.5616   46.3480    2.9126 C   0  0  0  0  0  0  0  0  0  0  0  0
   14.2362   42.7209    6.6481 C   0  0  0  0  0  0  0  0  0  0  0  0
   14.3880   41.1590    8.4306 C   0  0  0  0  0  0  0  0  0  0  0  0
   15.6828   41.6104    8.7151 C   0  0  0  0  0  0  0  0  0  0  0  0
   15.5316   43.1671    6.9391 C   0  0  0  0  0  0  0  0  0  0  0  0
   13.7502   40.0677    9.2294 C   0  0  2  0  0  0  0  0  0  0  0  0
   13.6013   40.4736   10.6980 C   0  0  0  0  0  0  0  0  0  0  0  0
   12.9310   39.3557   11.4937 C   0  0  0  0  0  0  0  0  0  0  0  0
   13.7461   38.0716   11.3762 C   0  0  0  0  0  0  0  0  0  0  0  0
   14.5390   38.7633    9.1036 C   0  0  0  0  0  0  0  0  0  0  0  0
   13.5372   36.4790    9.4287 C   0  0  0  0  0  0  0  0  0  0  0  0
   12.9345   35.4317   10.3047 C   0  0  0  0  0  0  0  0  0  0  0  0
   13.2814   33.8159   11.7649 C   0  0  0  0  0  0  0  0  0  0  0  0
   15.0657   44.9212    4.7596 N   0  0  0  0  0  0  0  0  0  0  0  0
   13.4588   43.2788    5.5792 N   0  0  0  0  0  0  0  0  0  0  0  0
   13.7000   41.7265    7.4047 N   0  0  0  0  0  0  0  0  0  0  0  0
   16.2242   42.6035    7.9632 N   0  0  0  0  0  0  0  0  0  0  0  0
   13.9415   37.7472    9.9653 N   0  0  0  0  0  0  0  0  0  0  0  0
   13.7153   36.2218    8.2081 O   0  0  0  0  0  0  0  0  0  0  0  0
   13.9456   34.6592   10.8756 O   0  0  0  0  0  0  0  0  0  0  0  0
  1  2  1  0
  3 19  2  0
  3 20  1  0
  4  5  2  0
  6  2  2  0
  8 21  2  0
  9 22  2  0
 10  7  2  0
 11  8  1  6
 11 12  1  0
 12 13  1  0
 13 14  1  0
 14 23  1  0
 15 23  1  0
 15 11  1  0
 17 16  1  0
 17 25  1  0
 18 25  1  0
 20  7  1  0
 23 16  1  0
  2 19  1  0
  3  4  1  0
  5  6  1  0
  7 21  1  0
  8  9  1  0
 10 22  1  0
 16 24  2  0
M  END
>  <rmsd>  (1) 
0.240559742

$$$$
