Molport-053-137-419 MCULE-8111636392 PubChem-110093729
     RDKit          3D

 32 35  0  0  0  0  0  0  0  0999 V2000
   15.6719   30.9036   10.7025 C   0  0  0  0  0  0  0  0  0  0  0  0
   15.8606   32.4048   10.7522 C   0  0  0  0  0  0  0  0  0  0  0  0
   14.5207   33.0526   10.4036 C   0  0  0  0  0  0  0  0  0  0  0  0
   14.4069   34.4768   10.8628 C   0  0  0  0  0  0  0  0  0  0  0  0
   15.2374   34.9859   11.7806 C   0  0  0  0  0  0  0  0  0  0  0  0
   16.3945   34.2194   12.3595 C   0  0  0  0  0  0  0  0  0  0  0  0
   17.6985   34.7747   11.8132 C   0  0  0  0  0  0  0  0  0  0  0  0
   16.3951   34.4433   13.8570 C   0  0  0  0  0  0  0  0  0  0  0  0
   13.2603   35.2978   10.3661 C   0  0  0  0  0  0  0  0  0  0  0  0
   13.7394   36.3927    9.4647 C   0  0  0  0  0  0  0  0  0  0  0  0
   13.6819   38.0521   11.3619 C   0  0  0  0  0  0  0  0  0  0  0  0
   12.8851   39.3484   11.4689 C   0  0  0  0  0  0  0  0  0  0  0  0
   13.5855   40.4595   10.6928 C   0  0  0  0  0  0  0  0  0  0  0  0
   13.7414   40.0590    9.2252 C   0  0  2  0  0  0  0  0  0  0  0  0
   14.5227   38.7504    9.1028 C   0  0  0  0  0  0  0  0  0  0  0  0
   14.3952   41.1485    8.4366 C   0  0  0  0  0  0  0  0  0  0  0  0
   14.2492   42.7214    6.6520 C   0  0  0  0  0  0  0  0  0  0  0  0
   15.5463   43.1735    6.9302 C   0  0  0  0  0  0  0  0  0  0  0  0
   16.2676   42.5989    7.9768 C   0  0  0  0  0  0  0  0  0  0  0  0
   15.6940   41.5807    8.7372 C   0  0  0  0  0  0  0  0  0  0  0  0
   13.8420   44.3229    4.6807 C   0  0  0  0  0  0  0  0  0  0  0  0
   15.4136   45.9134    3.8881 C   0  0  0  0  0  0  0  0  0  0  0  0
   14.5067   46.3235    2.9099 C   0  0  0  0  0  0  0  0  0  0  0  0
   12.9372   44.7361    3.7004 C   0  0  0  0  0  0  0  0  0  0  0  0
   16.9059   32.7691    9.7083 C   0  0  0  0  0  0  0  0  0  0  0  0
   16.3023   32.7694   12.1090 N   0  0  0  0  0  0  0  0  0  0  0  0
   13.9185   37.7296    9.9558 N   0  0  0  0  0  0  0  0  0  0  0  0
   13.7135   41.7260    7.4102 N   0  0  0  0  0  0  0  0  0  0  0  0
   13.4648   43.2781    5.5874 N   0  0  0  0  0  0  0  0  0  0  0  0
   15.0620   44.9237    4.7506 N   0  0  0  0  0  0  0  0  0  0  0  0
   13.2884   45.7259    2.8374 N   0  0  0  0  0  0  0  0  0  0  0  0
   14.0011   36.1199    8.2621 O   0  0  0  0  0  0  0  0  0  0  0  0
  1  2  1  0
  2  3  1  0
  2 25  1  0
  2 26  1  0
  3  4  1  0
  6  5  1  0
  6 26  1  0
  6  7  1  0
  6  8  1  0
  9  4  1  0
  9 10  1  0
 10 27  1  0
 11 27  1  0
 11 12  1  0
 12 13  1  0
 13 14  1  0
 14 15  1  0
 14 16  1  6
 15 27  1  0
 17 28  2  0
 17 29  1  0
 18 19  2  0
 20 16  2  0
 22 30  2  0
 23 31  2  0
 24 21  2  0
 29 21  1  0
  4  5  2  0
 10 32  2  0
 16 28  1  0
 17 18  1  0
 19 20  1  0
 21 30  1  0
 22 23  1  0
 24 31  1  0
M  END
>  <rmsd>  (1) 
0.245734811

$$$$
