Molport-047-885-480 PubChem-165941088
     RDKit          3D

 27 28  0  0  0  0  0  0  0  0999 V2000
   12.8187   39.2429   11.8089 C   0  0  0  0  0  0  0  0  0  0  0  0
   13.9778   38.9473   10.8803 C   0  0  0  0  0  0  0  0  0  0  0  0
   15.0414   40.7213    9.5423 C   0  0  0  0  0  0  0  0  0  0  0  0
   14.9710   41.6689    8.4086 C   0  0  0  0  0  0  0  0  0  0  0  0
   15.9378   42.5844    7.9872 C   0  0  0  0  0  0  0  0  0  0  0  0
   14.2916   42.8182    6.6499 C   0  0  0  0  0  0  0  0  0  0  0  0
   13.9098   41.8324    7.5317 C   0  0  0  0  0  0  0  0  0  0  0  0
   12.6528   41.1288    7.5258 C   0  0  0  0  0  0  0  0  0  0  0  0
   13.9050   44.3345    4.6622 C   0  0  0  0  0  0  0  0  0  0  0  0
   13.3824   45.7410    2.7119 C   0  0  0  0  0  0  0  0  0  0  0  0
   12.2630   45.9434    1.7537 C   0  0  0  0  0  0  0  0  0  0  0  0
   11.2503   46.8638    2.0447 C   0  0  0  0  0  0  0  0  0  0  0  0
   10.1850   47.0363    1.1555 C   0  0  0  0  0  0  0  0  0  0  0  0
   10.1285   46.2843   -0.0222 C   0  0  0  0  0  0  0  0  0  0  0  0
   11.1358   45.3581   -0.3097 C   0  0  0  0  0  0  0  0  0  0  0  0
   12.2013   45.1853    0.5794 C   0  0  0  0  0  0  0  0  0  0  0  0
   17.2889   42.8235    8.5910 C   0  0  0  0  0  0  0  0  0  0  0  0
   13.9660   39.8685    9.8001 O   0  0  0  0  0  0  0  0  0  0  0  0
   16.0661   40.6812   10.2756 O   0  0  0  0  0  0  0  0  0  0  0  0
   15.4969   43.2485    6.9396 O   0  0  0  0  0  0  0  0  0  0  0  0
   15.0391   44.8757    4.7782 O   0  0  0  0  0  0  0  0  0  0  0  0
   13.0352   44.7289    3.6460 O   0  0  0  0  0  0  0  0  0  0  0  0
   11.6428   40.5640    7.5207 N   0  0  0  0  0  0  0  0  0  0  0  0
   13.4921   43.3089    5.5690 N   0  0  0  0  0  0  0  0  0  0  0  0
   17.1506   43.2354    9.9035 F   0  0  0  0  0  0  0  0  0  0  0  0
   17.9516   43.8090    7.8822 F   0  0  0  0  0  0  0  0  0  0  0  0
   18.0368   41.6617    8.5441 F   0  0  0  0  0  0  0  0  0  0  0  0
  1  2  1  0
  2 18  1  0
  3 18  1  0
  3  4  1  0
  5 20  1  0
  6 20  1  0
  6 24  1  0
  7  8  1  0
  7  4  1  0
  9 22  1  0
 10 22  1  0
 10 11  1  0
 12 13  2  0
 14 15  2  0
 16 11  2  0
 17  5  1  0
 17 25  1  0
 17 26  1  0
 17 27  1  0
 24  9  1  0
  3 19  2  0
  4  5  2  0
  6  7  2  0
  9 21  2  0
 11 12  1  0
 13 14  1  0
 15 16  1  0
  8 23  3  0
M  END
>  <rmsd>  (1) 
0.20491989

$$$$
