MolPort-001-933-564 2070240 CSSS00121702380 LN01138364 MCULE-8829448336 PubChem-1732463 ZINC000002070240 ZINC02070240
     RDKit          3D

 22 23  0  0  0  0  0  0  0  0999 V2000
   10.6094   38.9309   10.6479 C   0  0  0  0  0  0  0  0  0  0  0  0
   12.1126   39.0119   10.4892 C   0  0  0  0  0  0  0  0  0  0  0  0
   12.7817   38.5932   11.7844 C   0  0  0  0  0  0  0  0  0  0  0  0
   14.2944   38.6847   11.6567 C   0  0  0  0  0  0  0  0  0  0  0  0
   14.7965   40.0881   11.9785 C   0  0  0  0  0  0  0  0  0  0  0  0
   14.5434   41.0553   10.8324 C   0  0  0  0  0  0  0  0  0  0  0  0
   15.4754   40.7596    9.6702 C   0  0  0  0  0  0  0  0  0  0  0  0
   15.1375   41.6283    8.5095 C   0  0  0  0  0  0  0  0  0  0  0  0
   14.2382   42.7890    6.6222 C   0  0  0  0  0  0  0  0  0  0  0  0
   13.9117   44.3579    4.6465 C   0  0  0  0  0  0  0  0  0  0  0  0
   13.0106   44.8122    3.5559 C   0  0  0  0  0  0  0  0  0  0  0  0
   13.3526   45.8311    2.6284 C   0  0  0  0  0  0  0  0  0  0  0  0
   14.6591   46.5502    2.6582 C   0  0  0  0  0  0  0  0  0  0  0  0
   12.4434   46.1985    1.6304 C   0  0  0  0  0  0  0  0  0  0  0  0
   11.1998   45.5731    1.5359 C   0  0  0  0  0  0  0  0  0  0  0  0
   10.8547   44.5716    2.4418 C   0  0  0  0  0  0  0  0  0  0  0  0
   11.7534   44.1963    3.4417 C   0  0  0  0  0  0  0  0  0  0  0  0
   15.9828   42.5520    8.0024 N   0  0  0  0  0  0  0  0  0  0  0  0
   15.4821   43.2008    6.9526 N   0  0  0  0  0  0  0  0  0  0  0  0
   13.4747   43.3196    5.5346 N   0  0  0  0  0  0  0  0  0  0  0  0
   15.0517   44.8741    4.7980 O   0  0  0  0  0  0  0  0  0  0  0  0
   13.6914   41.5692    7.6428 S   0  0  0  0  0  0  0  0  0  0  0  0
  1  2  1  0
  2  3  1  0
  3  4  1  0
  4  5  1  0
  5  6  1  0
  6  7  1  0
  7  8  1  0
  8 22  1  0
  9 20  1  0
  9 22  1  0
 10 11  1  0
 12 14  2  0
 13 12  1  0
 15 16  2  0
 17 11  2  0
 18 19  1  0
 20 10  1  0
  8 18  2  0
  9 19  2  0
 10 21  2  0
 11 12  1  0
 14 15  1  0
 16 17  1  0
M  END
>  <rmsd>  (1) 
0.230285093

$$$$
