MolPort-006-579-789 ChemDiv-V020-6693 MCULE-2293517034 PubChem-46040753 ZINC000037544505 ZINC37544505
     RDKit          3D

 31 33  0  0  0  0  0  0  0  0999 V2000
   11.4882   44.1208    2.1238 C   0  0  0  0  0  0  0  0  0  0  0  0
   12.9555   44.8116    3.6195 C   0  0  0  0  0  0  0  0  0  0  0  0
   13.8974   44.3513    4.6752 C   0  0  0  0  0  0  0  0  0  0  0  0
   14.2720   42.7404    6.6343 C   0  0  0  0  0  0  0  0  0  0  0  0
   13.6982   41.7419    7.4272 C   0  0  0  0  0  0  0  0  0  0  0  0
   14.4154   41.1459    8.4778 C   0  0  0  0  0  0  0  0  0  0  0  0
   15.7261   41.5839    8.7303 C   0  0  0  0  0  0  0  0  0  0  0  0
   16.3083   42.5804    7.9440 C   0  0  0  0  0  0  0  0  0  0  0  0
   15.5841   43.1558    6.8985 C   0  0  0  0  0  0  0  0  0  0  0  0
   14.3846   39.8536   10.6269 C   0  0  0  0  0  0  0  0  0  0  0  0
   13.2707   39.6259   11.6352 C   0  0  0  0  0  0  0  0  0  0  0  0
   12.4464   38.4057   11.2341 C   0  0  0  0  0  0  0  0  0  0  0  0
   11.0078   37.5192    9.3946 C   0  0  0  0  0  0  0  0  0  0  0  0
   11.5873   36.3578    8.6577 C   0  0  0  0  0  0  0  0  0  0  0  0
   12.2312   35.3327    9.3593 C   0  0  0  0  0  0  0  0  0  0  0  0
   12.7900   34.2480    8.6751 C   0  0  0  0  0  0  0  0  0  0  0  0
   14.0435   32.0939    8.8327 C   0  0  0  0  0  0  0  0  0  0  0  0
   12.7005   34.1986    7.2741 C   0  0  0  0  0  0  0  0  0  0  0  0
   12.0589   35.2224    6.5717 C   0  0  0  0  0  0  0  0  0  0  0  0
   11.5034   36.3017    7.2633 C   0  0  0  0  0  0  0  0  0  0  0  0
   12.7049   39.3122    8.8793 C   0  0  0  0  0  0  0  0  0  0  0  0
   12.6876   43.7644    2.7381 O   0  0  0  0  0  0  0  0  0  0  0  0
   15.0310   44.8919    4.7682 O   0  0  0  0  0  0  0  0  0  0  0  0
   13.4244   33.2402    9.4124 O   0  0  0  0  0  0  0  0  0  0  0  0
   12.3060   39.3494    7.6830 O   0  0  0  0  0  0  0  0  0  0  0  0
   13.4938   43.3086    5.5725 N   0  0  0  0  0  0  0  0  0  0  0  0
   13.8129   40.1301    9.3101 N   0  0  0  0  0  0  0  0  0  0  0  0
   12.0598   38.4340    9.8220 N   0  0  0  0  0  0  0  0  0  0  0  0
   13.1129   31.3605    8.1188 F   0  0  0  0  0  0  0  0  0  0  0  0
   14.5611   31.3034    9.8404 F   0  0  0  0  0  0  0  0  0  0  0  0
   15.0725   32.4837    7.9943 F   0  0  0  0  0  0  0  0  0  0  0  0
  1 22  1  0
  2 22  1  0
  2  3  1  0
  3 26  1  0
  5  6  2  0
  6 27  1  0
  7  8  2  0
  9  4  2  0
 10 27  1  0
 10 11  1  0
 11 12  1  0
 12 28  1  0
 13 28  1  0
 13 14  1  0
 15 16  2  0
 16 24  1  0
 17 24  1  0
 17 29  1  0
 17 30  1  0
 17 31  1  0
 18 19  2  0
 20 14  2  0
 21 27  1  0
 26  4  1  0
 28 21  1  0
  3 23  2  0
  4  5  1  0
  6  7  1  0
  8  9  1  0
 14 15  1  0
 16 18  1  0
 19 20  1  0
 21 25  2  0
M  END
>  <rmsd>  (1) 
0.244109392

$$$$
