MolPort-007-723-467 6818306 ChemDiv-E157-5727 MCULE-9072842945 PubChem-22518023 ZINC000006818306 ZINC06818306
     RDKit          3D

 24 25  0  0  0  0  0  0  0  0999 V2000
   13.9896   43.4401    1.6753 C   0  0  0  0  0  0  0  0  0  0  0  0
   12.7721   43.6855    2.5470 C   0  0  0  0  0  0  0  0  0  0  0  0
   13.0424   44.8087    3.5358 C   0  0  0  0  0  0  0  0  0  0  0  0
   13.9256   44.3471    4.6458 C   0  0  0  0  0  0  0  0  0  0  0  0
   14.2257   42.7872    6.6258 C   0  0  0  0  0  0  0  0  0  0  0  0
   15.1059   41.6310    8.5197 C   0  0  0  0  0  0  0  0  0  0  0  0
   13.8360   39.6232   11.9163 C   0  0  0  0  0  0  0  0  0  0  0  0
   13.1898   38.5033   11.1207 C   0  0  0  0  0  0  0  0  0  0  0  0
   13.5358   42.0414   11.3314 C   0  0  0  0  0  0  0  0  0  0  0  0
   12.1368   42.1989   11.4620 C   0  0  0  0  0  0  0  0  0  0  0  0
   11.1921   41.0628   11.2713 C   0  0  0  0  0  0  0  0  0  0  0  0
   11.5990   43.4623   11.7280 C   0  0  0  0  0  0  0  0  0  0  0  0
   12.4340   44.5726   11.8657 C   0  0  0  0  0  0  0  0  0  0  0  0
   13.8149   44.4269   11.7307 C   0  0  0  0  0  0  0  0  0  0  0  0
   14.3605   43.1700   11.4633 C   0  0  0  0  0  0  0  0  0  0  0  0
   15.0571   44.8799    4.7956 O   0  0  0  0  0  0  0  0  0  0  0  0
   16.7122   41.1323   10.5882 O   0  0  0  0  0  0  0  0  0  0  0  0
   15.6435   39.2241    9.4834 O   0  0  0  0  0  0  0  0  0  0  0  0
   13.4715   43.3181    5.5322 N   0  0  0  0  0  0  0  0  0  0  0  0
   15.4718   43.1913    6.9587 N   0  0  0  0  0  0  0  0  0  0  0  0
   15.9612   42.5471    8.0162 N   0  0  0  0  0  0  0  0  0  0  0  0
   14.1314   40.7613   11.0529 N   0  0  0  0  0  0  0  0  0  0  0  0
   13.6614   41.5816    7.6546 S   0  0  0  0  0  0  0  0  0  0  0  0
   15.4527   40.6472    9.9271 S   0  0  0  0  0  0  0  0  0  0  0  0
  1  2  1  0
  2  3  1  0
  3  4  1  0
  4 19  1  0
  5 23  1  0
  6 23  1  0
  7 22  1  0
  7  8  1  0
 10 12  2  0
 11 10  1  0
 13 14  2  0
 15  9  2  0
 19  5  1  0
 20 21  1  0
 22  9  1  0
 24  6  1  0
 24 22  1  0
  4 16  2  0
  5 20  2  0
  6 21  2  0
  9 10  1  0
 12 13  1  0
 14 15  1  0
 24 17  2  0
 24 18  2  0
M  END
>  <rmsd>  (1) 
0.246058837

$$$$
