MolPort-010-852-084 MolPort-019-840-459 41076404 ChemDiv-G952-0634 MCULE-9438056820 PubChem-52095936 ZINC000041076404 ZINC41076404
     RDKit          3D

 24 28  0  0  0  0  0  0  0  0999 V2000
   14.0536   38.9986   11.9466 C   0  0  0  0  0  0  0  0  0  0  0  0
   13.1154   39.5619   10.8960 C   0  0  0  0  0  0  0  0  0  0  0  0
   13.6958   39.3698    9.5044 C   0  0  0  0  0  0  0  0  0  0  0  0
   14.7171   40.4157    9.1986 C   0  0  0  0  0  0  0  0  0  0  0  0
   15.7220   42.0251    8.2984 C   0  0  0  0  0  0  0  0  0  0  0  0
   14.2204   42.7221    6.6009 C   0  0  0  0  0  0  0  0  0  0  0  0
   13.8961   44.4024    4.6950 C   0  0  0  0  0  0  0  0  0  0  0  0
   12.9745   44.9073    3.6172 C   0  0  2  0  0  0  0  0  0  0  0  0
   13.3648   46.3346    3.1745 C   0  0  0  0  0  0  0  0  0  0  0  0
   12.4260   46.8239    2.0604 C   0  0  1  0  0  0  0  0  0  0  0  0
   12.5223   45.8677    0.8609 C   0  0  0  0  0  0  0  0  0  0  0  0
   12.1177   44.4474    1.2871 C   0  0  2  0  0  0  0  0  0  0  0  0
   10.6752   44.4684    1.8175 C   0  0  0  0  0  0  0  0  0  0  0  0
   10.5716   45.4190    3.0208 C   0  0  2  0  0  0  0  0  0  0  0  0
   10.9818   46.8344    2.5855 C   0  0  0  0  0  0  0  0  0  0  0  0
   11.5197   44.9368    4.1301 C   0  0  0  0  0  0  0  0  0  0  0  0
   13.0597   43.9659    2.4017 C   0  0  0  0  0  0  0  0  0  0  0  0
   15.9088   40.5715    9.8369 N   0  0  0  0  0  0  0  0  0  0  0  0
   16.5513   41.5988    9.2660 N   0  0  0  0  0  0  0  0  0  0  0  0
   13.4751   43.3141    5.5303 N   0  0  0  0  0  0  0  0  0  0  0  0
   13.7335   41.6658    7.3121 N   0  0  0  0  0  0  0  0  0  0  0  0
   14.6188   41.3322    8.2363 N   0  0  0  0  0  0  0  0  0  0  0  0
   15.7819   43.2389    7.1471 S   0  0  0  0  0  0  0  0  0  0  0  0
   15.0555   44.8857    4.8107 O   0  0  0  0  0  0  0  0  0  0  0  0
  1  2  1  0
  2  3  1  0
  3  4  1  0
  5 23  1  0
  6 23  1  0
  6 20  1  0
  8  7  1  1
  8  9  1  0
 10  9  1  1
 10 11  1  0
 12 11  1  1
 12 13  1  0
 12 17  1  0
 14 13  1  6
 14 15  1  0
 14 16  1  0
 15 10  1  0
 16  8  1  0
 17  8  1  0
 18 19  1  0
 20  7  1  0
 22 21  1  0
 22  4  1  0
 22  5  1  0
  4 18  2  0
  5 19  2  0
  6 21  2  0
  7 24  2  0
M  END
>  <rmsd>  (1) 
0.192970961

$$$$
