Molport-052-054-864 MCULE-6130002316
     RDKit          3D

 29 32  0  0  0  0  0  0  0  0999 V2000
   13.8798   44.3227    4.6871 C   0  0  0  0  0  0  0  0  0  0  0  0
   14.1876   42.7146    6.6350 C   0  0  0  0  0  0  0  0  0  0  0  0
   13.6236   41.6942    7.4000 C   0  0  0  0  0  0  0  0  0  0  0  0
   14.3679   41.1555    8.4494 C   0  0  0  0  0  0  0  0  0  0  0  0
   13.7838   40.0604    9.2787 C   0  0  2  0  0  0  0  0  0  0  0  0
   13.6717   40.4907   10.7430 C   0  0  0  0  0  0  0  0  0  0  0  0
   13.0697   39.3664   11.5835 C   0  0  0  0  0  0  0  0  0  0  0  0
   13.9262   38.1095   11.4634 C   0  0  0  0  0  0  0  0  0  0  0  0
   14.6217   38.7880    9.1553 C   0  0  0  0  0  0  0  0  0  0  0  0
   13.7094   36.4759    9.5577 C   0  0  0  0  0  0  0  0  0  0  0  0
   12.8353   34.3103    9.9529 C   0  0  0  0  0  0  0  0  0  0  0  0
   12.9734   33.9948    8.6027 C   0  0  0  0  0  0  0  0  0  0  0  0
   13.4927   34.9644    7.7468 C   0  0  0  0  0  0  0  0  0  0  0  0
   13.6502   34.6788    6.3491 C   0  0  0  0  0  0  0  0  0  0  0  0
   16.1537   42.6237    7.9509 C   0  0  0  0  0  0  0  0  0  0  0  0
   17.5202   43.1266    8.2468 C   0  0  0  0  0  0  0  0  0  0  0  0
   14.1485   46.0392    2.9772 C   0  0  0  0  0  0  0  0  0  0  0  0
   15.2403   45.8808    3.8257 C   0  0  0  0  0  0  0  0  0  0  0  0
   16.4897   46.6842    3.7204 C   0  0  0  0  0  0  0  0  0  0  0  0
   14.0360   47.0064    1.8506 C   0  0  0  0  0  0  0  0  0  0  0  0
   13.4337   43.2759    5.5552 N   0  0  0  0  0  0  0  0  0  0  0  0
   14.0904   37.7667   10.0534 N   0  0  0  0  0  0  0  0  0  0  0  0
   13.2031   35.5374   10.4049 N   0  0  0  0  0  0  0  0  0  0  0  0
   13.8495   36.1804    8.2356 N   0  0  0  0  0  0  0  0  0  0  0  0
   13.7775   34.4490    5.2220 N   0  0  0  0  0  0  0  0  0  0  0  0
   15.6180   41.6291    8.7050 N   0  0  0  0  0  0  0  0  0  0  0  0
   15.4408   43.1588    6.9256 N   0  0  0  0  0  0  0  0  0  0  0  0
   15.0880   44.9233    4.7780 N   0  0  0  0  0  0  0  0  0  0  0  0
   12.9528   44.9474    3.4309 S   0  0  0  0  0  0  0  0  0  0  0  0
  1 21  1  0
  1 29  1  0
  2 27  2  0
  3  4  2  0
  5  4  1  6
  5  6  1  0
  6  7  1  0
  7  8  1  0
  8 22  1  0
  9 22  1  0
  9  5  1  0
 10 24  2  0
 11 23  2  0
 12 13  2  0
 13 14  1  0
 15 26  2  0
 16 15  1  0
 17 29  1  0
 18 28  1  0
 19 18  1  0
 20 17  1  0
 21  2  1  0
 22 10  1  0
  1 28  2  0
  2  3  1  0
  4 26  1  0
 10 23  1  0
 11 12  1  0
 13 24  1  0
 15 27  1  0
 17 18  2  0
 14 25  3  0
M  END
>  <rmsd>  (1) 
0.246786535

$$$$
