MolPort-002-981-687 MolPort-046-846-370 6204347 CSSS02125562603 ChemDiv-F019-5747 MCULE-4413014932 MCULE-9982046585 PubChem-163328878 PubChem-4239369 ZINC000006204347 ZINC06204347
     RDKit          3D

 21 22  0  0  0  0  0  0  0  0999 V2000
   13.1868   38.6223   11.0191 C   0  0  0  0  0  0  0  0  0  0  0  0
   13.8148   39.9200   11.4917 C   0  0  0  0  0  0  0  0  0  0  0  0
   13.8008   40.9519   10.3784 C   0  0  0  0  0  0  0  0  0  0  0  0
   14.8734   40.6363    9.3490 C   0  0  0  0  0  0  0  0  0  0  0  0
   14.2626   42.7762    6.6382 C   0  0  0  0  0  0  0  0  0  0  0  0
   13.9094   44.3499    4.6805 C   0  0  0  0  0  0  0  0  0  0  0  0
   13.0074   44.7950    3.5862 C   0  0  0  0  0  0  0  0  0  0  0  0
   12.4746   44.1361    1.2625 C   0  0  0  0  0  0  0  0  0  0  0  0
   12.7186   43.2704    0.1906 C   0  0  0  0  0  0  0  0  0  0  0  0
   12.0173   43.4181   -1.0100 C   0  0  0  0  0  0  0  0  0  0  0  0
   12.2827   42.4944   -2.1433 C   0  0  0  0  0  0  0  0  0  0  0  0
   11.0670   44.4341   -1.1446 C   0  0  0  0  0  0  0  0  0  0  0  0
   10.8172   45.3031   -0.0787 C   0  0  0  0  0  0  0  0  0  0  0  0
   11.5182   45.1555    1.1217 C   0  0  0  0  0  0  0  0  0  0  0  0
   14.8438   41.6209    8.2810 N   0  0  0  0  0  0  0  0  0  0  0  0
   15.8398   42.4453    8.0062 N   0  0  0  0  0  0  0  0  0  0  0  0
   15.5017   43.1946    6.9691 N   0  0  0  0  0  0  0  0  0  0  0  0
   13.4843   43.3043    5.5602 N   0  0  0  0  0  0  0  0  0  0  0  0
   13.8333   41.7894    7.4453 N   0  0  0  0  0  0  0  0  0  0  0  0
   15.0480   44.8757    4.7977 O   0  0  0  0  0  0  0  0  0  0  0  0
   13.1917   43.9623    2.4490 O   0  0  0  0  0  0  0  0  0  0  0  0
  1  2  1  0
  2  3  1  0
  3  4  1  0
  4 15  1  0
  5 17  1  0
  5 18  1  0
  7  6  1  0
  7 21  1  0
  8 21  1  0
  9 10  2  0
 11 10  1  0
 12 13  2  0
 14  8  2  0
 15 16  1  0
 15 19  1  0
 18  6  1  0
  5 19  2  0
  6 20  2  0
  8  9  1  0
 10 12  1  0
 13 14  1  0
 16 17  2  0
M  END
>  <rmsd>  (1) 
0.162634179

$$$$
