MolPort-002-859-470 CSSS00138420674 MCULE-7654401932
     RDKit          3D

 26 28  0  0  0  0  0  0  0  0999 V2000
   16.6921   46.4904    4.0206 C   0  0  0  0  0  0  0  0  0  0  0  0
   13.9016   44.3150    4.6731 C   0  0  0  0  0  0  0  0  0  0  0  0
   14.2432   42.7816    6.6785 C   0  0  0  0  0  0  0  0  0  0  0  0
   15.7510   42.4493    8.0726 C   0  0  0  0  0  0  0  0  0  0  0  0
   17.0089   41.6115    9.8574 C   0  0  0  0  0  0  0  0  0  0  0  0
   15.9626   40.7253   10.1804 C   0  0  0  0  0  0  0  0  0  0  0  0
   14.7911   40.7426    9.4013 C   0  0  0  0  0  0  0  0  0  0  0  0
   13.6419   39.8032    9.6560 C   0  0  2  0  0  0  0  0  0  0  0  0
   13.5236   39.3324   11.1006 C   0  0  0  0  0  0  0  0  0  0  0  0
   14.5739   37.6865    8.6570 C   0  0  0  0  0  0  0  0  0  0  0  0
   15.6484   37.5991    9.5556 C   0  0  0  0  0  0  0  0  0  0  0  0
   16.5758   36.5596    9.4503 C   0  0  0  0  0  0  0  0  0  0  0  0
   16.4428   35.5912    8.4462 C   0  0  0  0  0  0  0  0  0  0  0  0
   15.3674   35.6782    7.5498 C   0  0  0  0  0  0  0  0  0  0  0  0
   14.4407   36.7190    7.6564 C   0  0  0  0  0  0  0  0  0  0  0  0
   15.4273   45.8663    3.8971 O   0  0  0  0  0  0  0  0  0  0  0  0
   13.6218   38.7145    8.7285 O   0  0  0  0  0  0  0  0  0  0  0  0
   18.4494   34.4457    9.2228 O   0  0  0  0  0  0  0  0  0  0  0  0
   17.2836   33.6595    7.4481 O   0  0  0  0  0  0  0  0  0  0  0  0
   15.0558   44.8854    4.7848 N   0  0  0  0  0  0  0  0  0  0  0  0
   13.4791   43.2891    5.5788 N   0  0  0  0  0  0  0  0  0  0  0  0
   13.7770   41.8058    7.4945 N   0  0  0  0  0  0  0  0  0  0  0  0
   14.7494   41.6174    8.3642 N   0  0  0  0  0  0  0  0  0  0  0  0
   15.4895   43.2213    7.0045 N   0  0  0  0  0  0  0  0  0  0  0  0
   16.8927   42.4695    8.8019 N   0  0  0  0  0  0  0  0  0  0  0  0
   17.3965   34.5256    8.3403 N   0  0  0  0  0  0  0  0  0  0  0  0
  1 16  1  0
  2 21  1  0
  3 24  1  0
  4 25  1  0
  5  6  1  0
  7 23  1  0
  8  7  1  0
  8  9  1  1
  8 17  1  0
 10 17  1  0
 11 12  2  0
 13 14  2  0
 13 26  1  0
 15 10  2  0
 16 20  1  0
 21  3  1  0
 23 22  1  0
 23  4  1  0
 26 18  1  0
  2 20  2  0
  3 22  2  0
  4 24  2  0
  5 25  2  0
  6  7  2  0
 10 11  1  0
 12 13  1  0
 14 15  1  0
 26 19  2  0
M  CHG  2  18  -1  26   1
M  END
>  <rmsd>  (1) 
0.193882823

$$$$
