MolPort-007-723-531 6818343 ChemDiv-E157-6114 MCULE-9466694236 PubChem-22518071 ZINC000006818343 ZINC06818343
     RDKit          3D

 25 26  0  0  0  0  0  0  0  0999 V2000
   11.0377   46.2339    3.0785 C   0  0  0  0  0  0  0  0  0  0  0  0
   11.7468   45.3895    4.1207 C   0  0  0  0  0  0  0  0  0  0  0  0
   13.0290   44.8050    3.5489 C   0  0  0  0  0  0  0  0  0  0  0  0
   12.7114   43.6568    2.5982 C   0  0  0  0  0  0  0  0  0  0  0  0
   13.9103   43.3447    1.7222 C   0  0  0  0  0  0  0  0  0  0  0  0
   13.9160   44.3432    4.6608 C   0  0  0  0  0  0  0  0  0  0  0  0
   14.2363   42.7836    6.6398 C   0  0  0  0  0  0  0  0  0  0  0  0
   15.1333   41.6327    8.5291 C   0  0  0  0  0  0  0  0  0  0  0  0
   13.5194   39.2671   11.2320 C   0  0  0  0  0  0  0  0  0  0  0  0
   13.5456   41.7624   11.5566 C   0  0  0  0  0  0  0  0  0  0  0  0
   12.3911   41.6857   12.3544 C   0  0  0  0  0  0  0  0  0  0  0  0
   11.8359   42.8382   12.9174 C   0  0  0  0  0  0  0  0  0  0  0  0
   10.6148   42.7399   13.7582 C   0  0  0  0  0  0  0  0  0  0  0  0
   12.4286   44.0822   12.6893 C   0  0  0  0  0  0  0  0  0  0  0  0
   13.5764   44.1734   11.8989 C   0  0  0  0  0  0  0  0  0  0  0  0
   14.1309   43.0204   11.3368 C   0  0  0  0  0  0  0  0  0  0  0  0
   15.0503   44.8729    4.7997 O   0  0  0  0  0  0  0  0  0  0  0  0
   16.6598   41.2300   10.6809 O   0  0  0  0  0  0  0  0  0  0  0  0
   15.8683   39.2616    9.4621 O   0  0  0  0  0  0  0  0  0  0  0  0
   13.4733   43.3097    5.5503 N   0  0  0  0  0  0  0  0  0  0  0  0
   15.4814   43.1956    6.9664 N   0  0  0  0  0  0  0  0  0  0  0  0
   15.9805   42.5537    8.0210 N   0  0  0  0  0  0  0  0  0  0  0  0
   14.1134   40.5718   10.9740 N   0  0  0  0  0  0  0  0  0  0  0  0
   13.6853   41.5736    7.6706 S   0  0  0  0  0  0  0  0  0  0  0  0
   15.4997   40.6427    9.9269 S   0  0  0  0  0  0  0  0  0  0  0  0
  1  2  1  0
  2  3  1  0
  3  4  1  0
  3  6  1  0
  4  5  1  0
  6 20  1  0
  7 24  1  0
  8 24  1  0
  9 23  1  0
 11 12  2  0
 13 12  1  0
 14 15  2  0
 16 10  2  0
 20  7  1  0
 21 22  1  0
 23 10  1  0
 25  8  1  0
 25 23  1  0
  6 17  2  0
  7 21  2  0
  8 22  2  0
 10 11  1  0
 12 14  1  0
 15 16  1  0
 25 18  2  0
 25 19  2  0
M  END
>  <rmsd>  (1) 
0.199695021

$$$$
