Molport-047-042-891 MCULE-9701418706 PubChem-132765288
     RDKit          3D

 25 27  0  0  0  0  0  0  0  0999 V2000
   14.9496   40.8830   12.5584 C   0  0  0  0  0  0  0  0  0  0  0  0
   17.1237   41.9093   11.7278 C   0  0  0  0  0  0  0  0  0  0  0  0
   18.0478   42.1010   10.5770 C   0  0  0  0  0  0  0  0  0  0  0  0
   18.4541   44.2304    9.6984 C   0  0  0  0  0  0  0  0  0  0  0  0
   18.5844   44.7317    8.2828 C   0  0  0  0  0  0  0  0  0  0  0  0
   18.3296   43.5143    7.4382 C   0  0  0  0  0  0  0  0  0  0  0  0
   17.5424   42.5665    8.3308 C   0  0  2  0  0  0  0  0  0  0  0  0
   16.1405   42.3492    7.8363 C   0  0  0  0  0  0  0  0  0  0  0  0
   15.3158   41.3650    8.3857 C   0  0  0  0  0  0  0  0  0  0  0  0
   14.3245   42.7070    6.5727 C   0  0  0  0  0  0  0  0  0  0  0  0
   13.8814   44.3773    4.7158 C   0  0  0  0  0  0  0  0  0  0  0  0
   12.9154   44.9015    3.7160 C   0  0  0  0  0  0  0  0  0  0  0  0
   14.9364   41.3467   13.8600 C   0  0  0  0  0  0  0  0  0  0  0  0
   13.7998   40.1447   12.3957 C   0  0  0  0  0  0  0  0  0  0  0  0
   13.3619   39.4454   11.1572 C   0  0  0  0  0  0  0  0  0  0  0  0
   13.3770   41.1182   15.7777 C   0  0  0  0  0  0  0  0  0  0  0  0
   15.9451   41.1159   11.5561 N   0  0  0  0  0  0  0  0  0  0  0  0
   17.5143   43.1178    9.6845 N   0  0  0  0  0  0  0  0  0  0  0  0
   13.4906   43.3003    5.5731 N   0  0  0  0  0  0  0  0  0  0  0  0
   15.5907   43.0892    6.8322 N   0  0  0  0  0  0  0  0  0  0  0  0
   13.8008   40.8741   14.4121 N   0  0  0  0  0  0  0  0  0  0  0  0
   13.1059   40.1508   13.5467 N   0  0  0  0  0  0  0  0  0  0  0  0
   17.3738   42.4747   12.8251 O   0  0  0  0  0  0  0  0  0  0  0  0
   15.0298   44.8882    4.7947 O   0  0  0  0  0  0  0  0  0  0  0  0
   13.8453   41.4496    7.5669 S   0  0  0  0  0  0  0  0  0  0  0  0
  1 17  1  0
  3  2  1  0
  3 18  1  0
  4 18  1  0
  4  5  1  0
  5  6  1  0
  6  7  1  0
  7  8  1  6
  7 18  1  0
  8 20  1  0
  9 25  1  0
 10 25  1  0
 10 19  1  0
 12 11  1  0
 13 21  1  0
 14  1  1  0
 15 14  1  0
 16 21  1  0
 17  2  1  0
 19 11  1  0
 21 22  1  0
  1 13  2  0
  2 23  2  0
  8  9  2  0
 10 20  2  0
 11 24  2  0
 14 22  2  0
M  END
>  <rmsd>  (1) 
0.229908854

$$$$
