MolPort-047-177-047 306144065 LN01336858 MCULE-1155020106 MCULE-6648016997 PubChem-124247674 PubChem-155828265 ZINC000306144065
     RDKit          3D

 31 35  0  0  0  0  0  0  0  0999 V2000
   18.8073   35.0500   15.9667 C   0  0  0  0  0  0  0  0  0  0  0  0
   20.7816   34.9643   14.6904 C   0  0  0  0  0  0  0  0  0  0  0  0
   18.9235   36.1772   13.8353 C   0  0  0  0  0  0  0  0  0  0  0  0
   19.2441   37.5230   14.5348 C   0  0  0  0  0  0  0  0  0  0  0  0
   18.0469   38.4722   14.5695 C   0  0  0  0  0  0  0  0  0  0  0  0
   17.2847   39.7865   12.5832 C   0  0  0  0  0  0  0  0  0  0  0  0
   16.2364   40.0366   11.5755 C   0  0  0  0  0  0  0  0  0  0  0  0
   15.2035   40.8758    9.8865 C   0  0  0  0  0  0  0  0  0  0  0  0
   14.9503   41.6895    8.6818 C   0  0  0  0  0  0  0  0  0  0  0  0
   15.8594   42.5914    8.1337 C   0  0  0  0  0  0  0  0  0  0  0  0
   14.1734   42.8279    6.6683 C   0  0  0  0  0  0  0  0  0  0  0  0
   13.9525   44.3072    4.6160 C   0  0  0  0  0  0  0  0  0  0  0  0
   13.1115   44.7199    3.4522 C   0  0  0  0  0  0  0  0  0  0  0  0
   13.8635   44.4720    2.1568 C   0  0  0  0  0  0  0  0  0  0  0  0
   12.7830   43.5103    2.5958 C   0  0  0  0  0  0  0  0  0  0  0  0
   13.0275   39.7504   10.1694 C   0  0  0  0  0  0  0  0  0  0  0  0
   12.3286   38.8675   11.0046 C   0  0  0  0  0  0  0  0  0  0  0  0
   12.9740   38.3221   12.1293 C   0  0  0  0  0  0  0  0  0  0  0  0
   14.3079   38.6509   12.4130 C   0  0  0  0  0  0  0  0  0  0  0  0
   14.9566   39.5182   11.5340 C   0  0  0  0  0  0  0  0  0  0  0  0
   17.0698   37.2791   12.5550 C   0  0  0  0  0  0  0  0  0  0  0  0
   17.4693   36.0511   13.3702 C   0  0  0  0  0  0  0  0  0  0  0  0
   19.3299   34.9940   14.6062 N   0  0  0  0  0  0  0  0  0  0  0  0
   17.4056   38.5238   13.2559 N   0  0  0  0  0  0  0  0  0  0  0  0
   16.3874   40.9036   10.5467 N   0  0  0  0  0  0  0  0  0  0  0  0
   15.4187   43.2225    7.0125 N   0  0  0  0  0  0  0  0  0  0  0  0
   13.4615   43.3170    5.5280 N   0  0  0  0  0  0  0  0  0  0  0  0
   14.3191   40.0405   10.4751 N   0  0  0  0  0  0  0  0  0  0  0  0
   18.1053   40.7084   12.8409 O   0  0  0  0  0  0  0  0  0  0  0  0
   15.0668   44.8650    4.8080 O   0  0  0  0  0  0  0  0  0  0  0  0
   13.5592   41.6823    7.7283 S   0  0  0  0  0  0  0  0  0  0  0  0
  1 23  1  0
  2 23  1  0
  3 23  1  0
  3  4  1  0
  4  5  1  0
  5 24  1  0
  6  7  1  0
  7 25  1  0
  8  9  1  0
  8 28  1  0
  9 31  1  0
 10 26  1  0
 11 27  1  0
 11 31  1  0
 13 12  1  0
 13 14  1  0
 14 15  1  0
 15 13  1  0
 17 18  1  0
 19 20  1  0
 20 28  1  0
 21 24  1  0
 21 22  1  0
 22  3  1  0
 24  6  1  0
 27 12  1  0
 28 16  1  0
  6 29  2  0
  8 25  2  0
  9 10  2  0
 11 26  2  0
 12 30  2  0
 16 17  2  0
 18 19  2  0
 20  7  2  0
M  END
>  <rmsd>  (1) 
0.247691035

$$$$
