MolPort-002-004-927 CHEMBL1572894 CSSS00159746572 MCULE-2537895063 PubChem-2943507
     RDKit          3D

 17 18  0  0  0  0  0  0  0  0999 V2000
   13.2783   39.3933   11.0925 C   0  0  0  0  0  0  0  0  0  0  0  0
   13.6291   40.6143   10.2692 C   0  0  2  0  0  0  0  0  0  0  0  0
   14.7250   40.2558    9.2794 C   0  0  0  0  0  0  0  0  0  0  0  0
   14.9283   41.3532    8.2901 C   0  0  0  0  0  0  0  0  0  0  0  0
   14.3403   42.7200    6.6080 C   0  0  0  0  0  0  0  0  0  0  0  0
   13.8743   44.3651    4.7107 C   0  0  0  0  0  0  0  0  0  0  0  0
   12.9051   44.8499    3.7219 C   0  0  0  0  0  0  0  0  0  0  0  0
   11.6182   44.3658    3.5455 C   0  0  0  0  0  0  0  0  0  0  0  0
   10.9252   45.0273    2.5212 C   0  0  0  0  0  0  0  0  0  0  0  0
   11.6540   46.0308    1.8864 C   0  0  0  0  0  0  0  0  0  0  0  0
   14.0684   41.6314   11.1175 O   0  0  0  0  0  0  0  0  0  0  0  0
   15.0176   44.8913    4.7708 O   0  0  0  0  0  0  0  0  0  0  0  0
   16.1126   42.0225    8.2184 N   0  0  0  0  0  0  0  0  0  0  0  0
   13.5087   43.2989    5.5961 N   0  0  0  0  0  0  0  0  0  0  0  0
   13.9400   41.7164    7.4131 N   0  0  0  0  0  0  0  0  0  0  0  0
   15.9053   43.1297    6.9970 S   0  0  0  0  0  0  0  0  0  0  0  0
   13.1690   46.0828    2.6160 S   0  0  0  0  0  0  0  0  0  0  0  0
  2  1  1  1
  2 11  1  0
  2  3  1  0
  3  4  1  0
  4 15  1  0
  5 16  1  0
  5 14  1  0
  6  7  1  0
  7 17  1  0
  8  9  1  0
 10 17  1  0
 13 16  1  0
 14  6  1  0
  4 13  2  0
  5 15  2  0
  6 12  2  0
  7  8  2  0
  9 10  2  0
M  END
>  <rmsd>  (1) 
0.238401219

$$$$
