MolPort-005-296-499 11695057 CSSS00106588480 MCULE-9651725630 PKTADVUQVLQCER-UHFFFAOYSA-N PubChem-42110475 ZINC000011695057 ZINC11695057
     RDKit          3D

 28 31  0  0  0  0  0  0  0  0999 V2000
   10.9962   43.4740    4.0397 C   0  0  0  0  0  0  0  0  0  0  0  0
   12.1876   46.1566    2.0310 C   0  0  0  0  0  0  0  0  0  0  0  0
   13.3257   45.9873    2.8086 C   0  0  0  0  0  0  0  0  0  0  0  0
   12.9987   44.9471    3.6600 C   0  0  0  0  0  0  0  0  0  0  0  0
   13.8979   44.3915    4.6907 C   0  0  0  0  0  0  0  0  0  0  0  0
   14.2529   42.6985    6.5514 C   0  0  0  0  0  0  0  0  0  0  0  0
   16.0344   42.3167    7.8750 C   0  0  0  0  0  0  0  0  0  0  0  0
   15.1571   41.3368    8.3767 C   0  0  0  0  0  0  0  0  0  0  0  0
   15.4608   40.2698    9.3534 C   0  0  0  0  0  0  0  0  0  0  0  0
   14.4765   39.8355   10.3696 C   0  0  0  0  0  0  0  0  0  0  0  0
   14.7161   38.6775   11.1256 C   0  0  0  0  0  0  0  0  0  0  0  0
   13.8041   38.2653   12.1016 C   0  0  0  0  0  0  0  0  0  0  0  0
   12.6457   39.0106   12.3345 C   0  0  0  0  0  0  0  0  0  0  0  0
   12.4004   40.1691   11.5935 C   0  0  0  0  0  0  0  0  0  0  0  0
   13.3129   40.5806   10.6179 C   0  0  0  0  0  0  0  0  0  0  0  0
   17.3907   42.6022    8.3927 C   0  0  0  0  0  0  0  0  0  0  0  0
   17.7382   42.3272    9.7243 C   0  0  0  0  0  0  0  0  0  0  0  0
   19.0128   42.6402   10.2049 C   0  0  0  0  0  0  0  0  0  0  0  0
   19.9488   43.2424    9.3606 C   0  0  0  0  0  0  0  0  0  0  0  0
   19.6082   43.5356    8.0378 C   0  0  0  0  0  0  0  0  0  0  0  0
   18.3333   43.2216    7.5583 C   0  0  0  0  0  0  0  0  0  0  0  0
   11.7438   44.5382    3.3903 N   0  0  0  0  0  0  0  0  0  0  0  0
   11.2484   45.2652    2.4071 N   0  0  0  0  0  0  0  0  0  0  0  0
   13.4661   43.3106    5.5255 N   0  0  0  0  0  0  0  0  0  0  0  0
   15.5151   43.0637    6.8603 N   0  0  0  0  0  0  0  0  0  0  0  0
   15.0523   44.8796    4.8287 O   0  0  0  0  0  0  0  0  0  0  0  0
   16.5821   39.6956    9.2977 O   0  0  0  0  0  0  0  0  0  0  0  0
   13.7148   41.4324    7.5063 S   0  0  0  0  0  0  0  0  0  0  0  0
  1 22  1  0
  2  3  1  0
  4  5  1  0
  4 22  1  0
  5 24  1  0
  6 28  1  0
  7 25  1  0
  7 16  1  0
  8 28  1  0
  8  9  1  0
  9 10  1  0
 11 12  2  0
 13 14  2  0
 15 10  2  0
 17 18  2  0
 19 20  2  0
 21 16  2  0
 22 23  1  0
 24  6  1  0
  2 23  2  0
  3  4  2  0
  5 26  2  0
  6 25  2  0
  7  8  2  0
  9 27  2  0
 10 11  1  0
 12 13  1  0
 14 15  1  0
 16 17  1  0
 18 19  1  0
 20 21  1  0
M  END
>  <rmsd>  (1) 
0.217482209

$$$$
