MolPort-007-710-788 ChemDiv-D481-2654 MCULE-8647870878 PubChem-46269941 ZINC000033019576 ZINC33019576
     RDKit          3D

 29 31  0  0  0  0  0  0  0  0999 V2000
   20.8778   33.3559   11.8038 C   0  0  0  0  0  0  0  0  0  0  0  0
   21.2343   34.6227   11.0507 C   0  0  0  0  0  0  0  0  0  0  0  0
   21.1262   35.8280   11.9697 C   0  0  0  0  0  0  0  0  0  0  0  0
   18.8293   36.6539   11.2928 C   0  0  0  0  0  0  0  0  0  0  0  0
   17.4065   36.8923   11.6596 C   0  0  0  0  0  0  0  0  0  0  0  0
   17.2083   39.4717   11.2132 C   0  0  0  0  0  0  0  0  0  0  0  0
   16.5531   40.7090    9.6249 C   0  0  0  0  0  0  0  0  0  0  0  0
   14.7309   39.6084   10.9779 C   0  0  0  0  0  0  0  0  0  0  0  0
   13.8539   40.6644   11.2641 C   0  0  0  0  0  0  0  0  0  0  0  0
   12.5377   40.4010   11.6541 C   0  0  0  0  0  0  0  0  0  0  0  0
   12.0926   39.0811   11.7654 C   0  0  0  0  0  0  0  0  0  0  0  0
   12.9633   38.0236   11.4870 C   0  0  0  0  0  0  0  0  0  0  0  0
   14.2792   38.2864   11.0956 C   0  0  0  0  0  0  0  0  0  0  0  0
   15.7474   41.3909    8.5887 C   0  0  0  0  0  0  0  0  0  0  0  0
   16.2899   42.4832    7.8989 C   0  0  0  0  0  0  0  0  0  0  0  0
   15.5564   43.1226    6.8957 C   0  0  0  0  0  0  0  0  0  0  0  0
   14.2713   42.6721    6.5603 C   0  0  0  0  0  0  0  0  0  0  0  0
   13.8802   44.4103    4.7179 C   0  0  0  0  0  0  0  0  0  0  0  0
   12.9087   44.9785    3.7478 C   0  0  0  0  0  0  0  0  0  0  0  0
   13.7357   41.5723    7.2364 C   0  0  0  0  0  0  0  0  0  0  0  0
   14.4697   40.9332    8.2390 C   0  0  0  0  0  0  0  0  0  0  0  0
   19.7321   36.1260   12.2672 N   0  0  0  0  0  0  0  0  0  0  0  0
   18.3072   40.0290   10.6740 N   0  0  0  0  0  0  0  0  0  0  0  0
   17.8982   40.7997    9.6775 N   0  0  0  0  0  0  0  0  0  0  0  0
   16.0853   39.8773   10.5858 N   0  0  0  0  0  0  0  0  0  0  0  0
   13.4830   43.3110    5.5471 N   0  0  0  0  0  0  0  0  0  0  0  0
   19.2328   36.9458   10.1350 O   0  0  0  0  0  0  0  0  0  0  0  0
   15.0373   44.9016    4.7917 O   0  0  0  0  0  0  0  0  0  0  0  0
   17.2569   38.4064   12.6561 S   0  0  0  0  0  0  0  0  0  0  0  0
  1  2  1  0
  2  3  1  0
  3 22  1  0
  5  4  1  0
  5 29  1  0
  6 29  1  0
  7 25  1  0
  7 14  1  0
  9 10  2  0
 11 12  2  0
 13  8  2  0
 15 16  2  0
 17 26  1  0
 17 20  2  0
 19 18  1  0
 21 14  2  0
 22  4  1  0
 23 24  1  0
 25  8  1  0
 25  6  1  0
 26 18  1  0
  4 27  2  0
  6 23  2  0
  7 24  2  0
  8  9  1  0
 10 11  1  0
 12 13  1  0
 14 15  1  0
 16 17  1  0
 18 28  2  0
 20 21  1  0
M  END
>  <rmsd>  (1) 
0.243418917

$$$$
