Molport-052-054-894
     RDKit          3D

 25 27  0  0  0  0  0  0  0  0999 V2000
   12.3770   42.0243   10.3089 C   0  0  0  0  0  0  0  0  0  0  0  0
   13.7066   41.2848   10.0451 C   0  0  2  0  0  0  0  0  0  0  0  0
   13.3999   39.2465   11.3804 C   0  0  0  0  0  0  0  0  0  0  0  0
   12.5373   39.3022    9.0988 C   0  0  0  0  0  0  0  0  0  0  0  0
   12.9023   37.9305    8.6213 C   0  0  0  0  0  0  0  0  0  0  0  0
   12.2363   36.7765    9.0281 C   0  0  0  0  0  0  0  0  0  0  0  0
   14.1218   36.4178    7.4975 C   0  0  0  0  0  0  0  0  0  0  0  0
   15.1460   35.9061    6.5436 C   0  0  0  0  0  0  0  0  0  0  0  0
   14.3825   41.7507    8.7792 C   0  0  0  0  0  0  0  0  0  0  0  0
   14.2588   42.7057    6.6085 C   0  0  0  0  0  0  0  0  0  0  0  0
   13.9083   44.2618    4.6373 C   0  0  0  0  0  0  0  0  0  0  0  0
   15.2335   45.8508    3.7694 C   0  0  0  0  0  0  0  0  0  0  0  0
   14.1798   45.9152    2.8650 C   0  0  0  0  0  0  0  0  0  0  0  0
   14.1070   46.8136    1.6765 C   0  0  0  0  0  0  0  0  0  0  0  0
   15.6302   42.4752    6.4298 C   0  0  0  0  0  0  0  0  0  0  0  0
   16.3542   41.8908    7.4733 C   0  0  0  0  0  0  0  0  0  0  0  0
   17.8115   41.5952    7.3131 C   0  0  0  0  0  0  0  0  0  0  0  0
   13.5741   39.8047   10.0267 N   0  0  0  0  0  0  0  0  0  0  0  0
   13.9445   37.7280    7.7698 N   0  0  0  0  0  0  0  0  0  0  0  0
   13.6676   42.3189    7.7696 N   0  0  0  0  0  0  0  0  0  0  0  0
   13.4483   43.2758    5.5704 N   0  0  0  0  0  0  0  0  0  0  0  0
   15.0738   44.9361    4.7619 N   0  0  0  0  0  0  0  0  0  0  0  0
   15.7143   41.5316    8.6168 N   0  0  0  0  0  0  0  0  0  0  0  0
   12.9800   35.4659    8.2821 S   0  0  0  0  0  0  0  0  0  0  0  0
   13.0143   44.7862    3.3118 S   0  0  0  0  0  0  0  0  0  0  0  0
  2  1  1  6
  2 18  1  0
  2  9  1  0
  3 18  1  0
  4 18  1  0
  4  5  1  0
  5 19  1  0
  6 24  1  0
  7 24  1  0
  8  7  1  0
  9 23  2  0
 10 20  2  0
 10 21  1  0
 11 25  1  0
 12 22  1  0
 13 25  1  0
 14 13  1  0
 15 16  2  0
 17 16  1  0
 21 11  1  0
  5  6  2  0
  7 19  2  0
  9 20  1  0
 10 15  1  0
 11 22  2  0
 12 13  2  0
 16 23  1  0
M  END
>  <rmsd>  (1) 
0.241975456

$$$$
