MolPort-047-015-083 MCULE-6651060413 PubChem-155985066
     RDKit          3D

 28 31  0  0  0  0  0  0  0  0999 V2000
   16.0456   37.0382   10.0587 S   0  0  0  0  0  0  0  0  0  0  0  0
   12.9400   44.9175    3.4307 S   0  0  0  0  0  0  0  0  0  0  0  0
   16.9729   37.2523    8.8950 O   0  0  0  0  0  0  0  0  0  0  0  0
   15.1508   35.8667    9.7578 O   0  0  0  0  0  0  0  0  0  0  0  0
   15.0969   38.4657   10.3229 N   0  0  0  0  0  0  0  0  0  0  0  0
   13.6147   41.7203    7.3995 N   0  0  0  0  0  0  0  0  0  0  0  0
   13.4442   43.2744    5.5695 N   0  0  0  0  0  0  0  0  0  0  0  0
   15.0822   44.9285    4.7633 N   0  0  0  0  0  0  0  0  0  0  0  0
   17.6696   35.8265   13.3570 N   0  0  0  0  0  0  0  0  0  0  0  0
   18.1468   37.3324   11.7930 N   0  0  0  0  0  0  0  0  0  0  0  0
   14.1586   38.1862   11.4170 C   0  0  0  0  0  0  0  0  0  0  0  0
   13.0666   39.2617   11.5555 C   0  0  0  0  0  0  0  0  0  0  0  0
   13.3419   40.4765   10.6718 C   0  0  0  0  0  0  0  0  0  0  0  0
   13.5692   40.0530    9.2150 C   0  0  1  0  0  0  0  0  0  0  0  0
   14.2566   41.1381    8.4487 C   0  0  0  0  0  0  0  0  0  0  0  0
   15.5482   41.5592    8.7928 C   0  0  0  0  0  0  0  0  0  0  0  0
   16.1559   42.5719    8.0519 C   0  0  0  0  0  0  0  0  0  0  0  0
   15.4756   43.1521    6.9814 C   0  0  0  0  0  0  0  0  0  0  0  0
   14.1848   42.7106    6.6600 C   0  0  0  0  0  0  0  0  0  0  0  0
   13.8791   44.3162    4.6873 C   0  0  0  0  0  0  0  0  0  0  0  0
   14.1301   46.0100    2.9660 C   0  0  0  0  0  0  0  0  0  0  0  0
   15.2306   45.8790    3.8022 C   0  0  0  0  0  0  0  0  0  0  0  0
   14.0196   46.9672    1.8349 C   0  0  0  0  0  0  0  0  0  0  0  0
   14.3355   38.7267    9.1017 C   0  0  0  0  0  0  0  0  0  0  0  0
   17.0021   36.6902   11.4864 C   0  0  0  0  0  0  0  0  0  0  0  0
   16.6875   35.7533   12.4465 C   0  0  0  0  0  0  0  0  0  0  0  0
   18.5361   36.7736   12.9568 C   0  0  0  0  0  0  0  0  0  0  0  0
   17.7765   35.0273   14.5625 C   0  0  0  0  0  0  0  0  0  0  0  0
  1  5  1  0
  1 25  1  0
  7 20  1  0
  9 27  1  0
 11  5  1  0
 11 12  1  0
 12 13  1  0
 13 14  1  0
 14 15  1  6
 14 24  1  0
 15  6  2  0
 16 17  2  0
 18 19  2  0
 19  7  1  0
 20  2  1  0
 21  2  1  0
 22  8  1  0
 23 21  1  0
 24  5  1  0
 25 10  1  0
 26  9  1  0
 28  9  1  0
  1  3  2  0
  1  4  2  0
 15 16  1  0
 17 18  1  0
 19  6  1  0
 20  8  2  0
 21 22  2  0
 25 26  2  0
 27 10  2  0
M  END
>  <rmsd>  (1) 
0.249229074

$$$$
