MolPort-005-144-839 12074362 CHEMBL1581486 CSSS00160033359 MCULE-7110591329 PubChem-24790783 ZINC000012074362
     RDKit          3D

 33 36  0  0  0  0  0  0  0  0999 V2000
   17.0265   38.1413   10.7975 C   0  0  0  0  0  0  0  0  0  0  0  0
   14.5884   38.5338   10.6628 C   0  0  0  0  0  0  0  0  0  0  0  0
   13.3726   38.2288   10.0435 C   0  0  0  0  0  0  0  0  0  0  0  0
   12.1916   38.8702   10.4357 C   0  0  0  0  0  0  0  0  0  0  0  0
   10.8970   38.5277    9.7533 C   0  0  0  0  0  0  0  0  0  0  0  0
   10.4434   40.7645    8.7888 C   0  0  0  0  0  0  0  0  0  0  0  0
   11.7745   41.5147    8.8074 C   0  0  0  0  0  0  0  0  0  0  0  0
   12.5615   41.2291    7.5374 C   0  0  0  0  0  0  0  0  0  0  0  0
   12.7848   39.7311    7.3955 C   0  0  0  0  0  0  0  0  0  0  0  0
   11.4495   38.9889    7.3907 C   0  0  0  0  0  0  0  0  0  0  0  0
   15.8157   42.5302    8.2182 C   0  0  0  0  0  0  0  0  0  0  0  0
   15.5367   43.2772    7.0784 C   0  0  0  0  0  0  0  0  0  0  0  0
   14.2729   42.8493    6.7170 C   0  0  0  0  0  0  0  0  0  0  0  0
   13.9198   44.2968    4.6512 C   0  0  0  0  0  0  0  0  0  0  0  0
   13.0049   44.6779    3.5427 C   0  0  0  0  0  0  0  0  0  0  0  0
   12.0554   45.7671    4.0104 C   0  0  0  0  0  0  0  0  0  0  0  0
   11.1354   46.1945    2.8760 C   0  0  0  0  0  0  0  0  0  0  0  0
   11.8586   47.0303    1.8714 C   0  0  0  0  0  0  0  0  0  0  0  0
   12.0235   46.5550    0.5658 C   0  0  0  0  0  0  0  0  0  0  0  0
   12.6885   47.3348   -0.3855 C   0  0  0  0  0  0  0  0  0  0  0  0
   13.1864   48.5933   -0.0339 C   0  0  0  0  0  0  0  0  0  0  0  0
   13.0176   49.0734    1.2685 C   0  0  0  0  0  0  0  0  0  0  0  0
   12.3524   48.2942    2.2200 C   0  0  0  0  0  0  0  0  0  0  0  0
   12.2246   39.8020   11.4854 C   0  0  0  0  0  0  0  0  0  0  0  0
   13.4372   40.1101   12.1078 C   0  0  0  0  0  0  0  0  0  0  0  0
   14.6155   39.4823   11.6973 C   0  0  0  0  0  0  0  0  0  0  0  0
   15.7484   37.8848   10.2319 O   0  0  0  0  0  0  0  0  0  0  0  0
   15.0349   44.8727    4.7599 O   0  0  0  0  0  0  0  0  0  0  0  0
   10.6061   39.3222    8.5485 N   0  0  0  0  0  0  0  0  0  0  0  0
   13.8440   41.9203    7.5817 N   0  0  0  0  0  0  0  0  0  0  0  0
   14.7739   41.7185    8.4982 N   0  0  0  0  0  0  0  0  0  0  0  0
   13.5042   43.3041    5.5956 N   0  0  0  0  0  0  0  0  0  0  0  0
   11.0883   40.4132   11.9037 F   0  0  0  0  0  0  0  0  0  0  0  0
  1 27  1  0
  2 27  1  0
  3  4  2  0
  5  4  1  0
  5 29  1  0
  6 29  1  0
  6  7  1  0
  7  8  1  0
  8  9  1  0
  8 30  1  0
  9 10  1  0
 10 29  1  0
 11 12  1  0
 13 32  1  0
 13 30  1  0
 15 14  1  0
 15 16  1  0
 16 17  1  0
 17 18  1  0
 19 20  2  0
 21 22  2  0
 23 18  2  0
 24 33  1  0
 24 25  2  0
 26  2  2  0
 30 31  1  0
 32 14  1  0
  2  3  1  0
  4 24  1  0
 11 31  2  0
 12 13  2  0
 14 28  2  0
 18 19  1  0
 20 21  1  0
 22 23  1  0
 25 26  1  0
M  END
>  <rmsd>  (1) 
0.226720124

$$$$
