MolPort-023-291-689 CSSS03437789222 MCULE-8771813306 PubChem-75538534
     RDKit          3D

 25 27  0  0  0  0  0  0  0  0999 V2000
   14.7179   36.3141    6.2438 C   0  0  0  0  0  0  0  0  0  0  0  0
   14.7243   36.2674    7.7569 C   0  0  0  0  0  0  0  0  0  0  0  0
   14.5329   37.8393    9.6427 C   0  0  0  0  0  0  0  0  0  0  0  0
   14.3900   39.2572   10.1255 C   0  0  1  0  0  0  0  0  0  0  0  0
   13.4983   39.2996   11.3583 C   0  0  0  0  0  0  0  0  0  0  0  0
   14.3458   41.0619    8.3733 C   0  0  0  0  0  0  0  0  0  0  0  0
   13.6429   41.6783    7.3339 C   0  0  0  0  0  0  0  0  0  0  0  0
   14.2293   42.7122    6.5951 C   0  0  0  0  0  0  0  0  0  0  0  0
   13.9028   44.3804    4.6738 C   0  0  0  0  0  0  0  0  0  0  0  0
   12.9978   44.8819    3.6346 C   0  0  0  0  0  0  0  0  0  0  0  0
   11.7232   44.4163    3.3894 C   0  0  0  0  0  0  0  0  0  0  0  0
   11.2648   45.1816    2.3313 C   0  0  0  0  0  0  0  0  0  0  0  0
   12.2861   46.0577    2.0047 C   0  0  0  0  0  0  0  0  0  0  0  0
   15.5326   43.1273    6.9101 C   0  0  0  0  0  0  0  0  0  0  0  0
   16.2372   42.5158    7.9508 C   0  0  0  0  0  0  0  0  0  0  0  0
   15.6431   41.4836    8.6806 C   0  0  0  0  0  0  0  0  0  0  0  0
   15.7586   39.7959   10.4912 C   0  0  0  0  0  0  0  0  0  0  0  0
   14.5627   37.5807    8.2703 O   0  0  0  0  0  0  0  0  0  0  0  0
   14.6821   36.8971   10.4707 O   0  0  0  0  0  0  0  0  0  0  0  0
   13.7436   40.0303    9.1015 O   0  0  0  0  0  0  0  0  0  0  0  0
   15.0474   44.8930    4.7955 O   0  0  0  0  0  0  0  0  0  0  0  0
   13.3029   45.8472    2.8053 O   0  0  0  0  0  0  0  0  0  0  0  0
   16.4038   39.2853   11.4461 O   0  0  0  0  0  0  0  0  0  0  0  0
   13.4748   43.3161    5.5357 N   0  0  0  0  0  0  0  0  0  0  0  0
   16.3474   40.8645    9.7501 N   0  0  0  0  0  0  0  0  0  0  0  0
  1  2  1  0
  2 18  1  0
  3 18  1  0
  4  3  1  0
  4  5  1  1
  4 20  1  0
  4 17  1  0
  6 20  1  0
  7  8  2  0
  8 24  1  0
  9 10  1  0
 10 22  1  0
 11 12  1  0
 13 22  1  0
 14 15  2  0
 16 25  1  0
 16  6  2  0
 24  9  1  0
 25 17  1  0
  3 19  2  0
  6  7  1  0
  8 14  1  0
  9 21  2  0
 10 11  2  0
 12 13  2  0
 15 16  1  0
 17 23  2  0
M  END
>  <rmsd>  (1) 
0.232795238

$$$$
