MolPort-019-899-254 67919839 CSSS00159803642 MCULE-1718019258 PubChem-56756871 ZINC000067919839
     RDKit          3D

 21 22  0  0  0  0  0  0  0  0999 V2000
   10.7705   38.4801    9.9698 C   0  0  0  0  0  0  0  0  0  0  0  0
   10.7168   40.4588   11.1938 C   0  0  0  0  0  0  0  0  0  0  0  0
   12.3591   38.8529   11.6346 C   0  0  0  0  0  0  0  0  0  0  0  0
   13.7054   39.5324   11.8238 C   0  0  0  0  0  0  0  0  0  0  0  0
   14.6128   39.2336   10.6424 C   0  0  0  0  0  0  0  0  0  0  0  0
   16.8130   39.7838   11.6576 C   0  0  0  0  0  0  0  0  0  0  0  0
   17.8319   40.6838   11.4053 C   0  0  0  0  0  0  0  0  0  0  0  0
   16.2836   41.0051    9.9598 C   0  0  0  0  0  0  0  0  0  0  0  0
   15.5506   41.5936    8.8131 C   0  0  0  0  0  0  0  0  0  0  0  0
   16.1524   42.6112    8.0591 C   0  0  0  0  0  0  0  0  0  0  0  0
   15.4801   43.1868    6.9777 C   0  0  0  0  0  0  0  0  0  0  0  0
   14.1918   42.7543    6.6325 C   0  0  0  0  0  0  0  0  0  0  0  0
   13.9217   44.3593    4.6525 C   0  0  0  0  0  0  0  0  0  0  0  0
   13.0319   44.8232    3.5568 C   0  0  0  0  0  0  0  0  0  0  0  0
   13.5884   41.7413    7.3831 C   0  0  0  0  0  0  0  0  0  0  0  0
   14.2616   41.1663    8.4643 C   0  0  0  0  0  0  0  0  0  0  0  0
   11.6111   39.5005   10.5679 N   0  0  0  0  0  0  0  0  0  0  0  0
   15.8472   39.9991   10.7484 N   0  0  0  0  0  0  0  0  0  0  0  0
   17.4985   41.4461   10.3427 N   0  0  0  0  0  0  0  0  0  0  0  0
   13.4699   43.3202    5.5300 N   0  0  0  0  0  0  0  0  0  0  0  0
   15.0566   44.8867    4.7912 O   0  0  0  0  0  0  0  0  0  0  0  0
  1 17  1  0
  2 17  1  0
  3 17  1  0
  3  4  1  0
  4  5  1  0
  5 18  1  0
  7 19  1  0
  8  9  1  0
  8 18  1  0
 10 11  2  0
 12 20  1  0
 12 15  2  0
 14 13  1  0
 16  9  2  0
 18  6  1  0
 20 13  1  0
  6  7  2  0
  8 19  2  0
  9 10  1  0
 11 12  1  0
 13 21  2  0
 15 16  1  0
M  END
>  <rmsd>  (1) 
0.247588739

$$$$
