Molport-053-367-154
     RDKit          3D

 20 21  0  0  0  0  0  0  0  0999 V2000
   13.5334   39.1738   11.2006 Cl  0  0  0  0  0  0  0  0  0  0  0  0
   13.6623   40.2351    9.8071 C   0  0  0  0  0  0  0  0  0  0  0  0
   12.5815   40.3322    8.8985 C   0  0  0  0  0  0  0  0  0  0  0  0
   12.6646   41.1818    7.7769 C   0  0  0  0  0  0  0  0  0  0  0  0
   13.8325   41.9233    7.6159 C   0  0  0  0  0  0  0  0  0  0  0  0
   14.8775   41.8332    8.4917 C   0  0  0  0  0  0  0  0  0  0  0  0
   14.2486   42.8379    6.6693 C   0  0  0  0  0  0  0  0  0  0  0  0
   13.9113   44.3483    4.6659 C   0  0  0  0  0  0  0  0  0  0  0  0
   13.0121   44.8130    3.5544 C   0  0  0  0  0  0  0  0  0  0  0  0
   13.3097   44.0716    2.2322 C   0  0  0  0  0  0  0  0  0  0  0  0
   14.0425   44.9407    1.1923 C   0  0  0  0  0  0  0  0  0  0  0  0
   15.4630   45.3330    1.6338 C   0  0  0  0  0  0  0  0  0  0  0  0
   16.2219   46.0941    0.5346 C   0  0  0  0  0  0  0  0  0  0  0  0
   16.6056   45.2030   -0.5719 C   0  0  0  0  0  0  0  0  0  0  0  0
   16.9193   44.4722   -1.4811 C   0  0  0  0  0  0  0  0  0  0  0  0
   14.8330   40.9974    9.6062 C   0  0  0  0  0  0  0  0  0  0  0  0
   15.8701   42.6495    8.0989 N   0  0  0  0  0  0  0  0  0  0  0  0
   15.4925   43.2733    6.9877 N   0  0  0  0  0  0  0  0  0  0  0  0
   13.4728   43.3085    5.5558 N   0  0  0  0  0  0  0  0  0  0  0  0
   15.0553   44.8635    4.7934 O   0  0  0  0  0  0  0  0  0  0  0  0
  2  1  1  0
  3  4  2  0
  5  6  2  0
  6 17  1  0
  7 19  1  0
  7  5  1  0
  9  8  1  0
  9 10  1  0
 10 11  1  0
 11 12  1  0
 12 13  1  0
 13 14  1  0
 16  2  2  0
 17 18  1  0
 19  8  1  0
  2  3  1  0
  4  5  1  0
  6 16  1  0
  7 18  2  0
  8 20  2  0
 14 15  3  0
M  END
>  <rmsd>  (1) 
0.23499231

$$$$
