MolPort-001-990-945 94430 CSSS00132532034 LN00558978 MCULE-4341930781 PubChem-707292 ZINC000000094430 ZINC00094430
     RDKit          3D

 19 19  0  0  0  0  0  0  0  0999 V2000
   13.0387   38.6204   11.4890 C   0  0  0  0  0  0  0  0  0  0  0  0
   13.6519   40.0023   11.5759 C   0  0  0  0  0  0  0  0  0  0  0  0
   14.9426   40.9574    9.7080 C   0  0  0  0  0  0  0  0  0  0  0  0
   14.9615   41.5536    8.3533 C   0  0  0  0  0  0  0  0  0  0  0  0
   13.8763   42.1668    7.7423 C   0  0  0  0  0  0  0  0  0  0  0  0
   12.4930   42.3135    8.2811 C   0  0  0  0  0  0  0  0  0  0  0  0
   14.3270   42.6641    6.5401 C   0  0  0  0  0  0  0  0  0  0  0  0
   13.9355   44.3032    4.6324 C   0  0  0  0  0  0  0  0  0  0  0  0
   13.0543   44.6804    3.4973 C   0  0  0  0  0  0  0  0  0  0  0  0
   15.6621   42.3104    6.4294 C   0  0  0  0  0  0  0  0  0  0  0  0
   16.4966   42.4510    5.1974 C   0  0  0  0  0  0  0  0  0  0  0  0
   17.3344   41.0206    7.7426 C   0  0  0  0  0  0  0  0  0  0  0  0
   18.5881   41.7250    7.3513 C   0  0  0  0  0  0  0  0  0  0  0  0
   13.7274   40.5700   10.2769 O   0  0  0  0  0  0  0  0  0  0  0  0
   16.0140   40.8272   10.3602 O   0  0  0  0  0  0  0  0  0  0  0  0
   15.0289   44.9061    4.7954 O   0  0  0  0  0  0  0  0  0  0  0  0
   17.4148   39.8662    8.2395 O   0  0  0  0  0  0  0  0  0  0  0  0
   13.5000   43.3054    5.5596 N   0  0  0  0  0  0  0  0  0  0  0  0
   16.0495   41.6371    7.5406 N   0  0  0  0  0  0  0  0  0  0  0  0
  1  2  1  0
  2 14  1  0
  3 14  1  0
  3  4  1  0
  5  7  1  0
  6  5  1  0
  7 18  1  0
  9  8  1  0
 10 19  1  0
 11 10  1  0
 13 12  1  0
 18  8  1  0
 19 12  1  0
 19  4  1  0
  3 15  2  0
  4  5  2  0
  7 10  2  0
  8 16  2  0
 12 17  2  0
M  END
>  <rmsd>  (1) 
0.229223058

$$$$
