MolPort-016-948-775 ChemDiv-V004-5146 MCULE-2022708689 PubChem-46124577 ZINC000040372377 ZINC40372377
     RDKit          3D

 34 37  0  0  0  0  0  0  0  0999 V2000
   21.1250   36.3426   10.7647 C   0  0  0  0  0  0  0  0  0  0  0  0
   20.8290   38.2064   11.9049 C   0  0  0  0  0  0  0  0  0  0  0  0
   19.8641   39.2812   12.3681 C   0  0  0  0  0  0  0  0  0  0  0  0
   18.1823   40.2444   10.8598 C   0  0  0  0  0  0  0  0  0  0  0  0
   16.1006   40.0481   10.7084 C   0  0  0  0  0  0  0  0  0  0  0  0
   14.7083   39.6705   11.0126 C   0  0  0  0  0  0  0  0  0  0  0  0
   13.7336   40.6252   11.3777 C   0  0  0  0  0  0  0  0  0  0  0  0
   14.0581   42.0768   11.4962 C   0  0  0  0  0  0  0  0  0  0  0  0
   12.4313   40.2090   11.6734 C   0  0  0  0  0  0  0  0  0  0  0  0
   12.0936   38.8545   11.6204 C   0  0  0  0  0  0  0  0  0  0  0  0
   13.0606   37.9065   11.2800 C   0  0  0  0  0  0  0  0  0  0  0  0
   14.3638   38.3133   10.9837 C   0  0  0  0  0  0  0  0  0  0  0  0
   15.7282   41.5161    8.6862 C   0  0  0  0  0  0  0  0  0  0  0  0
   16.2457   42.6263    8.0036 C   0  0  0  0  0  0  0  0  0  0  0  0
   15.5198   43.2256    6.9711 C   0  0  0  0  0  0  0  0  0  0  0  0
   14.2667   42.7187    6.5984 C   0  0  0  0  0  0  0  0  0  0  0  0
   13.8769   44.4043    4.7029 C   0  0  0  0  0  0  0  0  0  0  0  0
   12.9174   44.9470    3.7248 C   0  0  0  0  0  0  0  0  0  0  0  0
   11.6137   44.4360    3.6526 C   0  0  0  0  0  0  0  0  0  0  0  0
   10.7016   44.9518    2.7275 C   0  0  0  0  0  0  0  0  0  0  0  0
   11.0795   45.9839    1.8630 C   0  0  0  0  0  0  0  0  0  0  0  0
   10.4427   47.5251    0.0359 C   0  0  0  0  0  0  0  0  0  0  0  0
   12.3842   46.4980    1.9326 C   0  0  0  0  0  0  0  0  0  0  0  0
   13.2958   45.9826    2.8580 C   0  0  0  0  0  0  0  0  0  0  0  0
   13.7532   41.6053    7.2698 C   0  0  0  0  0  0  0  0  0  0  0  0
   14.4800   41.0045    8.3009 C   0  0  0  0  0  0  0  0  0  0  0  0
   20.1859   37.3397   11.0208 O   0  0  0  0  0  0  0  0  0  0  0  0
   19.5067   40.1141   11.2749 O   0  0  0  0  0  0  0  0  0  0  0  0
   15.0363   44.8950    4.7800 O   0  0  0  0  0  0  0  0  0  0  0  0
   10.1442   46.4783    0.9497 O   0  0  0  0  0  0  0  0  0  0  0  0
   17.8141   41.0243    9.8278 N   0  0  0  0  0  0  0  0  0  0  0  0
   16.5019   40.8955    9.7301 N   0  0  0  0  0  0  0  0  0  0  0  0
   17.1428   39.6077   11.4417 N   0  0  0  0  0  0  0  0  0  0  0  0
   13.4867   43.3148    5.5530 N   0  0  0  0  0  0  0  0  0  0  0  0
  1 27  1  0
  2 27  1  0
  2  3  1  0
  3 28  1  0
  4 28  1  0
  4 33  1  0
  5  6  1  0
  7  9  2  0
  8  7  1  0
 10 11  2  0
 12  6  2  0
 14 15  2  0
 16 34  1  0
 16 25  2  0
 17 18  1  0
 19 20  2  0
 21 30  1  0
 21 23  2  0
 22 30  1  0
 24 18  2  0
 26 13  2  0
 32 31  1  0
 32  5  1  0
 32 13  1  0
 34 17  1  0
  4 31  2  0
  5 33  2  0
  6  7  1  0
  9 10  1  0
 11 12  1  0
 13 14  1  0
 15 16  1  0
 17 29  2  0
 18 19  1  0
 20 21  1  0
 23 24  1  0
 25 26  1  0
M  END
>  <rmsd>  (1) 
0.230688542

$$$$
