MolPort-003-022-299 CSSS01006092655 LN01393284 MCULE-4198873419 PubChem-4094527
     RDKit          3D

 32 36  0  0  0  0  0  0  0  0999 V2000
   15.0516   44.8744    4.8058 O   0  0  0  0  0  0  0  0  0  0  0  0
   16.6741   40.0131    9.5336 O   0  0  0  0  0  0  0  0  0  0  0  0
   14.3997   44.8481    1.6819 O   0  0  0  0  0  0  0  0  0  0  0  0
   13.0203   46.3311    3.5689 O   0  0  0  0  0  0  0  0  0  0  0  0
   13.8927   44.3882    4.7002 C   0  0  0  0  0  0  0  0  0  0  0  0
   14.2428   42.7639    6.6150 C   0  0  0  0  0  0  0  0  0  0  0  0
   15.9517   42.5508    8.0656 C   0  0  0  0  0  0  0  0  0  0  0  0
   15.1425   41.4853    8.5024 C   0  0  0  0  0  0  0  0  0  0  0  0
   15.4872   40.4375    9.4875 C   0  0  0  0  0  0  0  0  0  0  0  0
   14.4749   39.8473   10.3923 C   0  0  0  0  0  0  0  0  0  0  0  0
   14.7805   38.6868   11.1205 C   0  0  0  0  0  0  0  0  0  0  0  0
   13.8429   38.1294   11.9947 C   0  0  0  0  0  0  0  0  0  0  0  0
   12.5929   38.7319   12.1549 C   0  0  0  0  0  0  0  0  0  0  0  0
   12.2809   39.8920   11.4415 C   0  0  0  0  0  0  0  0  0  0  0  0
   13.2187   40.4484   10.5669 C   0  0  0  0  0  0  0  0  0  0  0  0
   17.2308   42.9659    8.6811 C   0  0  0  0  0  0  0  0  0  0  0  0
   18.1794   43.6514    7.9086 C   0  0  0  0  0  0  0  0  0  0  0  0
   19.3791   44.0855    8.4797 C   0  0  0  0  0  0  0  0  0  0  0  0
   19.6359   43.8467    9.8322 C   0  0  0  0  0  0  0  0  0  0  0  0
   18.6908   43.1796   10.6146 C   0  0  0  0  0  0  0  0  0  0  0  0
   17.4916   42.7466   10.0425 C   0  0  0  0  0  0  0  0  0  0  0  0
   12.9545   44.9020    3.6539 C   0  0  2  0  0  0  0  0  0  0  0  0
   13.2529   44.2545    2.2944 C   0  0  0  0  0  0  0  0  0  0  0  0
   14.6363   46.2210    1.7758 C   0  0  0  0  0  0  0  0  0  0  0  0
   15.5749   46.8405    0.9466 C   0  0  0  0  0  0  0  0  0  0  0  0
   15.7835   48.2205    1.0429 C   0  0  0  0  0  0  0  0  0  0  0  0
   15.0560   48.9782    1.9685 C   0  0  0  0  0  0  0  0  0  0  0  0
   14.1249   48.3559    2.8070 C   0  0  0  0  0  0  0  0  0  0  0  0
   13.9228   46.9759    2.7172 C   0  0  0  0  0  0  0  0  0  0  0  0
   13.4714   43.3108    5.5420 N   0  0  0  0  0  0  0  0  0  0  0  0
   15.4365   43.2496    7.0154 N   0  0  0  0  0  0  0  0  0  0  0  0
   13.7632   41.4470    7.5310 S   0  0  0  0  0  0  0  0  0  0  0  0
  5 30  1  0
  6 32  1  0
  7 31  1  0
  7 16  1  0
  8 32  1  0
  8  9  1  0
  9 10  1  0
 11 12  2  0
 13 14  2  0
 15 10  2  0
 17 18  2  0
 19 20  2  0
 21 16  2  0
 22  5  1  1
 22 23  1  0
 22  4  1  0
 23  3  1  0
 24  3  1  0
 25 26  2  0
 27 28  2  0
 29  4  1  0
 29 24  2  0
 30  6  1  0
  5  1  2  0
  6 31  2  0
  7  8  2  0
  9  2  2  0
 10 11  1  0
 12 13  1  0
 14 15  1  0
 16 17  1  0
 18 19  1  0
 20 21  1  0
 24 25  1  0
 26 27  1  0
 28 29  1  0
M  END
>  <rmsd>  (1) 
0.194342539

$$$$
