Molport-051-982-927 MCULE-8994215766
     RDKit          3D

 23 25  0  0  0  0  0  0  0  0999 V2000
   10.3669   49.2579    4.1664 C   0  0  0  0  0  0  0  0  0  0  0  0
   11.7599   49.4194    3.5779 C   0  0  0  0  0  0  0  0  0  0  0  0
   13.4642   48.3306    2.4696 C   0  0  0  0  0  0  0  0  0  0  0  0
   13.9322   46.9878    1.9115 C   0  0  0  0  0  0  0  0  0  0  0  0
   14.0753   45.9723    3.0014 C   0  0  0  0  0  0  0  0  0  0  0  0
   13.8625   44.3019    4.7071 C   0  0  0  0  0  0  0  0  0  0  0  0
   14.3272   42.7602    6.6648 C   0  0  0  0  0  0  0  0  0  0  0  0
   14.9120   41.4296    8.4767 C   0  0  0  0  0  0  0  0  0  0  0  0
   13.5986   39.7954    9.5387 C   0  0  0  0  0  0  0  0  0  0  0  0
   13.4776   38.7785   10.6440 C   0  0  0  0  0  0  0  0  0  0  0  0
   13.0061   39.4376   11.9362 C   0  0  0  0  0  0  0  0  0  0  0  0
   12.5249   40.0819    8.6404 C   0  0  0  0  0  0  0  0  0  0  0  0
   11.2167   39.3391    8.7075 C   0  0  0  0  0  0  0  0  0  0  0  0
   12.7072   41.0628    7.6398 C   0  0  0  0  0  0  0  0  0  0  0  0
   13.9260   41.7428    7.5695 C   0  0  0  0  0  0  0  0  0  0  0  0
   12.1737   48.1882    3.0264 O   0  0  0  0  0  0  0  0  0  0  0  0
   15.1730   45.8650    3.7832 N   0  0  0  0  0  0  0  0  0  0  0  0
   15.0577   44.9331    4.7276 N   0  0  0  0  0  0  0  0  0  0  0  0
   13.4774   43.2651    5.6195 N   0  0  0  0  0  0  0  0  0  0  0  0
   15.5938   43.2339    6.8566 N   0  0  0  0  0  0  0  0  0  0  0  0
   14.7701   40.4906    9.4385 N   0  0  0  0  0  0  0  0  0  0  0  0
   16.2228   42.3908    8.1519 S   0  0  0  0  0  0  0  0  0  0  0  0
   12.8702   44.8955    3.4831 S   0  0  0  0  0  0  0  0  0  0  0  0
  1  2  1  0
  2 16  1  0
  3 16  1  0
  3  4  1  0
  4  5  1  0
  5 23  1  0
  6 19  1  0
  6 23  1  0
  8 22  1  0
  9 21  2  0
 10  9  1  0
 10 11  1  0
 12 14  2  0
 13 12  1  0
 15  7  1  0
 15  8  2  0
 17 18  1  0
 19  7  1  0
 20 22  1  0
  5 17  2  0
  6 18  2  0
  7 20  2  0
  8 21  1  0
  9 12  1  0
 14 15  1  0
M  END
>  <rmsd>  (1) 
0.226901874

$$$$
