MolPort-002-865-769 5540781 CHEMBL1423125 CSSS00138423848 MCULE-4762641888 PubChem-4269270 ZINC000005540781 ZINC05540781
     RDKit          3D

 25 27  0  0  0  0  0  0  0  0999 V2000
   10.3271   46.1292    0.5098 C   0  0  0  0  0  0  0  0  0  0  0  0
   11.2478   45.6703    1.5821 C   0  0  0  0  0  0  0  0  0  0  0  0
   10.8502   44.6564    2.4578 C   0  0  0  0  0  0  0  0  0  0  0  0
   11.7163   44.2247    3.4667 C   0  0  0  0  0  0  0  0  0  0  0  0
   12.9862   44.8034    3.6074 C   0  0  0  0  0  0  0  0  0  0  0  0
   13.3773   45.8208    2.7238 C   0  0  0  0  0  0  0  0  0  0  0  0
   12.5112   46.2525    1.7149 C   0  0  0  0  0  0  0  0  0  0  0  0
   13.8984   44.3476    4.6711 C   0  0  0  0  0  0  0  0  0  0  0  0
   14.2812   42.7829    6.6335 C   0  0  0  0  0  0  0  0  0  0  0  0
   16.0297   42.4921    8.0093 C   0  0  0  0  0  0  0  0  0  0  0  0
   15.5239   40.6562    9.6512 C   0  0  0  0  0  0  0  0  0  0  0  0
   14.4574   39.9455   10.3973 C   0  0  0  0  0  0  0  0  0  0  0  0
   14.6257   38.6268   10.8834 C   0  0  0  0  0  0  0  0  0  0  0  0
   15.8596   37.8319   10.6164 C   0  0  0  0  0  0  0  0  0  0  0  0
   13.5981   38.0147   11.6089 C   0  0  0  0  0  0  0  0  0  0  0  0
   12.4080   38.6976   11.8655 C   0  0  0  0  0  0  0  0  0  0  0  0
   12.2368   39.9996   11.3950 C   0  0  0  0  0  0  0  0  0  0  0  0
   13.2561   40.6183   10.6685 C   0  0  0  0  0  0  0  0  0  0  0  0
   15.0383   44.8750    4.7890 O   0  0  0  0  0  0  0  0  0  0  0  0
   17.1871   42.7208    8.4512 O   0  0  0  0  0  0  0  0  0  0  0  0
   16.7277   40.4832    9.9849 O   0  0  0  0  0  0  0  0  0  0  0  0
   13.4856   43.3073    5.5669 N   0  0  0  0  0  0  0  0  0  0  0  0
   15.5335   43.1893    6.9419 N   0  0  0  0  0  0  0  0  0  0  0  0
   15.2121   41.5510    8.5668 N   0  0  0  0  0  0  0  0  0  0  0  0
   13.8078   41.5742    7.6731 S   0  0  0  0  0  0  0  0  0  0  0  0
  1  2  1  0
  3  4  2  0
  5  6  2  0
  5  8  1  0
  7  2  2  0
  8 22  1  0
  9 25  1  0
 10 23  1  0
 10 24  1  0
 11 12  1  0
 13 15  2  0
 14 13  1  0
 16 17  2  0
 18 12  2  0
 22  9  1  0
 24 25  1  0
 24 11  1  0
  2  3  1  0
  4  5  1  0
  6  7  1  0
  8 19  2  0
  9 23  2  0
 10 20  2  0
 11 21  2  0
 12 13  1  0
 15 16  1  0
 17 18  1  0
M  END
>  <rmsd>  (1) 
0.213322178

$$$$
