MolPort-007-723-444 6818296 ChemDiv-E157-5470 MCULE-6617565337 PubChem-22518008 ZINC000006818296 ZINC06818296
     RDKit          3D

 23 24  0  0  0  0  0  0  0  0999 V2000
   10.7120   45.5437    3.0304 C   0  0  0  0  0  0  0  0  0  0  0  0
   11.7434   45.4367    4.1332 C   0  0  0  0  0  0  0  0  0  0  0  0
   12.0296   46.8221    4.6817 C   0  0  0  0  0  0  0  0  0  0  0  0
   13.0145   44.8173    3.5736 C   0  0  0  0  0  0  0  0  0  0  0  0
   13.9123   44.3509    4.6697 C   0  0  0  0  0  0  0  0  0  0  0  0
   14.2362   42.7855    6.6415 C   0  0  0  0  0  0  0  0  0  0  0  0
   15.1315   41.6371    8.5332 C   0  0  0  0  0  0  0  0  0  0  0  0
   13.5183   39.2609   11.2266 C   0  0  0  0  0  0  0  0  0  0  0  0
   13.5365   41.7554   11.5586 C   0  0  0  0  0  0  0  0  0  0  0  0
   14.1160   43.0164   11.3399 C   0  0  0  0  0  0  0  0  0  0  0  0
   13.5571   44.1660   11.9044 C   0  0  0  0  0  0  0  0  0  0  0  0
   12.4108   44.0686   12.6960 C   0  0  0  0  0  0  0  0  0  0  0  0
   11.8238   42.8219   12.9232 C   0  0  0  0  0  0  0  0  0  0  0  0
   12.3832   41.6725   12.3579 C   0  0  0  0  0  0  0  0  0  0  0  0
   15.0514   44.8728    4.7979 O   0  0  0  0  0  0  0  0  0  0  0  0
   15.8730   39.2671    9.4641 O   0  0  0  0  0  0  0  0  0  0  0  0
   16.6539   41.2361   10.6882 O   0  0  0  0  0  0  0  0  0  0  0  0
   13.4742   43.3101    5.5504 N   0  0  0  0  0  0  0  0  0  0  0  0
   15.4724   43.2130    6.9821 N   0  0  0  0  0  0  0  0  0  0  0  0
   15.9705   42.5724    8.0377 N   0  0  0  0  0  0  0  0  0  0  0  0
   14.1090   40.5681   10.9736 N   0  0  0  0  0  0  0  0  0  0  0  0
   13.6921   41.5632    7.6615 S   0  0  0  0  0  0  0  0  0  0  0  0
   15.4979   40.6460    9.9303 S   0  0  0  0  0  0  0  0  0  0  0  0
  1  2  1  0
  2  3  1  0
  2  4  1  0
  4  5  1  0
  5 18  1  0
  6 22  1  0
  7 22  1  0
  8 21  1  0
 10 11  2  0
 12 13  2  0
 14  9  2  0
 18  6  1  0
 19 20  1  0
 21  9  1  0
 23  7  1  0
 23 21  1  0
  5 15  2  0
  6 19  2  0
  7 20  2  0
  9 10  1  0
 11 12  1  0
 13 14  1  0
 23 16  2  0
 23 17  2  0
M  END
>  <rmsd>  (1) 
0.201048568

$$$$
