MolPort-019-922-109 9206257 CRESQBXCHSKGJZ-UHFFFAOYSA-N CSSS03437093891 MCULE-9939253106 PubChem-16954054 ZINC000009206257
     RDKit          3D

 26 29  0  0  0  0  0  0  0  0999 V2000
   16.4600   41.0492    9.7689 N   0  0  0  0  0  0  0  0  0  0  0  0
   13.4777   43.3147    5.5387 N   0  0  0  0  0  0  0  0  0  0  0  0
   11.5740   44.7394    3.8374 N   0  0  0  0  0  0  0  0  0  0  0  0
   16.4843   39.7301   10.3885 C   0  0  0  0  0  0  0  0  0  0  0  0
   15.3764   39.5985   11.4229 C   0  0  0  0  0  0  0  0  0  0  0  0
   14.0284   39.4482   10.7451 C   0  0  0  0  0  0  0  0  0  0  0  0
   12.9436   39.3488   11.7960 C   0  0  0  0  0  0  0  0  0  0  0  0
   15.7047   41.4433    8.6197 C   0  0  0  0  0  0  0  0  0  0  0  0
   15.0372   40.6489    7.6874 C   0  0  0  0  0  0  0  0  0  0  0  0
   14.3109   41.3050    6.6670 C   0  0  0  0  0  0  0  0  0  0  0  0
   14.2569   42.7215    6.5856 C   0  0  0  0  0  0  0  0  0  0  0  0
   14.9117   43.4937    7.5793 C   0  0  0  0  0  0  0  0  0  0  0  0
   14.8553   44.8962    7.7126 C   0  0  0  0  0  0  0  0  0  0  0  0
   15.5149   45.5345    8.7949 C   0  0  0  0  0  0  0  0  0  0  0  0
   16.2233   44.7836    9.7619 C   0  0  0  0  0  0  0  0  0  0  0  0
   16.2590   43.3994    9.5980 C   0  0  0  0  0  0  0  0  0  0  0  0
   15.6243   42.8048    8.5472 C   0  0  0  0  0  0  0  0  0  0  0  0
   16.7908   42.2979   10.3978 C   0  0  0  0  0  0  0  0  0  0  0  0
   13.8530   44.4700    4.7803 C   0  0  0  0  0  0  0  0  0  0  0  0
   12.8571   45.1368    3.9348 C   0  0  0  0  0  0  0  0  0  0  0  0
   13.0921   46.2464    3.1387 C   0  0  0  0  0  0  0  0  0  0  0  0
   11.8481   46.4549    2.5771 C   0  0  0  0  0  0  0  0  0  0  0  0
   11.5053   47.5370    1.6174 C   0  0  0  0  0  0  0  0  0  0  0  0
   17.4054   42.4056   11.4915 O   0  0  0  0  0  0  0  0  0  0  0  0
   15.0416   44.8904    4.8010 O   0  0  0  0  0  0  0  0  0  0  0  0
   10.9978   45.5574    3.0103 O   0  0  0  0  0  0  0  0  0  0  0  0
  1  8  1  0
  2 19  1  0
  4  1  1  0
  4  5  1  0
  5  6  1  0
  6  7  1  0
  9 10  2  0
 11 12  2  0
 11  2  1  0
 13 14  2  0
 15 16  2  0
 16 18  1  0
 17  8  2  0
 17 12  1  0
 18  1  1  0
 19 20  1  0
 20 21  1  0
 22 26  1  0
 23 22  1  0
 26  3  1  0
  8  9  1  0
 10 11  1  0
 12 13  1  0
 14 15  1  0
 16 17  1  0
 18 24  2  0
 19 25  2  0
 20  3  2  0
 21 22  2  0
M  END
>  <rmsd>  (1) 
0.244093806

$$$$
