MolPort-004-990-244 CSSS00159792933 MCULE-3452684691 PubChem-45164423
     RDKit          3D

 30 32  0  0  0  0  0  0  0  0999 V2000
   14.2084   41.4504    7.1185 C   0  0  0  0  0  0  0  0  0  0  0  0
   13.3755   40.3776    6.5330 C   0  0  0  0  0  0  0  0  0  0  0  0
   11.7325   39.6645    4.8428 C   0  0  0  0  0  0  0  0  0  0  0  0
   15.1945   40.1275    9.0420 C   0  0  0  0  0  0  0  0  0  0  0  0
   14.3324   40.2269   10.2909 C   0  0  2  0  0  0  0  0  0  0  0  0
   14.6239   39.0607   11.2040 C   0  0  0  0  0  0  0  0  0  0  0  0
   13.2769   38.6730   11.7343 C   0  0  0  0  0  0  0  0  0  0  0  0
   12.3294   39.6428   11.0683 C   0  0  0  0  0  0  0  0  0  0  0  0
   15.5655   42.5187    8.4201 C   0  0  0  0  0  0  0  0  0  0  0  0
   15.1403   43.4349    7.4980 C   0  0  0  0  0  0  0  0  0  0  0  0
   15.5204   44.7693    7.5889 C   0  0  0  0  0  0  0  0  0  0  0  0
   16.3847   45.1344    8.6408 C   0  0  0  0  0  0  0  0  0  0  0  0
   16.8072   44.1512    9.5627 C   0  0  0  0  0  0  0  0  0  0  0  0
   16.4968   47.6132    7.9393 C   0  0  0  0  0  0  0  0  0  0  0  0
   16.9877   47.3841    6.5215 C   0  0  0  0  0  0  0  0  0  0  0  0
   15.0023   47.8788    7.9537 C   0  0  0  0  0  0  0  0  0  0  0  0
   14.2833   42.7630    6.6451 C   0  0  0  0  0  0  0  0  0  0  0  0
   13.8533   44.4542    4.7837 C   0  0  0  0  0  0  0  0  0  0  0  0
   12.8281   45.1057    3.9176 C   0  0  1  0  0  0  0  0  0  0  0  0
   12.3343   44.1257    2.8664 C   0  0  0  0  0  0  0  0  0  0  0  0
   11.6712   45.6132    4.7641 C   0  0  0  0  0  0  0  0  0  0  0  0
   10.8479   46.6230    3.9869 C   0  0  0  0  0  0  0  0  0  0  0  0
   12.5501   40.6581    5.4421 O   0  0  0  0  0  0  0  0  0  0  0  0
   13.4135   39.2114    7.0119 O   0  0  0  0  0  0  0  0  0  0  0  0
   12.9719   40.1927    9.9502 O   0  0  0  0  0  0  0  0  0  0  0  0
   15.0351   44.8882    4.7659 O   0  0  0  0  0  0  0  0  0  0  0  0
   15.0172   41.3086    8.2041 N   0  0  0  0  0  0  0  0  0  0  0  0
   16.3871   42.8561    9.4464 N   0  0  0  0  0  0  0  0  0  0  0  0
   16.8394   46.4850    8.8034 N   0  0  0  0  0  0  0  0  0  0  0  0
   13.5043   43.3105    5.5732 N   0  0  0  0  0  0  0  0  0  0  0  0
  1  2  1  0
  1 27  1  0
  2 23  1  0
  3 23  1  0
  4 27  1  0
  5  4  1  6
  5  6  1  0
  5 25  1  0
  6  7  1  0
  7  8  1  0
  8 25  1  0
  9 28  2  0
 10 11  2  0
 10 17  1  0
 12 13  2  0
 12 29  1  0
 14 29  1  0
 14 15  1  0
 14 16  1  0
 17 30  1  0
 19 18  1  0
 19 20  1  6
 19 21  1  0
 21 22  1  0
 27  9  1  0
 30 18  1  0
  2 24  2  0
  9 10  1  0
 11 12  1  0
 13 28  1  0
 17  1  2  0
 18 26  2  0
M  END
>  <rmsd>  (1) 
0.16681996

$$$$
