MolPort-002-876-469 1396520 CHEMBL1601509 CSSS00025731023 MCULE-5509480574 PubChem-1483052 ZINC000001396520 ZINC01396520
     RDKit          3D

 26 28  0  0  0  0  0  0  0  0999 V2000
   16.4802   41.1093    9.8262 C   0  0  0  0  0  0  0  0  0  0  0  0
   15.6416   41.6423    8.7133 C   0  0  0  0  0  0  0  0  0  0  0  0
   14.2760   41.9426    8.8925 C   0  0  0  0  0  0  0  0  0  0  0  0
   13.5848   42.5165    7.8249 C   0  0  0  0  0  0  0  0  0  0  0  0
   14.2307   42.7599    6.6157 C   0  0  0  0  0  0  0  0  0  0  0  0
   13.9707   44.2659    4.5710 C   0  0  0  0  0  0  0  0  0  0  0  0
   13.1910   44.5472    3.3531 C   0  0  0  0  0  0  0  0  0  0  0  0
   13.6511   45.4844    2.4161 C   0  0  0  0  0  0  0  0  0  0  0  0
   12.9114   45.7494    1.2599 C   0  0  0  0  0  0  0  0  0  0  0  0
   11.7067   45.0792    1.0317 C   0  0  0  0  0  0  0  0  0  0  0  0
   11.2414   44.1437    1.9597 C   0  0  0  0  0  0  0  0  0  0  0  0
   11.9811   43.8787    3.1160 C   0  0  0  0  0  0  0  0  0  0  0  0
   15.5782   42.3722    6.4923 C   0  0  0  0  0  0  0  0  0  0  0  0
   13.5594   41.7142   10.1650 C   0  0  0  0  0  0  0  0  0  0  0  0
   13.5351   40.3910   10.8269 C   0  0  0  0  0  0  0  0  0  0  0  0
   13.0853   40.2773   12.1510 C   0  0  0  0  0  0  0  0  0  0  0  0
   13.0383   39.0294   12.7792 C   0  0  0  0  0  0  0  0  0  0  0  0
   13.4345   37.8827   12.0861 C   0  0  0  0  0  0  0  0  0  0  0  0
   13.8749   37.9833   10.7640 C   0  0  0  0  0  0  0  0  0  0  0  0
   13.9217   39.2312   10.1363 C   0  0  0  0  0  0  0  0  0  0  0  0
   13.4777   43.3240    5.5333 N   0  0  0  0  0  0  0  0  0  0  0  0
   15.0469   44.8879    4.7858 O   0  0  0  0  0  0  0  0  0  0  0  0
   16.1852   42.4867    5.3953 O   0  0  0  0  0  0  0  0  0  0  0  0
   16.2211   41.8530    7.5345 O   0  0  0  0  0  0  0  0  0  0  0  0
   12.9176   42.6720   10.6764 O   0  0  0  0  0  0  0  0  0  0  0  0
   13.4949   46.9208    0.0980 Cl  0  0  0  0  0  0  0  0  0  0  0  0
  1  2  1  0
  2 24  1  0
  3  4  1  0
  3 14  1  0
  5 21  1  0
  5 13  1  0
  6  7  1  0
  8  9  2  0
  9 26  1  0
 10 11  2  0
 12  7  2  0
 13 24  1  0
 14 15  1  0
 16 17  2  0
 18 19  2  0
 20 15  2  0
 21  6  1  0
  2  3  2  0
  4  5  2  0
  6 22  2  0
  7  8  1  0
  9 10  1  0
 11 12  1  0
 13 23  2  0
 14 25  2  0
 15 16  1  0
 17 18  1  0
 19 20  1  0
M  END
>  <rmsd>  (1) 
0.248531267

$$$$
