MolPort-020-295-383 MCULE-9763602010 PubChem-110267464
     RDKit          3D

 33 36  0  0  0  0  0  0  0  0999 V2000
   15.0352   47.4133    1.9818 C   0  0  0  0  0  0  0  0  0  0  0  0
   14.6116   46.3353    2.9130 C   0  0  0  0  0  0  0  0  0  0  0  0
   15.4682   45.9023    3.9267 C   0  0  0  0  0  0  0  0  0  0  0  0
   13.8515   44.3207    4.6666 C   0  0  0  0  0  0  0  0  0  0  0  0
   12.9693   44.7319    3.6633 C   0  0  0  0  0  0  0  0  0  0  0  0
   13.3537   45.7456    2.7838 C   0  0  0  0  0  0  0  0  0  0  0  0
   14.2255   42.7351    6.6376 C   0  0  0  0  0  0  0  0  0  0  0  0
   16.2179   42.6696    7.9146 C   0  0  0  0  0  0  0  0  0  0  0  0
   15.6900   41.6529    8.7072 C   0  0  0  0  0  0  0  0  0  0  0  0
   14.3977   41.1945    8.4292 C   0  0  0  0  0  0  0  0  0  0  0  0
   13.7740   40.1012    9.2368 C   0  0  2  0  0  0  0  0  0  0  0  0
   13.6568   40.4991   10.7108 C   0  0  0  0  0  0  0  0  0  0  0  0
   13.0006   39.3783   11.5139 C   0  0  0  0  0  0  0  0  0  0  0  0
   13.8101   38.0934   11.3720 C   0  0  0  0  0  0  0  0  0  0  0  0
   14.5554   38.7949    9.0865 C   0  0  0  0  0  0  0  0  0  0  0  0
   13.5524   36.5120    9.4206 C   0  0  0  0  0  0  0  0  0  0  0  0
   12.9586   35.4647   10.3030 C   0  0  0  0  0  0  0  0  0  0  0  0
   14.0581   34.5938   10.8767 C   0  0  0  0  0  0  0  0  0  0  0  0
   13.4507   33.5650   11.8118 C   0  0  0  0  0  0  0  0  0  0  0  0
   15.1816   31.7816   11.5262 C   0  0  0  0  0  0  0  0  0  0  0  0
   14.7945   32.7960   13.8010 C   0  0  0  0  0  0  0  0  0  0  0  0
   14.1091   33.6941   14.6369 C   0  0  0  0  0  0  0  0  0  0  0  0
   14.4010   33.7597   16.0020 C   0  0  0  0  0  0  0  0  0  0  0  0
   15.3825   32.9293   16.5471 C   0  0  0  0  0  0  0  0  0  0  0  0
   16.0723   32.0328   15.7276 C   0  0  0  0  0  0  0  0  0  0  0  0
   15.7802   31.9667   14.3625 C   0  0  0  0  0  0  0  0  0  0  0  0
   15.0740   44.9140    4.7744 N   0  0  0  0  0  0  0  0  0  0  0  0
   13.4472   43.2807    5.5656 N   0  0  0  0  0  0  0  0  0  0  0  0
   15.4811   43.1904    6.8996 N   0  0  0  0  0  0  0  0  0  0  0  0
   13.6971   41.7427    7.4017 N   0  0  0  0  0  0  0  0  0  0  0  0
   13.9735   37.7761    9.9553 N   0  0  0  0  0  0  0  0  0  0  0  0
   14.4965   32.7318   12.3934 N   0  0  0  0  0  0  0  0  0  0  0  0
   13.7054   36.2601    8.1953 O   0  0  0  0  0  0  0  0  0  0  0  0
  1  2  1  0
  3 27  2  0
  4  5  2  0
  4 28  1  0
  6  2  2  0
  7 30  2  0
  8 29  2  0
  9 10  2  0
 11 10  1  6
 11 12  1  0
 12 13  1  0
 13 14  1  0
 14 31  1  0
 15 31  1  0
 15 11  1  0
 17 16  1  0
 17 18  1  0
 18 19  1  0
 19 32  1  0
 20 32  1  0
 22 23  2  0
 24 25  2  0
 26 21  2  0
 28  7  1  0
 31 16  1  0
 32 21  1  0
  2  3  1  0
  4 27  1  0
  5  6  1  0
  7 29  1  0
  8  9  1  0
 10 30  1  0
 16 33  2  0
 21 22  1  0
 23 24  1  0
 25 26  1  0
M  END
>  <rmsd>  (1) 
0.240765795

$$$$
