MolPort-010-903-901 ChemDiv-M535-1321 MCULE-7098690132 PubChem-53146014 ZINC000065166013
     RDKit          3D

 33 37  0  0  0  0  0  0  0  0999 V2000
   15.0330   44.8927    4.7645 O   0  0  0  0  0  0  0  0  0  0  0  0
   16.5644   39.7010    9.8940 O   0  0  0  0  0  0  0  0  0  0  0  0
   13.9043   44.3418    4.6566 C   0  0  0  0  0  0  0  0  0  0  0  0
   14.2697   42.7525    6.6366 C   0  0  0  0  0  0  0  0  0  0  0  0
   13.6961   41.7616    7.4353 C   0  0  0  0  0  0  0  0  0  0  0  0
   14.4060   41.1781    8.4967 C   0  0  0  0  0  0  0  0  0  0  0  0
   13.7546   40.3759   10.7869 C   0  0  0  0  0  0  0  0  0  0  0  0
   12.8776   39.3420   11.5003 C   0  0  0  0  0  0  0  0  0  0  0  0
   13.4543   37.9215   11.4569 C   0  0  0  0  0  0  0  0  0  0  0  0
   14.2189   37.5810   10.1739 C   0  0  0  0  0  0  0  0  0  0  0  0
   13.4047   37.7798    8.8928 C   0  0  0  0  0  0  0  0  0  0  0  0
   12.8763   39.2058    8.6951 C   0  0  0  0  0  0  0  0  0  0  0  0
   15.7370   41.5984    8.7497 C   0  0  0  0  0  0  0  0  0  0  0  0
   16.3032   42.5962    7.9446 C   0  0  0  0  0  0  0  0  0  0  0  0
   15.5772   43.1722    6.9026 C   0  0  0  0  0  0  0  0  0  0  0  0
   16.5918   40.9563    9.7735 C   0  0  0  0  0  0  0  0  0  0  0  0
   17.2364   43.1519   10.8319 C   0  0  0  0  0  0  0  0  0  0  0  0
   18.5607   43.9075   10.8474 C   0  0  0  0  0  0  0  0  0  0  0  0
   19.7590   41.8101   11.4902 C   0  0  0  0  0  0  0  0  0  0  0  0
   18.4389   41.0450   11.4685 C   0  0  0  0  0  0  0  0  0  0  0  0
   20.1148   43.9037   12.8437 C   0  0  0  0  0  0  0  0  0  0  0  0
   21.5773   43.8348   14.7230 C   0  0  0  0  0  0  0  0  0  0  0  0
   21.3315   45.1813   14.9961 C   0  0  0  0  0  0  0  0  0  0  0  0
   20.4603   45.8945   14.1728 C   0  0  0  0  0  0  0  0  0  0  0  0
   19.8478   45.2583   13.0923 C   0  0  0  0  0  0  0  0  0  0  0  0
   12.9591   44.8032    3.5954 C   0  0  0  0  0  0  0  0  0  0  0  0
   12.5454   43.6304    2.7246 C   0  0  0  0  0  0  0  0  0  0  0  0
   13.5838   44.6086    2.2254 C   0  0  0  0  0  0  0  0  0  0  0  0
   13.4940   43.3127    5.5685 N   0  0  0  0  0  0  0  0  0  0  0  0
   13.7405   40.2095    9.3256 N   0  0  0  0  0  0  0  0  0  0  0  0
   17.4821   41.7282   10.5979 N   0  0  0  0  0  0  0  0  0  0  0  0
   19.4961   43.2248   11.7386 N   0  0  0  0  0  0  0  0  0  0  0  0
   20.9710   43.2315   13.6652 N   0  0  0  0  0  0  0  0  0  0  0  0
  3 29  1  0
  5  6  2  0
  6 30  1  0
  7 30  1  0
  7  8  1  0
  8  9  1  0
  9 10  1  0
 10 11  1  0
 11 12  1  0
 12 30  1  0
 13 14  2  0
 13 16  1  0
 15  4  2  0
 16 31  1  0
 17 31  1  0
 17 18  1  0
 18 32  1  0
 19 32  1  0
 19 20  1  0
 20 31  1  0
 22 33  2  0
 23 24  2  0
 25 21  2  0
 26  3  1  0
 26 27  1  0
 27 28  1  0
 28 26  1  0
 29  4  1  0
 32 21  1  0
  3  1  2  0
  4  5  1  0
  6 13  1  0
 14 15  1  0
 16  2  2  0
 21 33  1  0
 22 23  1  0
 24 25  1  0
M  END
>  <rmsd>  (1) 
0.238867164

$$$$
