MolPort-001-943-897 2304980 CSSS00161035153 ChemDiv-8010-2152 MCULE-5016758089 PubChem-1923393 ZINC000002304980 ZINC02304980
     RDKit          3D

 21 22  0  0  0  0  0  0  0  0999 V2000
   12.9098   39.6397   11.1366 C   0  0  0  0  0  0  0  0  0  0  0  0
   14.0026   38.9169   11.8992 C   0  0  0  0  0  0  0  0  0  0  0  0
   14.9007   39.9203   12.6034 C   0  0  0  0  0  0  0  0  0  0  0  0
   16.1576   40.2116   11.7939 C   0  0  0  0  0  0  0  0  0  0  0  0
   15.8782   41.1903   10.6663 C   0  0  0  0  0  0  0  0  0  0  0  0
   15.6134   40.4367    9.3759 C   0  0  0  0  0  0  0  0  0  0  0  0
   15.2506   41.3897    8.2920 C   0  0  0  0  0  0  0  0  0  0  0  0
   14.2815   42.6942    6.5395 C   0  0  0  0  0  0  0  0  0  0  0  0
   13.8896   44.4000    4.6966 C   0  0  0  0  0  0  0  0  0  0  0  0
   12.9599   44.9495    3.6939 C   0  0  0  0  0  0  0  0  0  0  0  0
   13.3531   46.0138    2.8685 C   0  0  0  0  0  0  0  0  0  0  0  0
   12.4705   46.5344    1.9175 C   0  0  0  0  0  0  0  0  0  0  0  0
   11.1884   45.9945    1.7848 C   0  0  0  0  0  0  0  0  0  0  0  0
   10.7886   44.9344    2.6027 C   0  0  0  0  0  0  0  0  0  0  0  0
   11.6712   44.4139    3.5538 C   0  0  0  0  0  0  0  0  0  0  0  0
   16.0896   42.3313    7.8053 N   0  0  0  0  0  0  0  0  0  0  0  0
   15.5498   43.0597    6.8299 N   0  0  0  0  0  0  0  0  0  0  0  0
   13.4741   43.3122    5.5332 N   0  0  0  0  0  0  0  0  0  0  0  0
   15.0463   44.8892    4.8141 O   0  0  0  0  0  0  0  0  0  0  0  0
   10.3333   46.4989    0.8635 F   0  0  0  0  0  0  0  0  0  0  0  0
   13.7620   41.4179    7.5045 S   0  0  0  0  0  0  0  0  0  0  0  0
  1  2  1  0
  2  3  1  0
  3  4  1  0
  4  5  1  0
  5  6  1  0
  6  7  1  0
  7 21  1  0
  8 18  1  0
  8 21  1  0
  9 10  1  0
 11 12  2  0
 13 20  1  0
 13 14  2  0
 15 10  2  0
 16 17  1  0
 18  9  1  0
  7 16  2  0
  8 17  2  0
  9 19  2  0
 10 11  1  0
 12 13  1  0
 14 15  1  0
M  END
>  <rmsd>  (1) 
0.22465919

$$$$
