MolPort-016-948-781 ChemDiv-V027-9388 MCULE-5124427316 PubChem-1029328 ZINC000000697005 ZINC00697005
     RDKit          3D

 29 31  0  0  0  0  0  0  0  0999 V2000
   11.3174   44.2142    2.3997 C   0  0  0  0  0  0  0  0  0  0  0  0
   12.9356   44.9689    3.6955 C   0  0  0  0  0  0  0  0  0  0  0  0
   13.8834   44.4052    4.7042 C   0  0  0  0  0  0  0  0  0  0  0  0
   14.2689   42.6773    6.5614 C   0  0  0  0  0  0  0  0  0  0  0  0
   15.5694   43.1020    6.8672 C   0  0  0  0  0  0  0  0  0  0  0  0
   16.3064   42.4597    7.8655 C   0  0  0  0  0  0  0  0  0  0  0  0
   15.7528   41.3886    8.5805 C   0  0  0  0  0  0  0  0  0  0  0  0
   14.4561   40.9590    8.2624 C   0  0  0  0  0  0  0  0  0  0  0  0
   13.7192   41.6020    7.2650 C   0  0  0  0  0  0  0  0  0  0  0  0
   18.2263   39.9312   10.6099 C   0  0  0  0  0  0  0  0  0  0  0  0
   19.9302   38.7859   11.9752 C   0  0  0  0  0  0  0  0  0  0  0  0
   20.2920   37.4145   11.4134 C   0  0  0  0  0  0  0  0  0  0  0  0
   21.4396   37.5182   10.4272 C   0  0  0  0  0  0  0  0  0  0  0  0
   19.0955   36.7523   10.7571 C   0  0  0  0  0  0  0  0  0  0  0  0
   16.1303   39.9073   10.5910 C   0  0  0  0  0  0  0  0  0  0  0  0
   14.7332   39.6445   10.9822 C   0  0  0  0  0  0  0  0  0  0  0  0
   13.8602   40.6778   11.3878 C   0  0  0  0  0  0  0  0  0  0  0  0
   14.3060   42.0995   11.4682 C   0  0  0  0  0  0  0  0  0  0  0  0
   12.5483   40.3703   11.7625 C   0  0  0  0  0  0  0  0  0  0  0  0
   12.1019   39.0468   11.7496 C   0  0  0  0  0  0  0  0  0  0  0  0
   12.9694   38.0209   11.3696 C   0  0  0  0  0  0  0  0  0  0  0  0
   14.2812   38.3189   10.9925 C   0  0  0  0  0  0  0  0  0  0  0  0
   11.7076   44.3060    3.7350 O   0  0  0  0  0  0  0  0  0  0  0  0
   15.0375   44.9007    4.7926 O   0  0  0  0  0  0  0  0  0  0  0  0
   19.5601   39.6928   10.9416 O   0  0  0  0  0  0  0  0  0  0  0  0
   13.4819   43.3124    5.5445 N   0  0  0  0  0  0  0  0  0  0  0  0
   16.5373   40.7166    9.5837 N   0  0  0  0  0  0  0  0  0  0  0  0
   17.8591   40.7365    9.5974 N   0  0  0  0  0  0  0  0  0  0  0  0
   17.1767   39.3852   11.2617 N   0  0  0  0  0  0  0  0  0  0  0  0
  1 23  1  0
  2 23  1  0
  2  3  1  0
  3 26  1  0
  5  6  2  0
  7  8  2  0
  7 27  1  0
  9  4  2  0
 10 25  1  0
 10 29  1  0
 11 25  1  0
 11 12  1  0
 12 13  1  0
 12 14  1  0
 15 16  1  0
 15 27  1  0
 17 19  2  0
 18 17  1  0
 20 21  2  0
 22 16  2  0
 26  4  1  0
 27 28  1  0
  3 24  2  0
  4  5  1  0
  6  7  1  0
  8  9  1  0
 10 28  2  0
 15 29  2  0
 16 17  1  0
 19 20  1  0
 21 22  1  0
M  END
>  <rmsd>  (1) 
0.24351643

$$$$
