MolPort-021-778-309 72437814 CSC048524567 CSSS00048524567 MCULE-7639738129 PubChem-56921464 ZINC000072437814 ZINC72437814
     RDKit          3D

 24 26  0  0  0  0  0  0  0  0999 V2000
   13.4072   39.2559   11.2655 C   0  0  0  0  0  0  0  0  0  0  0  0
   13.7862   40.0435    9.2400 C   0  0  0  0  0  0  0  0  0  0  0  0
   14.4037   41.1392    8.4422 C   0  0  0  0  0  0  0  0  0  0  0  0
   15.7065   41.5682    8.7196 C   0  0  0  0  0  0  0  0  0  0  0  0
   16.2843   42.5854    7.9560 C   0  0  0  0  0  0  0  0  0  0  0  0
   15.5619   43.1713    6.9126 C   0  0  0  0  0  0  0  0  0  0  0  0
   14.2565   42.7439    6.6248 C   0  0  0  0  0  0  0  0  0  0  0  0
   13.8991   44.3590    4.6614 C   0  0  0  0  0  0  0  0  0  0  0  0
   12.9847   44.8107    3.5979 C   0  0  0  0  0  0  0  0  0  0  0  0
   11.7160   44.2322    3.4620 C   0  0  0  0  0  0  0  0  0  0  0  0
   10.8497   44.6570    2.4514 C   0  0  0  0  0  0  0  0  0  0  0  0
   11.2366   45.6668    1.5553 C   0  0  0  0  0  0  0  0  0  0  0  0
   12.5077   46.2463    1.6979 C   0  0  0  0  0  0  0  0  0  0  0  0
   13.3738   45.8219    2.7089 C   0  0  0  0  0  0  0  0  0  0  0  0
   10.7908   47.0712   -0.4924 C   0  0  0  0  0  0  0  0  0  0  0  0
    9.6002   47.9002   -0.9749 C   0  0  0  0  0  0  0  0  0  0  0  0
    8.0439   46.4466   -0.2482 C   0  0  0  0  0  0  0  0  0  0  0  0
    9.0509   45.4442    0.3154 C   0  0  0  0  0  0  0  0  0  0  0  0
   13.6854   41.7246    7.3947 C   0  0  0  0  0  0  0  0  0  0  0  0
   13.6447   40.4411   10.5702 O   0  0  0  0  0  0  0  0  0  0  0  0
   15.0368   44.8913    4.7755 O   0  0  0  0  0  0  0  0  0  0  0  0
    8.5683   47.0482   -1.4052 O   0  0  0  0  0  0  0  0  0  0  0  0
   13.4876   43.3152    5.5576 N   0  0  0  0  0  0  0  0  0  0  0  0
   10.3414   46.1085    0.5168 N   0  0  0  0  0  0  0  0  0  0  0  0
  1 20  1  0
  2 20  1  0
  2  3  1  0
  4  5  2  0
  6  7  2  0
  7 23  1  0
  8  9  1  0
 10 11  2  0
 12 13  2  0
 12 24  1  0
 14  9  2  0
 15 24  1  0
 15 16  1  0
 16 22  1  0
 17 22  1  0
 17 18  1  0
 18 24  1  0
 19  3  2  0
 23  8  1  0
  3  4  1  0
  5  6  1  0
  7 19  1  0
  8 21  2  0
  9 10  1  0
 11 12  1  0
 13 14  1  0
M  END
>  <rmsd>  (1) 
0.230972469

$$$$
