MolPort-009-751-443 62023085 CSSS03437051065 MCULE-6511131651 PubChem-52907991 ZINC000062023085 ZINC62023085
     RDKit          3D

 18 19  0  0  0  0  0  0  0  0999 V2000
   13.3716   39.2426   11.4626 C   0  0  0  0  0  0  0  0  0  0  0  0
   15.0772   40.4418    9.1453 C   0  0  0  0  0  0  0  0  0  0  0  0
   15.0112   41.4753    8.1063 C   0  0  0  0  0  0  0  0  0  0  0  0
   16.0304   42.3473    7.7725 C   0  0  0  0  0  0  0  0  0  0  0  0
   14.3312   42.7152    6.5575 C   0  0  0  0  0  0  0  0  0  0  0  0
   13.8844   44.3854    4.7080 C   0  0  0  0  0  0  0  0  0  0  0  0
   12.9375   44.9117    3.7186 C   0  0  0  0  0  0  0  0  0  0  0  0
   11.6455   44.4539    3.5119 C   0  0  0  0  0  0  0  0  0  0  0  0
   10.9782   45.1531    2.4955 C   0  0  0  0  0  0  0  0  0  0  0  0
   11.7326   46.1599    1.8969 C   0  0  0  0  0  0  0  0  0  0  0  0
   13.9681   38.6480   10.3491 O   0  0  0  0  0  0  0  0  0  0  0  0
   16.1297   40.2921    9.8224 O   0  0  0  0  0  0  0  0  0  0  0  0
   15.5623   43.0994    6.8049 O   0  0  0  0  0  0  0  0  0  0  0  0
   15.0363   44.8890    4.7994 O   0  0  0  0  0  0  0  0  0  0  0  0
   13.9454   39.6035    9.3884 N   0  0  0  0  0  0  0  0  0  0  0  0
   13.4917   43.3044    5.5610 N   0  0  0  0  0  0  0  0  0  0  0  0
   13.9260   41.6996    7.3408 N   0  0  0  0  0  0  0  0  0  0  0  0
   13.2376   46.1677    2.6486 S   0  0  0  0  0  0  0  0  0  0  0  0
  1 11  1  0
  2  3  1  0
  3 17  1  0
  4 13  1  0
  5 13  1  0
  5 16  1  0
  6  7  1  0
  7 18  1  0
  8  9  1  0
 10 18  1  0
 15 11  1  0
 15  2  1  0
 16  6  1  0
  2 12  2  0
  3  4  2  0
  5 17  2  0
  6 14  2  0
  7  8  2  0
  9 10  2  0
M  END
>  <rmsd>  (1) 
0.19413659

$$$$
