MolPort-047-073-850 MCULE-1850452322 PubChem-132772074
     RDKit          3D

 29 32  0  0  0  0  0  0  0  0999 V2000
   15.2119   45.8787    3.8018 C   0  0  0  0  0  0  0  0  0  0  0  0
   14.1130   46.0436    2.9530 C   0  0  0  0  0  0  0  0  0  0  0  0
   13.8759   44.3169    4.6961 C   0  0  0  0  0  0  0  0  0  0  0  0
   14.2211   42.7235    6.6479 C   0  0  0  0  0  0  0  0  0  0  0  0
   16.2100   42.6583    7.9303 C   0  0  0  0  0  0  0  0  0  0  0  0
   15.6805   41.6404    8.7199 C   0  0  0  0  0  0  0  0  0  0  0  0
   14.3896   41.1800    8.4369 C   0  0  0  0  0  0  0  0  0  0  0  0
   13.7624   40.0890    9.2448 C   0  0  2  0  0  0  0  0  0  0  0  0
   13.6121   40.5024   10.7031 C   0  0  0  0  0  0  0  0  0  0  0  0
   12.9708   39.3683   11.4852 C   0  0  0  0  0  0  0  0  0  0  0  0
   13.8101   38.0953   11.3369 C   0  0  0  0  0  0  0  0  0  0  0  0
   12.7086   37.2853    9.3648 C   0  0  0  0  0  0  0  0  0  0  0  0
   12.9143   36.1976    8.4043 C   0  0  0  0  0  0  0  0  0  0  0  0
   14.5725   38.7900    9.1397 C   0  0  0  0  0  0  0  0  0  0  0  0
   16.4396   46.6804    3.6727 C   0  0  0  0  0  0  0  0  0  0  0  0
   18.8833   47.0500    4.7554 C   0  0  0  0  0  0  0  0  0  0  0  0
   19.2422   46.1928    5.9104 C   0  0  0  0  0  0  0  0  0  0  0  0
   17.8889   45.6243    5.7084 C   0  0  0  0  0  0  0  0  0  0  0  0
   12.9440   44.9360    3.4523 S   0  0  0  0  0  0  0  0  0  0  0  0
   13.4470   43.2730    5.5761 N   0  0  0  0  0  0  0  0  0  0  0  0
   15.4758   43.1795    6.9138 N   0  0  0  0  0  0  0  0  0  0  0  0
   13.9896   37.6968    9.9331 N   0  0  0  0  0  0  0  0  0  0  0  0
   13.0767   35.3390    7.6456 N   0  0  0  0  0  0  0  0  0  0  0  0
   13.6906   41.7306    7.4096 N   0  0  0  0  0  0  0  0  0  0  0  0
   15.0769   44.9243    4.7631 N   0  0  0  0  0  0  0  0  0  0  0  0
   17.5397   46.4801    4.5609 N   0  0  0  0  0  0  0  0  0  0  0  0
   16.5273   47.5551    2.7701 O   0  0  0  0  0  0  0  0  0  0  0  0
   20.2618   45.3002    5.6402 F   0  0  0  0  0  0  0  0  0  0  0  0
   19.3763   46.8906    7.0955 F   0  0  0  0  0  0  0  0  0  0  0  0
  1 15  1  0
  1 25  1  0
  2 19  1  0
  3 19  1  0
  3 20  1  0
  4 24  2  0
  5 21  2  0
  6  7  2  0
  8  7  1  6
  8  9  1  0
  9 10  1  0
 10 11  1  0
 11 22  1  0
 12 22  1  0
 12 13  1  0
 14 22  1  0
 14  8  1  0
 15 26  1  0
 16 26  1  0
 16 17  1  0
 17 18  1  0
 17 28  1  0
 17 29  1  0
 18 26  1  0
 20  4  1  0
  1  2  2  0
  3 25  2  0
  4 21  1  0
  5  6  1  0
  7 24  1  0
 15 27  2  0
 13 23  3  0
M  END
>  <rmsd>  (1) 
0.24255164

$$$$
