Molport-053-365-321
     RDKit          3D

 16 17  0  0  0  0  0  0  0  0999 V2000
   11.8545   45.5968    4.0653 C   0  0  0  0  0  0  0  0  0  0  0  0
   13.0375   44.7959    3.5263 C   0  0  1  0  0  0  0  0  0  0  0  0
   13.9250   44.3294    4.6464 C   0  0  0  0  0  0  0  0  0  0  0  0
   14.3270   42.6686    6.5230 C   0  0  0  0  0  0  0  0  0  0  0  0
   15.7117   42.5792    6.5041 C   0  0  0  0  0  0  0  0  0  0  0  0
   14.9866   41.5042    8.1909 C   0  0  0  0  0  0  0  0  0  0  0  0
   14.8934   40.7345    9.3487 C   0  0  0  0  0  0  0  0  0  0  0  0
   13.6107   40.4758    9.8605 C   0  0  0  0  0  0  0  0  0  0  0  0
   12.4705   40.9873    9.2100 C   0  0  0  0  0  0  0  0  0  0  0  0
   12.6240   41.7559    8.0470 C   0  0  0  0  0  0  0  0  0  0  0  0
   12.4558   43.4013    2.5754 Cl  0  0  0  0  0  0  0  0  0  0  0  0
   15.0384   44.8945    4.8192 O   0  0  0  0  0  0  0  0  0  0  0  0
   13.4816   43.3012    5.5478 N   0  0  0  0  0  0  0  0  0  0  0  0
   16.1316   41.8445    7.5622 N   0  0  0  0  0  0  0  0  0  0  0  0
   13.8832   41.9787    7.5862 N   0  0  0  0  0  0  0  0  0  0  0  0
   13.4131   39.4282   11.4446 Br  0  0  0  0  0  0  0  0  0  0  0  0
  2  1  1  1
  2 11  1  0
  2  3  1  0
  3 13  1  0
  5 14  1  0
  6  7  1  0
  8 16  1  0
  8  9  1  0
 10 15  1  0
 13  4  1  0
 15  4  1  0
 15  6  1  0
  3 12  2  0
  4  5  2  0
  6 14  2  0
  7  8  2  0
  9 10  2  0
M  END
>  <rmsd>  (1) 
0.237777606

$$$$
