MolPort-002-784-756 20616519 CSSS00160413342 MCULE-3638599793 ZINC000020616519
     RDKit          3D

 22 23  0  0  0  0  0  0  0  0999 V2000
   12.8496   39.2472   11.7807 C   0  0  0  0  0  0  0  0  0  0  0  0
   14.0073   38.9771   10.8426 C   0  0  0  0  0  0  0  0  0  0  0  0
   15.0238   40.7741    9.5013 C   0  0  0  0  0  0  0  0  0  0  0  0
   14.9303   41.7085    8.3754 C   0  0  0  0  0  0  0  0  0  0  0  0
   14.2691   42.8151    6.6615 C   0  0  0  0  0  0  0  0  0  0  0  0
   13.9008   44.3481    4.6689 C   0  0  0  0  0  0  0  0  0  0  0  0
   13.0059   44.7760    3.5731 C   0  0  0  0  0  0  0  0  0  0  0  0
   11.6159   44.7670    3.5492 C   0  0  0  0  0  0  0  0  0  0  0  0
   11.2615   45.1843    2.2763 C   0  0  0  0  0  0  0  0  0  0  0  0
   14.8033   45.3179    1.9093 C   0  0  0  0  0  0  0  0  0  0  0  0
   10.6559   44.4817    4.6291 C   0  0  0  0  0  0  0  0  0  0  0  0
   13.8533   41.8116    7.5125 C   0  0  0  0  0  0  0  0  0  0  0  0
   13.9680   39.8985    9.7631 O   0  0  0  0  0  0  0  0  0  0  0  0
   16.0564   40.7681   10.2257 O   0  0  0  0  0  0  0  0  0  0  0  0
   15.0415   44.8723    4.7805 O   0  0  0  0  0  0  0  0  0  0  0  0
    9.3099   44.3167    4.3268 O   0  0  0  0  0  0  0  0  0  0  0  0
   11.0264   44.4294    5.8301 O   0  0  0  0  0  0  0  0  0  0  0  0
   15.8978   42.5872    8.0496 N   0  0  0  0  0  0  0  0  0  0  0  0
   15.4911   43.2696    6.9937 N   0  0  0  0  0  0  0  0  0  0  0  0
   13.4919   43.3102    5.5670 N   0  0  0  0  0  0  0  0  0  0  0  0
   12.3892   45.4313    1.5788 N   0  0  0  0  0  0  0  0  0  0  0  0
   13.4272   45.1927    2.3620 N   0  0  0  0  0  0  0  0  0  0  0  0
  1  2  1  0
  2 13  1  0
  3 13  1  0
  3  4  1  0
  5 20  1  0
  6  7  1  0
  8  9  1  0
  8 11  1  0
 10 22  1  0
 11 16  1  0
 12  4  1  0
 19 18  1  0
 19  5  1  0
 20  6  1  0
 22 21  1  0
 22  7  1  0
  3 14  2  0
  4 18  2  0
  5 12  2  0
  6 15  2  0
  7  8  2  0
  9 21  2  0
 11 17  2  0
M  END
>  <rmsd>  (1) 
0.197185472

$$$$
