MolPort-002-787-490 9778215 CSC020585253 CSSS00020585253 LN01186547 MCULE-3160514531 PubChem-17095082 ZINC000009778215 ZINC09778215
     RDKit          3D

 19 19  0  0  0  0  0  0  0  0999 V2000
   11.2344   39.5239   10.7936 C   0  0  0  0  0  0  0  0  0  0  0  0
   12.3421   38.8345   11.5673 C   0  0  0  0  0  0  0  0  0  0  0  0
   13.6016   39.6859   11.5712 C   0  0  0  0  0  0  0  0  0  0  0  0
   14.4059   39.4847   10.2963 C   0  0  0  0  0  0  0  0  0  0  0  0
   14.3756   41.1452    8.4613 C   0  0  0  0  0  0  0  0  0  0  0  0
   15.6728   41.5941    8.7557 C   0  0  0  0  0  0  0  0  0  0  0  0
   16.2537   42.6120    7.9961 C   0  0  0  0  0  0  0  0  0  0  0  0
   15.5428   43.1864    6.9397 C   0  0  0  0  0  0  0  0  0  0  0  0
   14.2457   42.7469    6.6353 C   0  0  0  0  0  0  0  0  0  0  0  0
   13.8981   44.3567    4.6694 C   0  0  0  0  0  0  0  0  0  0  0  0
   13.2909   45.8095    2.7179 C   0  0  0  0  0  0  0  0  0  0  0  0
   14.4888   45.4374    1.8613 C   0  0  0  0  0  0  0  0  0  0  0  0
   12.0879   45.9722    1.8132 C   0  0  0  0  0  0  0  0  0  0  0  0
   13.5488   47.1334    3.4164 C   0  0  0  0  0  0  0  0  0  0  0  0
   13.6716   41.7266    7.4016 C   0  0  0  0  0  0  0  0  0  0  0  0
   13.7654   40.1296    9.2022 O   0  0  0  0  0  0  0  0  0  0  0  0
   15.0377   44.8860    4.7808 O   0  0  0  0  0  0  0  0  0  0  0  0
   13.0109   44.7807    3.6706 O   0  0  0  0  0  0  0  0  0  0  0  0
   13.4846   43.3119    5.5589 N   0  0  0  0  0  0  0  0  0  0  0  0
  1  2  1  0
  2  3  1  0
  3  4  1  0
  4 16  1  0
  5 16  1  0
  6  7  2  0
  8  9  2  0
  9 19  1  0
 10 18  1  0
 11 18  1  0
 11 12  1  0
 11 13  1  0
 11 14  1  0
 15  5  2  0
 19 10  1  0
  5  6  1  0
  7  8  1  0
  9 15  1  0
 10 17  2  0
M  END
>  <rmsd>  (1) 
0.246475995

$$$$
