MolPort-008-345-345 6204350 CSSS00121599792 MCULE-8793457033 PubChem-4221437 ZINC000006204350 ZINC06204350
     RDKit          3D

 22 23  0  0  0  0  0  0  0  0999 V2000
   13.1875   38.6451   11.0280 C   0  0  0  0  0  0  0  0  0  0  0  0
   13.8339   39.9369   11.4919 C   0  0  0  0  0  0  0  0  0  0  0  0
   13.8215   40.9663   10.3763 C   0  0  0  0  0  0  0  0  0  0  0  0
   14.8812   40.6366    9.3382 C   0  0  0  0  0  0  0  0  0  0  0  0
   14.2679   42.7754    6.6273 C   0  0  0  0  0  0  0  0  0  0  0  0
   13.9040   44.3498    4.6639 C   0  0  0  0  0  0  0  0  0  0  0  0
   13.0125   44.8328    3.5769 C   0  0  0  0  0  0  0  0  0  0  0  0
   11.7335   44.2727    3.3179 C   0  0  0  0  0  0  0  0  0  0  0  0
   10.4683   42.1464    3.6414 C   0  0  0  0  0  0  0  0  0  0  0  0
   10.9404   44.8198    2.2745 C   0  0  0  0  0  0  0  0  0  0  0  0
   11.4352   45.8658    1.4942 C   0  0  0  0  0  0  0  0  0  0  0  0
   12.7026   46.3866    1.7299 C   0  0  0  0  0  0  0  0  0  0  0  0
   13.4786   45.8796    2.7676 C   0  0  0  0  0  0  0  0  0  0  0  0
   14.8523   41.6183    8.2676 N   0  0  0  0  0  0  0  0  0  0  0  0
   15.8543   42.4314    7.9812 N   0  0  0  0  0  0  0  0  0  0  0  0
   15.5143   43.1815    6.9452 N   0  0  0  0  0  0  0  0  0  0  0  0
   13.4848   43.3079    5.5548 N   0  0  0  0  0  0  0  0  0  0  0  0
   13.8358   41.7954    7.4409 N   0  0  0  0  0  0  0  0  0  0  0  0
   15.0449   44.8705    4.8040 O   0  0  0  0  0  0  0  0  0  0  0  0
   11.2850   43.2077    4.1138 O   0  0  0  0  0  0  0  0  0  0  0  0
    9.2871   44.3168    1.9523 Cl  0  0  0  0  0  0  0  0  0  0  0  0
   13.3112   47.6942    0.7390 Cl  0  0  0  0  0  0  0  0  0  0  0  0
  1  2  1  0
  2  3  1  0
  3  4  1  0
  4 14  1  0
  5 16  1  0
  5 17  1  0
  6  7  1  0
  8 20  1  0
  8 10  2  0
  9 20  1  0
 10 21  1  0
 11 12  2  0
 12 22  1  0
 13  7  2  0
 14 15  1  0
 14 18  1  0
 17  6  1  0
  5 18  2  0
  6 19  2  0
  7  8  1  0
 10 11  1  0
 12 13  1  0
 15 16  2  0
M  END
>  <rmsd>  (1) 
0.165357932

$$$$
