MolPort-019-935-284 67896687 CSSS00159285959 MCULE-2807596587 PubChem-56774746 ZINC000067896687 ZINC67896687
     RDKit          3D

 35 38  0  0  0  0  0  0  0  0999 V2000
   13.4483   39.3114   11.4350 C   0  0  0  0  0  0  0  0  0  0  0  0
   14.0315   36.9953   10.7184 C   0  0  0  0  0  0  0  0  0  0  0  0
   15.3327   36.9323   11.2821 C   0  0  0  0  0  0  0  0  0  0  0  0
   16.1116   38.1558   11.6606 C   0  0  0  0  0  0  0  0  0  0  0  0
   16.6014   39.2042    9.4104 C   0  0  2  0  0  0  0  0  0  0  0  0
   17.5360   38.9546    8.2068 C   0  0  0  0  0  0  0  0  0  0  0  0
   19.0494   37.6869    9.2824 C   0  0  0  0  0  0  0  0  0  0  0  0
   18.3527   37.8398   10.5933 C   0  0  0  0  0  0  0  0  0  0  0  0
   16.5156   40.7177    9.6548 C   0  0  1  0  0  0  0  0  0  0  0  0
   15.7192   41.3955    8.5838 C   0  0  0  0  0  0  0  0  0  0  0  0
   14.3660   41.0864    8.3866 C   0  0  0  0  0  0  0  0  0  0  0  0
   13.6396   41.7257    7.3786 C   0  0  0  0  0  0  0  0  0  0  0  0
   14.2537   42.6796    6.5604 C   0  0  0  0  0  0  0  0  0  0  0  0
   13.9039   44.3768    4.6726 C   0  0  0  0  0  0  0  0  0  0  0  0
   12.9817   44.8707    3.6111 C   0  0  0  0  0  0  0  0  0  0  0  0
   12.9934   43.9522    2.3951 C   0  0  0  0  0  0  0  0  0  0  0  0
   14.1373   44.2596    1.4831 C   0  0  0  0  0  0  0  0  0  0  0  0
   13.8948   44.9235    0.2749 C   0  0  0  0  0  0  0  0  0  0  0  0
   14.9553   45.2222   -0.5881 C   0  0  0  0  0  0  0  0  0  0  0  0
   16.2611   44.8509   -0.2482 C   0  0  0  0  0  0  0  0  0  0  0  0
   16.5048   44.1760    0.9537 C   0  0  0  0  0  0  0  0  0  0  0  0
   15.4445   43.8778    1.8168 C   0  0  0  0  0  0  0  0  0  0  0  0
   15.6079   42.9886    6.7632 C   0  0  0  0  0  0  0  0  0  0  0  0
   16.3369   42.3489    7.7691 C   0  0  0  0  0  0  0  0  0  0  0  0
   15.9733   35.6903   11.3985 C   0  0  0  0  0  0  0  0  0  0  0  0
   15.3536   34.5236   10.9503 C   0  0  0  0  0  0  0  0  0  0  0  0
   14.0881   34.5882   10.3687 C   0  0  0  0  0  0  0  0  0  0  0  0
   13.4354   35.8172   10.2518 C   0  0  0  0  0  0  0  0  0  0  0  0
   13.2912   38.1795   10.5920 O   0  0  0  0  0  0  0  0  0  0  0  0
   18.0918   37.6639    8.2539 O   0  0  0  0  0  0  0  0  0  0  0  0
   18.8645   37.3774   11.6476 O   0  0  0  0  0  0  0  0  0  0  0  0
   15.9634   41.0085   10.9043 O   0  0  0  0  0  0  0  0  0  0  0  0
   15.0435   44.9011    4.7957 O   0  0  0  0  0  0  0  0  0  0  0  0
   17.0727   38.4912   10.6113 N   0  0  0  0  0  0  0  0  0  0  0  0
   13.4765   43.3142    5.5361 N   0  0  0  0  0  0  0  0  0  0  0  0
  1 29  1  0
  2 29  1  0
  3 25  2  0
  4  3  1  0
  4 34  1  0
  5 34  1  0
  5  6  1  6
  5  9  1  0
  6 30  1  0
  7 30  1  0
  7  8  1  0
  8 34  1  0
  9 32  1  1
  9 10  1  0
 11 12  2  0
 13 35  1  0
 13 23  2  0
 15 14  1  0
 15 16  1  0
 16 17  1  0
 18 19  2  0
 20 21  2  0
 22 17  2  0
 24 10  2  0
 26 27  2  0
 28  2  2  0
 35 14  1  0
  2  3  1  0
  8 31  2  0
 10 11  1  0
 12 13  1  0
 14 33  2  0
 17 18  1  0
 19 20  1  0
 21 22  1  0
 23 24  1  0
 25 26  1  0
 27 28  1  0
M  END
>  <rmsd>  (1) 
0.24537687

$$$$
