MolPort-007-713-435 ChemDiv-E002-0304 MCULE-6186887416 PubChem-22509879 ZINC000006768036
     RDKit          3D

 26 28  0  0  0  0  0  0  0  0999 V2000
   15.1367   41.5849    8.5041 C   0  0  0  0  0  0  0  0  0  0  0  0
   16.9051   40.5183    9.8947 C   0  0  0  0  0  0  0  0  0  0  0  0
   17.4899   39.4512    8.9876 C   0  0  0  0  0  0  0  0  0  0  0  0
   14.5007   40.0216   10.3884 C   0  0  0  0  0  0  0  0  0  0  0  0
   13.2340   40.5858   10.6131 C   0  0  0  0  0  0  0  0  0  0  0  0
   12.2906   39.9260   11.4056 C   0  0  0  0  0  0  0  0  0  0  0  0
   12.6063   38.6975   11.9902 C   0  0  0  0  0  0  0  0  0  0  0  0
   13.8664   38.1308   11.7856 C   0  0  0  0  0  0  0  0  0  0  0  0
   14.8093   38.7911   10.9928 C   0  0  0  0  0  0  0  0  0  0  0  0
   14.2342   42.7655    6.6233 C   0  0  0  0  0  0  0  0  0  0  0  0
   13.9170   44.3413    4.6594 C   0  0  0  0  0  0  0  0  0  0  0  0
   13.4303   45.7183    2.5954 C   0  0  0  0  0  0  0  0  0  0  0  0
   12.6263   46.8493    2.4143 C   0  0  0  0  0  0  0  0  0  0  0  0
   12.9957   47.8475    1.5110 C   0  0  0  0  0  0  0  0  0  0  0  0
   14.1781   47.7237    0.7814 C   0  0  0  0  0  0  0  0  0  0  0  0
   14.9754   46.5877    0.9325 C   0  0  0  0  0  0  0  0  0  0  0  0
   14.6026   45.5633    1.8105 C   0  0  0  0  0  0  0  0  0  0  0  0
   14.8878   43.1085    2.0219 C   0  0  0  0  0  0  0  0  0  0  0  0
   15.4886   40.7122    9.5951 N   0  0  0  0  0  0  0  0  0  0  0  0
   15.9941   42.4903    7.9780 N   0  0  0  0  0  0  0  0  0  0  0  0
   15.4907   43.1511    6.9370 N   0  0  0  0  0  0  0  0  0  0  0  0
   13.4695   43.3090    5.5432 N   0  0  0  0  0  0  0  0  0  0  0  0
   13.0500   44.7816    3.6097 N   0  0  0  0  0  0  0  0  0  0  0  0
   15.0516   44.8712    4.8109 O   0  0  0  0  0  0  0  0  0  0  0  0
   15.4076   44.4189    1.8460 O   0  0  0  0  0  0  0  0  0  0  0  0
   13.6795   41.5517    7.6460 S   0  0  0  0  0  0  0  0  0  0  0  0
  1 19  1  0
  1 26  1  0
  2 19  1  0
  2  3  1  0
  5  6  2  0
  7  8  2  0
  9  4  2  0
 10 22  1  0
 10 26  1  0
 11 23  1  0
 13 14  2  0
 15 16  2  0
 17 25  1  0
 17 12  2  0
 18 25  1  0
 19  4  1  0
 20 21  1  0
 22 11  1  0
 23 12  1  0
  1 20  2  0
  4  5  1  0
  6  7  1  0
  8  9  1  0
 10 21  2  0
 11 24  2  0
 12 13  1  0
 14 15  1  0
 16 17  1  0
M  END
>  <rmsd>  (1) 
0.208220318

$$$$
