MolPort-051-458-278 CSSS09880971376 MCULE-9621950982 PubChem-162625871 PubChem-164183837
     RDKit          3D

 27 30  0  0  0  0  0  0  0  0999 V2000
   14.5408   38.3662   10.8946 F   0  0  0  0  0  0  0  0  0  0  0  0
   13.6273   40.0144   12.1303 F   0  0  0  0  0  0  0  0  0  0  0  0
   12.3060   38.6216   10.9566 F   0  0  0  0  0  0  0  0  0  0  0  0
   13.5167   39.2938   10.9551 C   0  0  0  0  0  0  0  0  0  0  0  0
   13.6149   40.2267    9.7832 C   0  0  0  0  0  0  0  0  0  0  0  0
   12.5501   40.3351    8.8514 C   0  0  0  0  0  0  0  0  0  0  0  0
   12.6358   41.2077    7.7509 C   0  0  0  0  0  0  0  0  0  0  0  0
   13.8047   41.9504    7.6244 C   0  0  0  0  0  0  0  0  0  0  0  0
   14.2274   42.8738    6.7049 C   0  0  0  0  0  0  0  0  0  0  0  0
   13.9401   44.2869    4.6151 C   0  0  0  0  0  0  0  0  0  0  0  0
   13.0706   44.6583    3.4794 C   0  0  0  0  0  0  0  0  0  0  0  0
   13.5715   45.1371    2.2384 C   0  0  0  0  0  0  0  0  0  0  0  0
   12.6658   45.5842    1.2635 C   0  0  0  0  0  0  0  0  0  0  0  0
   11.2896   45.5342    1.4864 C   0  0  0  0  0  0  0  0  0  0  0  0
   10.7977   45.0316    2.6892 C   0  0  0  0  0  0  0  0  0  0  0  0
   11.6829   44.6002    3.6775 C   0  0  0  0  0  0  0  0  0  0  0  0
   15.8572   44.1325    2.1467 C   0  0  0  0  0  0  0  0  0  0  0  0
   15.6367   46.0182    1.1665 C   0  0  0  0  0  0  0  0  0  0  0  0
   14.8361   41.8558    8.5129 C   0  0  0  0  0  0  0  0  0  0  0  0
   14.7822   41.0026    9.6110 C   0  0  0  0  0  0  0  0  0  0  0  0
   13.4847   43.3133    5.5631 N   0  0  0  0  0  0  0  0  0  0  0  0
   14.9712   45.1183    1.9130 N   0  0  0  0  0  0  0  0  0  0  0  0
   17.0424   44.4407    1.5885 N   0  0  0  0  0  0  0  0  0  0  0  0
   16.9057   45.6098    0.9807 N   0  0  0  0  0  0  0  0  0  0  0  0
   15.4652   43.3042    7.0437 N   0  0  0  0  0  0  0  0  0  0  0  0
   15.8404   42.6781    8.1570 N   0  0  0  0  0  0  0  0  0  0  0  0
   15.0495   44.8626    4.7798 O   0  0  0  0  0  0  0  0  0  0  0  0
  4  1  1  0
  4  2  1  0
  4  3  1  0
  4  5  1  0
  6  7  2  0
  8  9  1  0
  9 21  1  0
 10 11  1  0
 11 12  2  0
 12 22  1  0
 13 14  2  0
 15 16  2  0
 18 22  1  0
 19  8  2  0
 20  5  2  0
 21 10  1  0
 22 17  1  0
 23 24  1  0
 26 25  1  0
 26 19  1  0
  5  6  1  0
  7  8  1  0
  9 25  2  0
 10 27  2  0
 12 13  1  0
 14 15  1  0
 16 11  1  0
 17 23  2  0
 18 24  2  0
 19 20  1  0
M  END
>  <rmsd>  (1) 
0.248583227

$$$$
