MolPort-019-935-278 67896675 CSSS00159302457 MCULE-6991765842 PubChem-56774740 ZINC000067896675 ZINC67896675
     RDKit          3D

 35 38  0  0  0  0  0  0  0  0999 V2000
   13.4672   39.2270   11.3990 C   0  0  0  0  0  0  0  0  0  0  0  0
   14.2937   36.9116   10.9876 C   0  0  0  0  0  0  0  0  0  0  0  0
   15.5622   37.0376   11.6115 C   0  0  0  0  0  0  0  0  0  0  0  0
   16.2061   38.3642   11.8850 C   0  0  0  0  0  0  0  0  0  0  0  0
   16.5959   39.3729    9.5964 C   0  0  2  0  0  0  0  0  0  0  0  0
   17.5210   39.1373    8.3832 C   0  0  0  0  0  0  0  0  0  0  0  0
   19.1177   37.9671    9.4612 C   0  0  0  0  0  0  0  0  0  0  0  0
   18.4461   38.1551   10.7845 C   0  0  0  0  0  0  0  0  0  0  0  0
   16.4433   40.8867    9.8110 C   0  0  1  0  0  0  0  0  0  0  0  0
   15.6639   41.5225    8.7013 C   0  0  0  0  0  0  0  0  0  0  0  0
   16.2782   42.4879    7.8984 C   0  0  0  0  0  0  0  0  0  0  0  0
   15.5677   43.0873    6.8547 C   0  0  0  0  0  0  0  0  0  0  0  0
   14.2340   42.7288    6.6043 C   0  0  0  0  0  0  0  0  0  0  0  0
   13.9100   44.3596    4.6486 C   0  0  0  0  0  0  0  0  0  0  0  0
   13.0162   44.8172    3.5692 C   0  0  0  0  0  0  0  0  0  0  0  0
   13.4240   45.8368    2.6954 C   0  0  0  0  0  0  0  0  0  0  0  0
   12.5784   46.2674    1.6696 C   0  0  0  0  0  0  0  0  0  0  0  0
   11.3180   45.6812    1.5082 C   0  0  0  0  0  0  0  0  0  0  0  0
   10.9038   44.6640    2.3732 C   0  0  0  0  0  0  0  0  0  0  0  0
   11.7502   44.2332    3.3991 C   0  0  0  0  0  0  0  0  0  0  0  0
   10.4485   46.1334    0.4600 C   0  0  0  0  0  0  0  0  0  0  0  0
   13.6235   41.7604    7.4085 C   0  0  0  0  0  0  0  0  0  0  0  0
   14.3317   41.1601    8.4535 C   0  0  0  0  0  0  0  0  0  0  0  0
   16.3055   35.8850   11.8980 C   0  0  0  0  0  0  0  0  0  0  0  0
   15.8172   34.6203   11.5652 C   0  0  0  0  0  0  0  0  0  0  0  0
   14.5830   34.4964   10.9288 C   0  0  0  0  0  0  0  0  0  0  0  0
   13.8299   35.6359   10.6413 C   0  0  0  0  0  0  0  0  0  0  0  0
   13.4591   37.9972   10.6887 O   0  0  0  0  0  0  0  0  0  0  0  0
   18.1404   37.8772    8.4527 O   0  0  0  0  0  0  0  0  0  0  0  0
   19.0211   37.8045   11.8496 O   0  0  0  0  0  0  0  0  0  0  0  0
   15.8314   41.1711   11.0338 O   0  0  0  0  0  0  0  0  0  0  0  0
   15.0452   44.8927    4.7882 O   0  0  0  0  0  0  0  0  0  0  0  0
   17.1254   38.7178   10.8051 N   0  0  0  0  0  0  0  0  0  0  0  0
   13.4768   43.3183    5.5383 N   0  0  0  0  0  0  0  0  0  0  0  0
    9.7498   46.5029   -0.3862 N   0  0  0  0  0  0  0  0  0  0  0  0
  1 28  1  0
  2 28  1  0
  3 24  2  0
  4  3  1  0
  4 33  1  0
  5 33  1  0
  5  6  1  6
  5  9  1  0
  6 29  1  0
  7 29  1  0
  7  8  1  0
  8 33  1  0
  9 31  1  1
  9 10  1  0
 11 12  2  0
 13 34  1  0
 13 22  2  0
 14 15  1  0
 16 17  2  0
 18 19  2  0
 18 21  1  0
 20 15  2  0
 23 10  2  0
 25 26  2  0
 27  2  2  0
 34 14  1  0
  2  3  1  0
  8 30  2  0
 10 11  1  0
 12 13  1  0
 14 32  2  0
 15 16  1  0
 17 18  1  0
 19 20  1  0
 22 23  1  0
 24 25  1  0
 26 27  1  0
 21 35  3  0
M  END
>  <rmsd>  (1) 
0.234799191

$$$$
