MolPort-008-387-160 16648348 CSSS00132982486 MCULE-2852355867 PubChem-17224440 ZINC000016648348 ZINC16648348
     RDKit          3D

 29 30  0  0  0  0  0  0  0  0999 V2000
   13.1326   37.7155    9.8668 C   0  0  0  0  0  0  0  0  0  0  0  0
   12.5261   38.7410   10.8065 C   0  0  0  0  0  0  0  0  0  0  0  0
   13.4982   39.0906   11.9231 C   0  0  0  0  0  0  0  0  0  0  0  0
   14.5278   40.1084   11.4576 C   0  0  0  0  0  0  0  0  0  0  0  0
   15.6488   41.4530    8.6555 C   0  0  0  0  0  0  0  0  0  0  0  0
   14.4113   40.9460    8.2449 C   0  0  0  0  0  0  0  0  0  0  0  0
   13.7045   41.5700    7.2128 C   0  0  0  0  0  0  0  0  0  0  0  0
   14.2298   42.7003    6.5776 C   0  0  0  0  0  0  0  0  0  0  0  0
   13.8852   44.4171    4.7086 C   0  0  0  0  0  0  0  0  0  0  0  0
   12.9225   44.9668    3.6997 C   0  0  0  0  0  0  0  0  0  0  0  0
   12.7477   46.4884    3.8070 C   0  0  0  0  0  0  0  0  0  0  0  0
   13.9459   47.2337    3.2192 C   0  0  0  0  0  0  0  0  0  0  0  0
   14.4552   45.3098    1.7158 C   0  0  0  0  0  0  0  0  0  0  0  0
   13.2663   44.5278    2.2714 C   0  0  0  0  0  0  0  0  0  0  0  0
   14.2540   47.6597    0.7591 C   0  0  0  0  0  0  0  0  0  0  0  0
   14.4295   47.1786   -0.6689 C   0  0  0  0  0  0  0  0  0  0  0  0
   13.3164   46.2156   -1.0354 C   0  0  0  0  0  0  0  0  0  0  0  0
   14.3871   48.3330   -1.6584 C   0  0  0  0  0  0  0  0  0  0  0  0
   15.7692   46.4832   -0.8239 C   0  0  0  0  0  0  0  0  0  0  0  0
   15.4721   43.2046    6.9923 C   0  0  0  0  0  0  0  0  0  0  0  0
   16.1782   42.5832    8.0257 C   0  0  0  0  0  0  0  0  0  0  0  0
   15.5810   39.4468   10.7014 N   0  0  0  0  0  0  0  0  0  0  0  0
   13.4721   43.3174    5.5281 N   0  0  0  0  0  0  0  0  0  0  0  0
   14.2169   46.7428    1.8712 N   0  0  0  0  0  0  0  0  0  0  0  0
   16.5478   40.6719    9.9460 S   0  0  0  0  0  0  0  0  0  0  0  0
   17.7787   40.0311    9.3674 O   0  0  0  0  0  0  0  0  0  0  0  0
   16.9544   41.6969   10.9703 O   0  0  0  0  0  0  0  0  0  0  0  0
   15.0489   44.8928    4.8023 O   0  0  0  0  0  0  0  0  0  0  0  0
   14.1387   48.8968    0.9852 O   0  0  0  0  0  0  0  0  0  0  0  0
  1  2  1  0
  2  3  1  0
  3  4  1  0
  4 22  1  0
  6  7  2  0
  8 23  1  0
  8 20  2  0
 10  9  1  0
 10 11  1  0
 11 12  1  0
 12 24  1  0
 13 24  1  0
 13 14  1  0
 14 10  1  0
 16 15  1  0
 16 17  1  0
 16 18  1  0
 16 19  1  0
 21  5  2  0
 23  9  1  0
 24 15  1  0
 25 22  1  0
 25  5  1  0
  5  6  1  0
  7  8  1  0
  9 28  2  0
 15 29  2  0
 20 21  1  0
 25 26  2  0
 25 27  2  0
M  END
>  <rmsd>  (1) 
0.239524409

$$$$
