MolPort-020-293-036 MCULE-6240120053 PubChem-110265503
     RDKit          3D

 27 30  0  0  0  0  0  0  0  0999 V2000
   12.7204   43.3507   14.1953 C   0  0  0  0  0  0  0  0  0  0  0  0
   12.4263   44.0451   12.9093 C   0  0  0  0  0  0  0  0  0  0  0  0
   12.7299   45.4058   12.7948 C   0  0  0  0  0  0  0  0  0  0  0  0
   12.4597   46.0909   11.6067 C   0  0  0  0  0  0  0  0  0  0  0  0
   11.8887   45.4161   10.5250 C   0  0  0  0  0  0  0  0  0  0  0  0
   11.5889   44.0550   10.6303 C   0  0  0  0  0  0  0  0  0  0  0  0
   11.8493   43.3634   11.8198 C   0  0  0  0  0  0  0  0  0  0  0  0
   11.5382   41.9018   11.8898 C   0  0  0  0  0  0  0  0  0  0  0  0
   12.7253   39.8891   12.1166 C   0  0  0  0  0  0  0  0  0  0  0  0
   13.5806   38.8108   11.4264 C   0  0  0  0  0  0  0  0  0  0  0  0
   14.3901   39.3780   10.2597 C   0  0  0  0  0  0  0  0  0  0  0  0
   13.4910   40.1369    9.2644 C   0  0  1  0  0  0  0  0  0  0  0  0
   12.2992   40.8026    9.9633 C   0  0  0  0  0  0  0  0  0  0  0  0
   14.2380   41.1541    8.4431 C   0  0  0  0  0  0  0  0  0  0  0  0
   14.1934   42.6989    6.6244 C   0  0  0  0  0  0  0  0  0  0  0  0
   15.5194   43.0668    6.8871 C   0  0  0  0  0  0  0  0  0  0  0  0
   16.2022   42.4702    7.9462 C   0  0  0  0  0  0  0  0  0  0  0  0
   15.5633   41.5119    8.7311 C   0  0  0  0  0  0  0  0  0  0  0  0
   13.8613   44.3264    4.6591 C   0  0  0  0  0  0  0  0  0  0  0  0
   13.3639   45.7293    2.8190 C   0  0  0  0  0  0  0  0  0  0  0  0
   14.6088   46.3447    2.9348 C   0  0  0  0  0  0  0  0  0  0  0  0
   15.4657   45.9145    3.9459 C   0  0  0  0  0  0  0  0  0  0  0  0
   12.6443   41.1328   11.3439 N   0  0  0  0  0  0  0  0  0  0  0  0
   13.5960   41.7574    7.4044 N   0  0  0  0  0  0  0  0  0  0  0  0
   13.4434   43.2837    5.5505 N   0  0  0  0  0  0  0  0  0  0  0  0
   13.0133   44.7376    3.6791 N   0  0  0  0  0  0  0  0  0  0  0  0
   15.0810   44.9182    4.7849 N   0  0  0  0  0  0  0  0  0  0  0  0
  1  2  1  0
  3  4  2  0
  5  6  2  0
  7  2  2  0
  8  7  1  0
  8 23  1  0
  9 23  1  0
  9 10  1  0
 10 11  1  0
 11 12  1  0
 12 13  1  0
 12 14  1  1
 13 23  1  0
 15 24  2  0
 15 25  1  0
 16 17  2  0
 18 14  2  0
 19 27  2  0
 20 26  2  0
 21 22  2  0
 25 19  1  0
  2  3  1  0
  4  5  1  0
  6  7  1  0
 14 24  1  0
 15 16  1  0
 17 18  1  0
 19 26  1  0
 20 21  1  0
 22 27  1  0
M  END
>  <rmsd>  (1) 
0.249516696

$$$$
