MolPort-002-865-757 5681533 CSSS00138423837 MCULE-7784784848 PubChem-3558481 ZINC000005681533 ZINC05681533
     RDKit          3D

 23 25  0  0  0  0  0  0  0  0999 V2000
   15.0438   44.8769    4.8020 O   0  0  0  0  0  0  0  0  0  0  0  0
   17.1737   42.6283    8.4186 O   0  0  0  0  0  0  0  0  0  0  0  0
   16.7111   40.2661    9.7968 O   0  0  0  0  0  0  0  0  0  0  0  0
   13.8991   44.3624    4.6739 C   0  0  0  0  0  0  0  0  0  0  0  0
   14.2668   42.7574    6.6063 C   0  0  0  0  0  0  0  0  0  0  0  0
   16.0131   42.4215    7.9745 C   0  0  0  0  0  0  0  0  0  0  0  0
   15.5032   40.5536    9.5734 C   0  0  0  0  0  0  0  0  0  0  0  0
   14.4555   39.9245   10.4092 C   0  0  0  0  0  0  0  0  0  0  0  0
   14.7599   38.7811   11.1643 C   0  0  0  0  0  0  0  0  0  0  0  0
   13.7912   38.1898   11.9805 C   0  0  0  0  0  0  0  0  0  0  0  0
   12.5100   38.7414   12.0555 C   0  0  0  0  0  0  0  0  0  0  0  0
   12.1991   39.8860   11.3174 C   0  0  0  0  0  0  0  0  0  0  0  0
   13.1690   40.4763   10.5021 C   0  0  0  0  0  0  0  0  0  0  0  0
   12.9917   44.8467    3.6187 C   0  0  0  0  0  0  0  0  0  0  0  0
   11.7165   44.2826    3.4667 C   0  0  0  0  0  0  0  0  0  0  0  0
   10.8549   44.7413    2.4660 C   0  0  0  0  0  0  0  0  0  0  0  0
   11.2621   45.7679    1.6097 C   0  0  0  0  0  0  0  0  0  0  0  0
   12.5308   46.3357    1.7539 C   0  0  0  0  0  0  0  0  0  0  0  0
   13.3925   45.8770    2.7546 C   0  0  0  0  0  0  0  0  0  0  0  0
   13.4764   43.3093    5.5497 N   0  0  0  0  0  0  0  0  0  0  0  0
   15.5234   43.1445    6.9214 N   0  0  0  0  0  0  0  0  0  0  0  0
   15.1858   41.4800    8.5168 N   0  0  0  0  0  0  0  0  0  0  0  0
   13.7826   41.5331    7.6221 S   0  0  0  0  0  0  0  0  0  0  0  0
  4 20  1  0
  4 14  1  0
  5 23  1  0
  6 21  1  0
  6 22  1  0
  7  8  1  0
  9 10  2  0
 11 12  2  0
 13  8  2  0
 15 16  2  0
 17 18  2  0
 19 14  2  0
 20  5  1  0
 22 23  1  0
 22  7  1  0
  4  1  2  0
  5 21  2  0
  6  2  2  0
  7  3  2  0
  8  9  1  0
 10 11  1  0
 12 13  1  0
 14 15  1  0
 16 17  1  0
 18 19  1  0
M  END
>  <rmsd>  (1) 
0.19578284

$$$$
