MolPort-015-143-826 169935888 LN04836198 MCULE-1027342254 PubChem-53217105 ZINC000169935888
     RDKit          3D

 27 29  0  0  0  0  0  0  0  0999 V2000
   11.4607   39.5341    9.3056 C   0  0  0  0  0  0  0  0  0  0  0  0
   11.9117   40.2487   10.5815 C   0  0  0  0  0  0  0  0  0  0  0  0
   10.7328   40.1851   11.5484 C   0  0  0  0  0  0  0  0  0  0  0  0
   13.2566   39.6731   11.1918 C   0  0  0  0  0  0  0  0  0  0  0  0
   13.1061   39.1803   12.6283 C   0  0  0  0  0  0  0  0  0  0  0  0
   13.8422   38.5054   10.3950 C   0  0  0  0  0  0  0  0  0  0  0  0
   14.3194   41.9350    8.9072 C   0  0  0  0  0  0  0  0  0  0  0  0
   13.6171   42.4971    7.8361 C   0  0  0  0  0  0  0  0  0  0  0  0
   14.2601   42.7644    6.6227 C   0  0  0  0  0  0  0  0  0  0  0  0
   13.9680   44.2508    4.5746 C   0  0  0  0  0  0  0  0  0  0  0  0
   13.6369   45.3505    2.3847 C   0  0  0  0  0  0  0  0  0  0  0  0
   14.6657   44.6807    1.5379 C   0  0  0  0  0  0  0  0  0  0  0  0
   14.2864   43.6920    0.6232 C   0  0  0  0  0  0  0  0  0  0  0  0
   15.2543   43.0521   -0.1573 C   0  0  0  0  0  0  0  0  0  0  0  0
   16.6024   43.3980   -0.0217 C   0  0  0  0  0  0  0  0  0  0  0  0
   16.9830   44.3831    0.8948 C   0  0  0  0  0  0  0  0  0  0  0  0
   16.0154   45.0231    1.6753 C   0  0  0  0  0  0  0  0  0  0  0  0
   15.6199   42.4232    6.4732 C   0  0  0  0  0  0  0  0  0  0  0  0
   16.3198   41.8612    7.5451 C   0  0  0  0  0  0  0  0  0  0  0  0
   15.6743   41.6241    8.7606 C   0  0  0  0  0  0  0  0  0  0  0  0
   12.1376   41.5998   10.2786 O   0  0  0  0  0  0  0  0  0  0  0  0
   14.1915   40.7193   11.2005 O   0  0  0  0  0  0  0  0  0  0  0  0
   15.0372   44.8909    4.7720 O   0  0  0  0  0  0  0  0  0  0  0  0
   13.2072   44.4806    3.4262 O   0  0  0  0  0  0  0  0  0  0  0  0
   13.5898   41.6542   10.2645 B   0  0  0  0  0  0  0  0  0  0  0  0
   13.4886   43.3209    5.5505 N   0  0  0  0  0  0  0  0  0  0  0  0
   16.2570   42.5720    5.2858 F   0  0  0  0  0  0  0  0  0  0  0  0
  1  2  1  0
  2  3  1  0
  2 21  1  0
  4 22  1  0
  4  5  1  0
  4  6  1  0
  4  2  1  0
  8  9  2  0
  9 26  1  0
 10 24  1  0
 11 24  1  0
 11 12  1  0
 13 14  2  0
 15 16  2  0
 17 12  2  0
 18 27  1  0
 18 19  2  0
 20  7  2  0
 25 21  1  0
 25 22  1  0
 25  7  1  0
 26 10  1  0
  7  8  1  0
  9 18  1  0
 10 23  2  0
 12 13  1  0
 14 15  1  0
 16 17  1  0
 19 20  1  0
M  END
>  <rmsd>  (1) 
0.24753274

$$$$
