MolPort-005-164-924 11753617 CSSS00159809594 MCULE-5538880029 PubChem-42147430 ZINC000011753617
     RDKit          3D

 28 31  0  0  0  0  0  0  0  0999 V2000
   15.0631   44.8743    4.8100 O   0  0  0  0  0  0  0  0  0  0  0  0
   13.9283   44.3491    4.6444 C   0  0  0  0  0  0  0  0  0  0  0  0
   14.1993   42.7837    6.6404 C   0  0  0  0  0  0  0  0  0  0  0  0
   15.4582   43.1697    7.0612 C   0  0  0  0  0  0  0  0  0  0  0  0
   15.6883   42.3625    8.1698 C   0  0  0  0  0  0  0  0  0  0  0  0
   12.4178   41.1807    7.3359 C   0  0  0  0  0  0  0  0  0  0  0  0
   12.5404   39.6485    7.3347 C   0  0  0  0  0  0  0  0  0  0  0  0
   12.1918   39.0270    8.6888 C   0  0  0  0  0  0  0  0  0  0  0  0
   12.4165   39.2144   11.0197 C   0  0  0  0  0  0  0  0  0  0  0  0
   13.7434   38.6204   11.4761 C   0  0  0  0  0  0  0  0  0  0  0  0
   14.7646   39.7095   11.7844 C   0  0  0  0  0  0  0  0  0  0  0  0
   14.0652   41.8145   12.8973 C   0  0  0  0  0  0  0  0  0  0  0  0
   13.7205   42.1999   14.1808 C   0  0  0  0  0  0  0  0  0  0  0  0
   13.8217   41.0449   14.9431 C   0  0  0  0  0  0  0  0  0  0  0  0
   11.6557   41.0603    9.7923 C   0  0  0  0  0  0  0  0  0  0  0  0
   11.4596   41.7123    8.4107 C   0  0  0  0  0  0  0  0  0  0  0  0
   13.0672   44.8003    3.5376 C   0  0  0  0  0  0  0  0  0  0  0  0
   13.4942   45.8085    2.6632 C   0  0  0  0  0  0  0  0  0  0  0  0
   11.4637   45.6723    1.4402 C   0  0  0  0  0  0  0  0  0  0  0  0
   10.9964   44.6650    2.2862 C   0  0  0  0  0  0  0  0  0  0  0  0
   11.8044   44.2301    3.3378 C   0  0  0  0  0  0  0  0  0  0  0  0
   13.4702   43.3153    5.5265 N   0  0  0  0  0  0  0  0  0  0  0  0
   14.6240   41.5585    8.3767 N   0  0  0  0  0  0  0  0  0  0  0  0
   13.7285   41.8174    7.4406 N   0  0  0  0  0  0  0  0  0  0  0  0
   12.5861   39.9293    9.7653 N   0  0  0  0  0  0  0  0  0  0  0  0
   14.3444   40.5029   12.9289 N   0  0  0  0  0  0  0  0  0  0  0  0
   14.2067   40.0270   14.1518 N   0  0  0  0  0  0  0  0  0  0  0  0
   12.6922   46.2189    1.6439 N   0  0  0  0  0  0  0  0  0  0  0  0
  2 22  1  0
  2 17  1  0
  4  5  1  0
  6 24  1  0
  6  7  1  0
  7  8  1  0
  8 25  1  0
  9 25  1  0
  9 10  1  0
 10 11  1  0
 11 26  1  0
 13 14  1  0
 15 25  1  0
 15 16  1  0
 16  6  1  0
 18 28  2  0
 19 20  2  0
 21 17  2  0
 22  3  1  0
 24 23  1  0
 24  3  1  0
 26 12  1  0
 26 27  1  0
  2  1  2  0
  3  4  2  0
  5 23  2  0
 12 13  2  0
 14 27  2  0
 17 18  1  0
 19 28  1  0
 20 21  1  0
M  END
>  <rmsd>  (1) 
0.217109933

$$$$
