MolPort-005-289-825 5952430 CSSS03437130174 MCULE-4036785831 PubChem-17028188 ZINC000005952430
     RDKit          3D

 26 28  0  0  0  0  0  0  0  0999 V2000
   16.4501   40.8590   12.1930 C   0  0  0  0  0  0  0  0  0  0  0  0
   15.1865   41.4720   11.5876 C   0  0  0  0  0  0  0  0  0  0  0  0
   14.1970   39.3296   11.1518 C   0  0  0  0  0  0  0  0  0  0  0  0
   12.7671   39.3637   11.6552 C   0  0  0  0  0  0  0  0  0  0  0  0
   15.4711   40.3857    9.4690 C   0  0  0  0  0  0  0  0  0  0  0  0
   15.2070   41.3570    8.3644 C   0  0  0  0  0  0  0  0  0  0  0  0
   16.0781   42.3337    7.8539 C   0  0  0  0  0  0  0  0  0  0  0  0
   14.2761   42.7020    6.5525 C   0  0  0  0  0  0  0  0  0  0  0  0
   13.8912   44.3918    4.6938 C   0  0  0  0  0  0  0  0  0  0  0  0
   12.9667   44.9311    3.6811 C   0  0  0  0  0  0  0  0  0  0  0  0
   11.6801   44.3912    3.5371 C   0  0  0  0  0  0  0  0  0  0  0  0
   10.8022   44.9022    2.5764 C   0  0  0  0  0  0  0  0  0  0  0  0
   11.2045   45.9569    1.7528 C   0  0  0  0  0  0  0  0  0  0  0  0
   12.4844   46.5009    1.8893 C   0  0  0  0  0  0  0  0  0  0  0  0
   13.3624   45.9900    2.8499 C   0  0  0  0  0  0  0  0  0  0  0  0
   17.4632   42.5869    8.3207 C   0  0  0  0  0  0  0  0  0  0  0  0
   18.0823   41.7693    9.2788 C   0  0  0  0  0  0  0  0  0  0  0  0
   19.3904   42.0267    9.6984 C   0  0  0  0  0  0  0  0  0  0  0  0
   20.0961   43.1055    9.1612 C   0  0  0  0  0  0  0  0  0  0  0  0
   19.4934   43.9253    8.2043 C   0  0  0  0  0  0  0  0  0  0  0  0
   18.1850   43.6660    7.7864 C   0  0  0  0  0  0  0  0  0  0  0  0
   14.5485   40.6205   10.5735 N   0  0  0  0  0  0  0  0  0  0  0  0
   15.5402   43.0765    6.8456 N   0  0  0  0  0  0  0  0  0  0  0  0
   13.4732   43.3095    5.5363 N   0  0  0  0  0  0  0  0  0  0  0  0
   15.0460   44.8850    4.8149 O   0  0  0  0  0  0  0  0  0  0  0  0
   13.7525   41.4372    7.5197 S   0  0  0  0  0  0  0  0  0  0  0  0
  1  2  1  0
  2 22  1  0
  3 22  1  0
  3  4  1  0
  5 22  1  0
  5  6  1  0
  6 26  1  0
  7 23  1  0
  7 16  1  0
  8 24  1  0
  8 26  1  0
  9 10  1  0
 11 12  2  0
 13 14  2  0
 15 10  2  0
 17 18  2  0
 19 20  2  0
 21 16  2  0
 24  9  1  0
  6  7  2  0
  8 23  2  0
  9 25  2  0
 10 11  1  0
 12 13  1  0
 14 15  1  0
 16 17  1  0
 18 19  1  0
 20 21  1  0
M  END
>  <rmsd>  (1) 
0.203700945

$$$$
