MolPort-008-284-647 57823172 MCULE-2288730744 PubChem-46966760 ZINC000057823172
     RDKit          3D

 27 29  0  0  0  0  0  0  0  0999 V2000
   15.1850   37.8886    9.9374 C   0  0  0  0  0  0  0  0  0  0  0  0
   14.2076   38.6609   10.7520 C   0  0  0  0  0  0  0  0  0  0  0  0
   11.0072   39.1389   12.1951 C   0  0  0  0  0  0  0  0  0  0  0  0
   13.2431   40.1992   12.0029 C   0  0  0  0  0  0  0  0  0  0  0  0
   14.4294   39.8691   11.3795 C   0  0  0  0  0  0  0  0  0  0  0  0
   15.7267   41.5820    8.6944 C   0  0  0  0  0  0  0  0  0  0  0  0
   14.4342   42.0746    8.9131 C   0  0  0  0  0  0  0  0  0  0  0  0
   13.7104   42.6418    7.8628 C   0  0  0  0  0  0  0  0  0  0  0  0
   14.2695   42.7372    6.5844 C   0  0  0  0  0  0  0  0  0  0  0  0
   13.9396   44.3041    4.6124 C   0  0  0  0  0  0  0  0  0  0  0  0
   13.0696   44.6966    3.4510 C   0  0  0  0  0  0  0  0  0  0  0  0
   12.8264   46.9755    4.1890 C   0  0  0  0  0  0  0  0  0  0  0  0
   12.0722   47.5435    5.3665 C   0  0  0  0  0  0  0  0  0  0  0  0
   11.3848   46.3525    5.9754 C   0  0  0  0  0  0  0  0  0  0  0  0
   11.2137   45.3770    4.8301 C   0  0  0  0  0  0  0  0  0  0  0  0
   15.5610   42.2126    6.3540 C   0  0  0  0  0  0  0  0  0  0  0  0
   16.1673   42.1684    4.9931 C   0  0  0  0  0  0  0  0  0  0  0  0
   16.2776   41.6446    7.4122 C   0  0  0  0  0  0  0  0  0  0  0  0
   12.9437   38.2667   10.9814 N   0  0  0  0  0  0  0  0  0  0  0  0
   12.3808   39.1997   11.7330 N   0  0  0  0  0  0  0  0  0  0  0  0
   16.4897   40.9954    9.7521 N   0  0  0  0  0  0  0  0  0  0  0  0
   13.4772   43.3175    5.5405 N   0  0  0  0  0  0  0  0  0  0  0  0
   12.1176   45.7758    3.7516 N   0  0  0  0  0  0  0  0  0  0  0  0
   15.9054   40.8194   11.3743 S   0  0  0  0  0  0  0  0  0  0  0  0
   15.6450   42.1796   11.9582 O   0  0  0  0  0  0  0  0  0  0  0  0
   16.9432   40.1198   12.2051 O   0  0  0  0  0  0  0  0  0  0  0  0
   15.0419   44.8883    4.7899 O   0  0  0  0  0  0  0  0  0  0  0  0
  1  2  1  0
  3 20  1  0
  5  2  1  0
  7  8  2  0
  9 22  1  0
  9 16  2  0
 11 10  1  0
 11 23  1  0
 12 23  1  0
 12 13  1  0
 13 14  1  0
 14 15  1  0
 15 23  1  0
 17 16  1  0
 18  6  2  0
 20 19  1  0
 20  4  1  0
 21  6  1  0
 22 10  1  0
 24  5  1  0
 24 21  1  0
  2 19  2  0
  4  5  2  0
  6  7  1  0
  8  9  1  0
 10 27  2  0
 16 18  1  0
 24 25  2  0
 24 26  2  0
M  END
>  <rmsd>  (1) 
0.235649794

$$$$
