MolPort-003-061-890 9347616 CSSS03437154845 LN01433103 MCULE-6650959518 PubChem-3622284 ZINC000009347616
     RDKit          3D

 33 36  0  0  0  0  0  0  0  0999 V2000
   14.2510   42.6933    6.5635 C   0  0  0  0  0  0  0  0  0  0  0  0
   13.8521   44.4877    4.8045 C   0  0  0  0  0  0  0  0  0  0  0  0
   12.8509   45.2053    3.9966 C   0  0  0  0  0  0  0  0  0  0  0  0
   11.5229   44.7612    3.9569 C   0  0  0  0  0  0  0  0  0  0  0  0
   10.5722   45.4440    3.1937 C   0  0  0  0  0  0  0  0  0  0  0  0
   10.9288   46.5869    2.4620 C   0  0  0  0  0  0  0  0  0  0  0  0
   12.2626   47.0210    2.4962 C   0  0  0  0  0  0  0  0  0  0  0  0
   13.2146   46.3397    3.2589 C   0  0  0  0  0  0  0  0  0  0  0  0
    9.9043   47.2771    1.6381 C   0  0  0  0  0  0  0  0  0  0  0  0
   10.0688   48.6573    1.1153 C   0  0  0  0  0  0  0  0  0  0  0  0
    9.2368   49.1076    0.0777 C   0  0  0  0  0  0  0  0  0  0  0  0
    9.3535   50.4107   -0.4147 C   0  0  0  0  0  0  0  0  0  0  0  0
   10.2996   51.2812    0.1311 C   0  0  0  0  0  0  0  0  0  0  0  0
   11.1262   50.8496    1.1709 C   0  0  0  0  0  0  0  0  0  0  0  0
   11.0081   49.5463    1.6621 C   0  0  0  0  0  0  0  0  0  0  0  0
   15.2464   41.1067    8.1970 C   0  0  0  0  0  0  0  0  0  0  0  0
   15.5769   42.4308    8.4614 C   0  0  0  0  0  0  0  0  0  0  0  0
   16.3657   42.8160    9.6819 C   0  0  0  0  0  0  0  0  0  0  0  0
   17.1935   41.6294   10.1840 C   0  0  0  0  0  0  0  0  0  0  0  0
   16.3028   39.6514   11.4466 C   0  0  0  0  0  0  0  0  0  0  0  0
   13.9789   38.8344   11.0626 C   0  0  0  0  0  0  0  0  0  0  0  0
   13.1903   40.0572   11.4935 C   0  0  0  0  0  0  0  0  0  0  0  0
   15.7493   39.9456    8.9951 C   0  0  0  0  0  0  0  0  0  0  0  0
   14.9953   43.3357    7.5598 C   0  0  0  0  0  0  0  0  0  0  0  0
   15.0699   44.7653    7.7281 C   0  0  0  0  0  0  0  0  0  0  0  0
   13.4743   43.3122    5.5312 N   0  0  0  0  0  0  0  0  0  0  0  0
   16.3601   40.4261   10.2369 N   0  0  0  0  0  0  0  0  0  0  0  0
   15.1295   45.9130    7.8655 N   0  0  0  0  0  0  0  0  0  0  0  0
   15.0499   44.8834    4.8181 O   0  0  0  0  0  0  0  0  0  0  0  0
    8.8376   46.6584    1.3678 O   0  0  0  0  0  0  0  0  0  0  0  0
   15.2315   38.7949   11.7353 O   0  0  0  0  0  0  0  0  0  0  0  0
   17.2390   39.7419   12.2849 O   0  0  0  0  0  0  0  0  0  0  0  0
   14.2654   41.0314    6.8362 S   0  0  0  0  0  0  0  0  0  0  0  0
  1 26  1  0
  1 33  1  0
  2  3  1  0
  4  5  2  0
  6  7  2  0
  6  9  1  0
  8  3  2  0
  9 10  1  0
 11 12  2  0
 13 14  2  0
 15 10  2  0
 16 33  1  0
 17 24  1  0
 18 17  1  0
 18 19  1  0
 19 27  1  0
 20 31  1  0
 21 31  1  0
 21 22  1  0
 23 27  1  0
 23 16  1  0
 24 25  1  0
 26  2  1  0
 27 20  1  0
  2 29  2  0
  3  4  1  0
  5  6  1  0
  7  8  1  0
  9 30  2  0
 10 11  1  0
 12 13  1  0
 14 15  1  0
 16 17  2  0
 20 32  2  0
 24  1  2  0
 25 28  3  0
M  END
>  <rmsd>  (1) 
0.219988793

$$$$
