MolPort-035-673-738 CSSS03437791417 MCULE-9220016163 PubChem-91938455
     RDKit          3D

 30 32  0  0  0  0  0  0  0  0999 V2000
   13.4646   34.6626   10.9525 C   0  0  0  0  0  0  0  0  0  0  0  0
   14.6208   35.4115   10.3235 C   0  0  0  0  0  0  0  0  0  0  0  0
   14.4269   37.7855    9.6941 C   0  0  0  0  0  0  0  0  0  0  0  0
   14.3677   39.2306   10.1078 C   0  0  1  0  0  0  0  0  0  0  0  0
   13.5091   39.3666   11.3559 C   0  0  0  0  0  0  0  0  0  0  0  0
   14.3461   41.0193    8.3370 C   0  0  0  0  0  0  0  0  0  0  0  0
   15.6558   41.4143    8.6265 C   0  0  0  0  0  0  0  0  0  0  0  0
   15.7688   39.7129   10.4250 C   0  0  0  0  0  0  0  0  0  0  0  0
   16.2573   42.4413    7.8956 C   0  0  0  0  0  0  0  0  0  0  0  0
   15.5475   43.0751    6.8719 C   0  0  0  0  0  0  0  0  0  0  0  0
   14.2320   42.6866    6.5745 C   0  0  0  0  0  0  0  0  0  0  0  0
   13.9047   44.3816    4.6800 C   0  0  0  0  0  0  0  0  0  0  0  0
   12.9695   44.9202    3.6581 C   0  0  0  0  0  0  0  0  0  0  0  0
   11.1315   46.5750    3.5409 C   0  0  0  0  0  0  0  0  0  0  0  0
   10.3360   47.5213    4.2064 C   0  0  0  0  0  0  0  0  0  0  0  0
    9.7936   48.7005    6.3149 C   0  0  0  0  0  0  0  0  0  0  0  0
    9.3376   48.2098    3.4965 C   0  0  0  0  0  0  0  0  0  0  0  0
    9.1337   47.9585    2.1379 C   0  0  0  0  0  0  0  0  0  0  0  0
    9.9247   47.0175    1.4766 C   0  0  0  0  0  0  0  0  0  0  0  0
   10.9191   46.3284    2.1741 C   0  0  0  0  0  0  0  0  0  0  0  0
   13.6386   41.6568    7.3133 C   0  0  0  0  0  0  0  0  0  0  0  0
   14.5372   36.7866   10.6660 O   0  0  0  0  0  0  0  0  0  0  0  0
   14.4346   37.4827    8.4686 O   0  0  0  0  0  0  0  0  0  0  0  0
   13.7363   39.9917    9.0647 O   0  0  0  0  0  0  0  0  0  0  0  0
   16.4261   39.1742   11.3560 O   0  0  0  0  0  0  0  0  0  0  0  0
   15.0479   44.8953    4.8024 O   0  0  0  0  0  0  0  0  0  0  0  0
   12.1230   45.8938    4.2548 O   0  0  0  0  0  0  0  0  0  0  0  0
   10.5537   47.7606    5.5677 O   0  0  0  0  0  0  0  0  0  0  0  0
   16.3685   40.7687    9.6747 N   0  0  0  0  0  0  0  0  0  0  0  0
   13.4723   43.3134    5.5323 N   0  0  0  0  0  0  0  0  0  0  0  0
  1  2  1  0
  2 22  1  0
  3 22  1  0
  4  3  1  0
  4  5  1  1
  4 24  1  0
  4  8  1  0
  6 24  1  0
  7 29  1  0
  7  9  2  0
 10 11  2  0
 11 30  1  0
 13 12  1  0
 13 27  1  0
 14 27  1  0
 15 28  1  0
 15 17  2  0
 16 28  1  0
 18 19  2  0
 20 14  2  0
 21  6  2  0
 29  8  1  0
 30 12  1  0
  3 23  2  0
  6  7  1  0
  8 25  2  0
  9 10  1  0
 11 21  1  0
 12 26  2  0
 14 15  1  0
 17 18  1  0
 19 20  1  0
M  END
>  <rmsd>  (1) 
0.241369143

$$$$
