MolPort-020-292-548 MCULE-9838256581 PubChem-110265016
     RDKit          3D

 33 37  0  0  0  0  0  0  0  0999 V2000
   17.7000   42.7872    8.1105 C   0  0  0  0  0  0  0  0  0  0  0  0
   16.2784   42.4266    7.8712 C   0  0  0  0  0  0  0  0  0  0  0  0
   15.5695   43.0357    6.8344 C   0  0  0  0  0  0  0  0  0  0  0  0
   14.2295   42.6916    6.6156 C   0  0  0  0  0  0  0  0  0  0  0  0
   13.6303   41.7359    7.4394 C   0  0  0  0  0  0  0  0  0  0  0  0
   14.3686   41.1478    8.4698 C   0  0  0  0  0  0  0  0  0  0  0  0
   13.7246   40.1208    9.3397 C   0  0  2  0  0  0  0  0  0  0  0  0
   13.7260   40.5634   10.8069 C   0  0  0  0  0  0  0  0  0  0  0  0
   13.6835   39.3789   11.7759 C   0  0  0  0  0  0  0  0  0  0  0  0
   13.0073   38.1727   11.1254 C   0  0  0  0  0  0  0  0  0  0  0  0
   14.4070   38.7591    9.1741 C   0  0  0  0  0  0  0  0  0  0  0  0
   12.7843   37.0434    9.0768 C   0  0  0  0  0  0  0  0  0  0  0  0
   13.4199   35.9075    8.3410 C   0  0  0  0  0  0  0  0  0  0  0  0
   13.8089   34.7622    9.0476 C   0  0  0  0  0  0  0  0  0  0  0  0
   14.3929   33.6891    8.3727 C   0  0  0  0  0  0  0  0  0  0  0  0
   14.6144   33.7651    6.9924 C   0  0  0  0  0  0  0  0  0  0  0  0
   14.2134   34.8970    6.2805 C   0  0  0  0  0  0  0  0  0  0  0  0
   13.6101   35.9770    6.9486 C   0  0  0  0  0  0  0  0  0  0  0  0
   13.3800   37.2740    4.8506 C   0  0  0  0  0  0  0  0  0  0  0  0
   15.8975   31.6699    7.0910 C   0  0  0  0  0  0  0  0  0  0  0  0
   15.0938   31.3321    8.3486 C   0  0  0  0  0  0  0  0  0  0  0  0
   13.8537   44.3211    4.6624 C   0  0  0  0  0  0  0  0  0  0  0  0
   15.4411   45.9167    3.9261 C   0  0  0  0  0  0  0  0  0  0  0  0
   14.5707   46.3368    2.9224 C   0  0  0  0  0  0  0  0  0  0  0  0
   13.3296   45.7119    2.8205 C   0  0  0  0  0  0  0  0  0  0  0  0
   15.6695   41.5037    8.6617 N   0  0  0  0  0  0  0  0  0  0  0  0
   13.7529   37.6883    9.9520 N   0  0  0  0  0  0  0  0  0  0  0  0
   13.4515   43.2811    5.5642 N   0  0  0  0  0  0  0  0  0  0  0  0
   15.0698   44.9223    4.7740 N   0  0  0  0  0  0  0  0  0  0  0  0
   12.9943   44.7213    3.6880 N   0  0  0  0  0  0  0  0  0  0  0  0
   13.2047   37.1223    6.2526 O   0  0  0  0  0  0  0  0  0  0  0  0
   15.2380   32.6952    6.3441 O   0  0  0  0  0  0  0  0  0  0  0  0
   14.7617   32.5282    9.0582 O   0  0  0  0  0  0  0  0  0  0  0  0
  1  2  1  0
  2 26  2  0
  3  4  2  0
  4 28  1  0
  5  6  2  0
  7  6  1  6
  7  8  1  0
  8  9  1  0
  9 10  1  0
 10 27  1  0
 11 27  1  0
 11  7  1  0
 12 27  1  0
 12 13  1  0
 14 15  2  0
 15 33  1  0
 16 17  2  0
 16 32  1  0
 18 31  1  0
 18 13  2  0
 19 31  1  0
 20 32  1  0
 20 21  1  0
 21 33  1  0
 22 30  2  0
 23 29  2  0
 24 25  2  0
 28 22  1  0
  2  3  1  0
  4  5  1  0
  6 26  1  0
 13 14  1  0
 15 16  1  0
 17 18  1  0
 22 29  1  0
 23 24  1  0
 25 30  1  0
M  END
>  <rmsd>  (1) 
0.247277379

$$$$
