MolPort-007-595-937 CSSS00025689140 MCULE-2591272368 PubChem-22423742
     RDKit          3D

 19 20  0  0  0  0  0  0  0  0999 V2000
   13.4834   39.4307   11.2674 C   0  0  0  0  0  0  0  0  0  0  0  0
   13.4482   40.4342   10.1346 C   0  0  1  0  0  0  0  0  0  0  0  0
   14.5656   40.1222    9.1528 C   0  0  0  0  0  0  0  0  0  0  0  0
   14.7981   41.2655    8.2227 C   0  0  0  0  0  0  0  0  0  0  0  0
   14.2765   42.6932    6.5690 C   0  0  0  0  0  0  0  0  0  0  0  0
   13.8775   44.4057    4.7129 C   0  0  0  0  0  0  0  0  0  0  0  0
   12.9490   44.9596    3.6975 C   0  0  0  0  0  0  0  0  0  0  0  0
   11.5401   44.7989    3.7487 C   0  0  0  0  0  0  0  0  0  0  0  0
   10.7413   45.3462    2.7386 C   0  0  0  0  0  0  0  0  0  0  0  0
   11.3143   46.0519    1.6805 C   0  0  0  0  0  0  0  0  0  0  0  0
   12.6963   46.2235    1.6273 C   0  0  0  0  0  0  0  0  0  0  0  0
   13.5042   45.6831    2.6290 C   0  0  0  0  0  0  0  0  0  0  0  0
   12.2124   40.3571    9.4914 O   0  0  0  0  0  0  0  0  0  0  0  0
   15.0400   44.8856    4.8088 O   0  0  0  0  0  0  0  0  0  0  0  0
   15.9758   41.9502    8.2365 N   0  0  0  0  0  0  0  0  0  0  0  0
   13.4842   43.3085    5.5470 N   0  0  0  0  0  0  0  0  0  0  0  0
   13.8501   41.6533    7.3122 N   0  0  0  0  0  0  0  0  0  0  0  0
   15.8139   43.1053    7.0530 S   0  0  0  0  0  0  0  0  0  0  0  0
   10.7008   43.9895    5.0651 Cl  0  0  0  0  0  0  0  0  0  0  0  0
  2  1  1  1
  2 13  1  0
  2  3  1  0
  3  4  1  0
  4 17  1  0
  5 18  1  0
  5 16  1  0
  6  7  1  0
  8 19  1  0
  8  9  2  0
 10 11  2  0
 12  7  2  0
 15 18  1  0
 16  6  1  0
  4 15  2  0
  5 17  2  0
  6 14  2  0
  7  8  1  0
  9 10  1  0
 11 12  1  0
M  END
>  <rmsd>  (1) 
0.203366101

$$$$
