MolPort-002-278-583 CSC026731956 CSSS00026731956 MCULE-9217409368 PubChem-959501 Z57089957 ZINC00568481
     RDKit          3D

 25 26  0  0  0  0  0  0  0  0999 V2000
   12.7660   39.2223   11.8051 C   0  0  0  0  0  0  0  0  0  0  0  0
   13.9165   38.9150   10.8697 C   0  0  0  0  0  0  0  0  0  0  0  0
   15.0039   40.6819    9.5422 C   0  0  0  0  0  0  0  0  0  0  0  0
   14.9496   41.6366    8.4161 C   0  0  0  0  0  0  0  0  0  0  0  0
   15.9344   42.5343    8.0204 C   0  0  0  0  0  0  0  0  0  0  0  0
   17.2661   42.7168    8.6630 C   0  0  0  0  0  0  0  0  0  0  0  0
   14.3016   42.8113    6.6602 C   0  0  0  0  0  0  0  0  0  0  0  0
   13.9019   44.3338    4.6670 C   0  0  0  0  0  0  0  0  0  0  0  0
   12.4574   46.1370    1.6845 C   0  0  0  0  0  0  0  0  0  0  0  0
   12.8499   47.1908    0.7324 C   0  0  0  0  0  0  0  0  0  0  0  0
   11.9718   47.5910   -0.2860 C   0  0  0  0  0  0  0  0  0  0  0  0
   12.3451   48.5909   -1.1889 C   0  0  0  0  0  0  0  0  0  0  0  0
   13.5992   49.1979   -1.0801 C   0  0  0  0  0  0  0  0  0  0  0  0
   14.4799   48.8053   -0.0688 C   0  0  0  0  0  0  0  0  0  0  0  0
   14.1066   47.8054    0.8341 C   0  0  0  0  0  0  0  0  0  0  0  0
   13.9015   41.8230    7.5332 C   0  0  0  0  0  0  0  0  0  0  0  0
   12.5915   41.1103    7.5114 C   0  0  0  0  0  0  0  0  0  0  0  0
   13.9159   39.8443    9.7963 O   0  0  0  0  0  0  0  0  0  0  0  0
   16.0305   40.6243   10.2728 O   0  0  0  0  0  0  0  0  0  0  0  0
   15.0332   44.8816    4.7658 O   0  0  0  0  0  0  0  0  0  0  0  0
   11.3261   45.5874    1.5889 O   0  0  0  0  0  0  0  0  0  0  0  0
   15.5424   43.2532    6.9487 N   0  0  0  0  0  0  0  0  0  0  0  0
   13.5015   43.3085    5.5812 N   0  0  0  0  0  0  0  0  0  0  0  0
   13.0038   44.7346    3.6347 N   0  0  0  0  0  0  0  0  0  0  0  0
   13.3564   45.7343    2.7190 N   0  0  0  0  0  0  0  0  0  0  0  0
  1  2  1  0
  2 18  1  0
  3 18  1  0
  3  4  1  0
  5 22  1  0
  6  5  1  0
  7 23  1  0
  8 24  1  0
  9 10  1  0
 11 12  2  0
 13 14  2  0
 15 10  2  0
 16  4  1  0
 17 16  1  0
 22  7  1  0
 23  8  1  0
 24 25  1  0
 25  9  1  0
  3 19  2  0
  4  5  2  0
  7 16  2  0
  8 20  2  0
  9 21  2  0
 10 11  1  0
 12 13  1  0
 14 15  1  0
M  END
>  <rmsd>  (1) 
0.205425203

$$$$
