MolPort-020-292-454 MCULE-7428069352 PubChem-110264922
     RDKit          3D

 31 34  0  0  0  0  0  0  0  0999 V2000
   17.5715   43.0395    8.3468 C   0  0  0  0  0  0  0  0  0  0  0  0
   16.1982   42.5797    8.0146 C   0  0  0  0  0  0  0  0  0  0  0  0
   15.5057   43.1625    6.9519 C   0  0  0  0  0  0  0  0  0  0  0  0
   14.2114   42.7233    6.6445 C   0  0  0  0  0  0  0  0  0  0  0  0
   13.6386   41.7063    7.4121 C   0  0  0  0  0  0  0  0  0  0  0  0
   14.3597   41.1452    8.4692 C   0  0  0  0  0  0  0  0  0  0  0  0
   13.7419   40.0574    9.2834 C   0  0  2  0  0  0  0  0  0  0  0  0
   13.6202   40.4798   10.7411 C   0  0  0  0  0  0  0  0  0  0  0  0
   13.0045   39.3464   11.5448 C   0  0  0  0  0  0  0  0  0  0  0  0
   13.8540   38.0813   11.3903 C   0  0  0  0  0  0  0  0  0  0  0  0
   14.5650   38.7676    9.1734 C   0  0  0  0  0  0  0  0  0  0  0  0
   12.7271   37.2491    9.4320 C   0  0  0  0  0  0  0  0  0  0  0  0
   12.5455   35.7828    9.6234 C   0  0  0  0  0  0  0  0  0  0  0  0
   13.4339   33.4399    9.0813 C   0  0  0  0  0  0  0  0  0  0  0  0
   12.4714   32.7560    9.8402 C   0  0  0  0  0  0  0  0  0  0  0  0
   12.4823   31.3596    9.9029 C   0  0  0  0  0  0  0  0  0  0  0  0
   13.4557   30.6374    9.2076 C   0  0  0  0  0  0  0  0  0  0  0  0
   14.4173   31.3117    8.4504 C   0  0  0  0  0  0  0  0  0  0  0  0
   14.4053   32.7084    8.3885 C   0  0  0  0  0  0  0  0  0  0  0  0
   13.8513   44.3261    4.6656 C   0  0  0  0  0  0  0  0  0  0  0  0
   15.4472   45.9060    3.9138 C   0  0  0  0  0  0  0  0  0  0  0  0
   14.5748   46.3284    2.9128 C   0  0  0  0  0  0  0  0  0  0  0  0
   13.3280   45.7130    2.8205 C   0  0  0  0  0  0  0  0  0  0  0  0
   15.6172   41.5914    8.7454 N   0  0  0  0  0  0  0  0  0  0  0  0
   14.0108   37.6748    9.9847 N   0  0  0  0  0  0  0  0  0  0  0  0
   13.4558   34.8711    8.9940 N   0  0  0  0  0  0  0  0  0  0  0  0
   13.4511   43.2830    5.5646 N   0  0  0  0  0  0  0  0  0  0  0  0
   15.0729   44.9182    4.7679 N   0  0  0  0  0  0  0  0  0  0  0  0
   12.9902   44.7283    3.6935 N   0  0  0  0  0  0  0  0  0  0  0  0
   11.5882   35.3686   10.3288 O   0  0  0  0  0  0  0  0  0  0  0  0
   13.4670   29.2843    9.2672 F   0  0  0  0  0  0  0  0  0  0  0  0
  1  2  1  0
  2 24  2  0
  3  4  2  0
  4 27  1  0
  5  6  2  0
  7  6  1  6
  7  8  1  0
  8  9  1  0
  9 10  1  0
 10 25  1  0
 11 25  1  0
 11  7  1  0
 12 25  1  0
 12 13  1  0
 13 26  1  0
 15 16  2  0
 17 18  2  0
 17 31  1  0
 19 14  2  0
 20 29  2  0
 21 28  2  0
 22 23  2  0
 26 14  1  0
 27 20  1  0
  2  3  1  0
  4  5  1  0
  6 24  1  0
 13 30  2  0
 14 15  1  0
 16 17  1  0
 18 19  1  0
 20 28  1  0
 21 22  1  0
 23 29  1  0
M  END
>  <rmsd>  (1) 
0.245315015

$$$$
