MolPort-002-605-953 2394610 CSSS00160675838 LN00665856 MCULE-9368356693 PubChem-1993559 ZINC000002394610 ZINC02394610
     RDKit          3D

 26 29  0  0  0  0  0  0  0  0999 V2000
   14.2891   38.7740   11.6932 C   0  0  0  0  0  0  0  0  0  0  0  0
   13.0420   39.4340   11.1353 C   0  0  0  0  0  0  0  0  0  0  0  0
   13.3323   40.0552    9.7810 C   0  0  0  0  0  0  0  0  0  0  0  0
   14.1217   41.3430    9.9469 C   0  0  0  0  0  0  0  0  0  0  0  0
   14.1593   42.8259    6.6930 C   0  0  0  0  0  0  0  0  0  0  0  0
   14.0229   44.2091    4.5524 C   0  0  0  0  0  0  0  0  0  0  0  0
   13.3326   44.3948    3.2722 C   0  0  0  0  0  0  0  0  0  0  0  0
   12.1758   43.7517    2.8853 C   0  0  0  0  0  0  0  0  0  0  0  0
   11.9073   44.2397    1.6183 C   0  0  0  0  0  0  0  0  0  0  0  0
   12.9139   45.1425    1.3202 C   0  0  0  0  0  0  0  0  0  0  0  0
   15.5231   42.6432    6.8636 C   0  0  0  0  0  0  0  0  0  0  0  0
   16.6377   42.8444    6.0556 C   0  0  0  0  0  0  0  0  0  0  0  0
   17.8852   42.4742    6.5872 C   0  0  0  0  0  0  0  0  0  0  0  0
   19.0515   42.6589    5.8419 C   0  0  0  0  0  0  0  0  0  0  0  0
   20.2888   42.2858    6.3760 C   0  0  0  0  0  0  0  0  0  0  0  0
   21.5281   42.4847    5.5807 C   0  0  0  0  0  0  0  0  0  0  0  0
   20.3646   41.7253    7.6559 C   0  0  0  0  0  0  0  0  0  0  0  0
   19.2051   41.5325    8.4134 C   0  0  0  0  0  0  0  0  0  0  0  0
   17.9618   41.9016    7.8945 C   0  0  0  0  0  0  0  0  0  0  0  0
   15.6363   42.0812    8.1017 C   0  0  0  0  0  0  0  0  0  0  0  0
   14.4204   41.9163    8.6439 N   0  0  0  0  0  0  0  0  0  0  0  0
   13.5069   42.3617    7.7874 N   0  0  0  0  0  0  0  0  0  0  0  0
   13.4786   43.3175    5.5322 N   0  0  0  0  0  0  0  0  0  0  0  0
   16.8275   41.7049    8.6314 N   0  0  0  0  0  0  0  0  0  0  0  0
   15.0641   44.8746    4.7963 O   0  0  0  0  0  0  0  0  0  0  0  0
   13.7447   45.2068    2.3323 O   0  0  0  0  0  0  0  0  0  0  0  0
  1  2  1  0
  2  3  1  0
  3  4  1  0
  4 21  1  0
  5 23  1  0
  5 11  1  0
  6  7  1  0
  7 26  1  0
  8  9  1  0
 10 26  1  0
 12 13  2  0
 14 15  2  0
 16 15  1  0
 17 18  2  0
 19 24  2  0
 19 13  1  0
 20 21  1  0
 20 11  2  0
 21 22  1  0
 23  6  1  0
  5 22  2  0
  6 25  2  0
  7  8  2  0
  9 10  2  0
 11 12  1  0
 13 14  1  0
 15 17  1  0
 18 19  1  0
 20 24  1  0
M  END
>  <rmsd>  (1) 
0.248601869

$$$$
