MolPort-005-162-056 15076094 CSSS00159571217 MCULE-1023825194 PubChem-26408870 ZINC000015076094
     RDKit          3D

 27 29  0  0  0  0  0  0  0  0999 V2000
   12.4383   46.2819    1.7462 C   0  0  0  0  0  0  0  0  0  0  0  0
   13.5631   45.6745    2.5572 C   0  0  0  0  0  0  0  0  0  0  0  0
   14.5515   45.0131    1.6155 C   0  0  0  0  0  0  0  0  0  0  0  0
   12.9878   44.6448    3.5214 C   0  0  0  0  0  0  0  0  0  0  0  0
   13.9171   44.2971    4.6462 C   0  0  0  0  0  0  0  0  0  0  0  0
   14.2679   42.8576    6.7192 C   0  0  0  0  0  0  0  0  0  0  0  0
   15.5252   43.2967    7.0901 C   0  0  0  0  0  0  0  0  0  0  0  0
   15.8024   42.5525    8.2322 C   0  0  0  0  0  0  0  0  0  0  0  0
   12.5657   41.2211    7.5267 C   0  0  0  0  0  0  0  0  0  0  0  0
   12.8056   39.7255    7.3844 C   0  0  0  0  0  0  0  0  0  0  0  0
   11.4790   38.9678    7.3747 C   0  0  0  0  0  0  0  0  0  0  0  0
   10.9294   38.5083    9.7388 C   0  0  0  0  0  0  0  0  0  0  0  0
   12.2229   38.8662   10.4085 C   0  0  0  0  0  0  0  0  0  0  0  0
   12.2321   39.7878   11.4615 C   0  0  0  0  0  0  0  0  0  0  0  0
   13.4308   40.1036   12.1068 C   0  0  0  0  0  0  0  0  0  0  0  0
   14.6231   39.4894   11.7124 C   0  0  0  0  0  0  0  0  0  0  0  0
   14.6124   38.5439   10.6763 C   0  0  0  0  0  0  0  0  0  0  0  0
   13.4110   38.2279   10.0355 C   0  0  0  0  0  0  0  0  0  0  0  0
   10.4451   40.7318    8.7661 C   0  0  0  0  0  0  0  0  0  0  0  0
   11.7667   41.4986    8.7913 C   0  0  0  0  0  0  0  0  0  0  0  0
   15.0353   44.8700    4.7620 O   0  0  0  0  0  0  0  0  0  0  0  0
   15.8092   39.8191   12.3565 O   0  0  0  0  0  0  0  0  0  0  0  0
   13.5036   43.3049    5.5915 N   0  0  0  0  0  0  0  0  0  0  0  0
   14.7658   41.7315    8.5044 N   0  0  0  0  0  0  0  0  0  0  0  0
   13.8409   41.9249    7.5809 N   0  0  0  0  0  0  0  0  0  0  0  0
   10.6273   39.2912    8.5293 N   0  0  0  0  0  0  0  0  0  0  0  0
   16.0897   37.7483   10.1660 Cl  0  0  0  0  0  0  0  0  0  0  0  0
  1  2  1  0
  2  3  1  0
  2  4  1  0
  4  5  1  0
  5 23  1  0
  7  8  1  0
  9 25  1  0
  9 10  1  0
 10 11  1  0
 11 26  1  0
 12 26  1  0
 12 13  1  0
 14 15  2  0
 16 22  1  0
 16 17  2  0
 17 27  1  0
 18 13  2  0
 19 26  1  0
 19 20  1  0
 20  9  1  0
 23  6  1  0
 25 24  1  0
 25  6  1  0
  5 21  2  0
  6  7  2  0
  8 24  2  0
 13 14  1  0
 15 16  1  0
 17 18  1  0
M  END
>  <rmsd>  (1) 
0.233180851

$$$$
