MolPort-008-272-732 35316707 MCULE-3221739527 PubChem-46951627 ZINC000035316707
     RDKit          3D

 28 31  0  0  0  0  0  0  0  0999 V2000
   14.7349   42.2398    2.1111 C   0  0  0  0  0  0  0  0  0  0  0  0
   15.4934   43.2444    0.4324 C   0  0  0  0  0  0  0  0  0  0  0  0
   14.3368   43.8671    0.8141 C   0  0  0  0  0  0  0  0  0  0  0  0
   13.8361   44.9810    0.1430 C   0  0  0  0  0  0  0  0  0  0  0  0
   14.5720   45.4481   -0.9621 C   0  0  0  0  0  0  0  0  0  0  0  0
   15.7664   44.8032   -1.3595 C   0  0  0  0  0  0  0  0  0  0  0  0
   16.2437   43.6812   -0.6552 C   0  0  0  0  0  0  0  0  0  0  0  0
   12.6506   43.5622    2.6644 C   0  0  0  0  0  0  0  0  0  0  0  0
   12.9328   44.7242    3.6088 C   0  0  0  0  0  0  0  0  0  0  0  0
   13.8914   44.3239    4.6782 C   0  0  0  0  0  0  0  0  0  0  0  0
   14.3732   42.7152    6.6047 C   0  0  0  0  0  0  0  0  0  0  0  0
   16.1479   41.9516    8.0829 C   0  0  0  0  0  0  0  0  0  0  0  0
   14.9089   41.3694    8.3076 C   0  0  0  0  0  0  0  0  0  0  0  0
   14.7459   40.4203    9.3216 C   0  0  0  0  0  0  0  0  0  0  0  0
   15.8715   40.0765   10.0997 C   0  0  0  0  0  0  0  0  0  0  0  0
   17.1221   40.6764    9.8592 C   0  0  0  0  0  0  0  0  0  0  0  0
   17.2704   41.6274    8.8388 C   0  0  0  0  0  0  0  0  0  0  0  0
   13.2358   38.9009   10.5778 C   0  0  0  0  0  0  0  0  0  0  0  0
   13.0812   39.6225   11.9034 C   0  0  0  0  0  0  0  0  0  0  0  0
   14.6350   41.4086    3.0522 O   0  0  0  0  0  0  0  0  0  0  0  0
   15.7312   42.2378    1.2412 O   0  0  0  0  0  0  0  0  0  0  0  0
   15.0069   44.9029    4.7505 O   0  0  0  0  0  0  0  0  0  0  0  0
   13.4912   39.8370    9.5367 O   0  0  0  0  0  0  0  0  0  0  0  0
   16.6602   45.4063   -2.7378 Cl  0  0  0  0  0  0  0  0  0  0  0  0
   13.8384   43.2304    1.8858 N   0  0  0  0  0  0  0  0  0  0  0  0
   13.5243   43.2991    5.6097 N   0  0  0  0  0  0  0  0  0  0  0  0
   13.9158   41.7907    7.4825 N   0  0  0  0  0  0  0  0  0  0  0  0
   16.0277   43.0375    6.8108 S   0  0  0  0  0  0  0  0  0  0  0  0
  1 21  1  0
  2 21  1  0
  3  4  2  0
  3 25  1  0
  5  6  2  0
  6 24  1  0
  7  2  2  0
  8 25  1  0
  8  9  1  0
  9 10  1  0
 10 26  1  0
 11 28  1  0
 12 28  1  0
 13 14  2  0
 13 27  1  0
 14 23  1  0
 15 16  2  0
 17 12  2  0
 18 23  1  0
 18 19  1  0
 25  1  1  0
 26 11  1  0
  1 20  2  0
  2  3  1  0
  4  5  1  0
  6  7  1  0
 10 22  2  0
 11 27  2  0
 12 13  1  0
 14 15  1  0
 16 17  1  0
M  END
>  <rmsd>  (1) 
0.234053537

$$$$
