MolPort-002-776-346 MCULE-9426573331 PubChem-19614191 ZINC000020607634
     RDKit          3D

 32 37  0  0  0  0  0  0  0  0999 V2000
   14.2116   42.8525    6.6944 C   0  0  0  0  0  0  0  0  0  0  0  0
   13.9347   44.3053    4.6266 C   0  0  0  0  0  0  0  0  0  0  0  0
   13.0817   44.6671    3.4770 C   0  0  0  0  0  0  0  0  0  0  0  0
   11.8288   44.0459    3.2951 C   0  0  0  0  0  0  0  0  0  0  0  0
   11.0122   44.3817    2.1875 C   0  0  0  0  0  0  0  0  0  0  0  0
    9.6691   43.7406    2.0325 C   0  0  0  0  0  0  0  0  0  0  0  0
    9.8255   42.2467    1.8050 C   0  0  0  0  0  0  0  0  0  0  0  0
    9.5227   43.1574    0.6377 C   0  0  0  0  0  0  0  0  0  0  0  0
   12.6292   45.9255    1.4800 C   0  0  0  0  0  0  0  0  0  0  0  0
   14.5677   46.4269    2.3656 C   0  0  0  0  0  0  0  0  0  0  0  0
   13.4494   45.6215    2.5223 C   0  0  0  0  0  0  0  0  0  0  0  0
   12.6535   47.4635   -0.4870 C   0  0  0  0  0  0  0  0  0  0  0  0
   14.8069   41.8182    8.4887 C   0  0  0  0  0  0  0  0  0  0  0  0
   13.6593   40.2065    9.7550 C   0  0  0  0  0  0  0  0  0  0  0  0
   13.5693   39.3212   10.9604 C   0  0  0  0  0  0  0  0  0  0  0  0
   12.5724   40.2740    8.8484 C   0  0  0  0  0  0  0  0  0  0  0  0
   12.6330   41.1208    7.7218 C   0  0  0  0  0  0  0  0  0  0  0  0
   11.4759   41.2407    6.7710 C   0  0  0  0  0  0  0  0  0  0  0  0
   11.8336   40.6034    5.4385 C   0  0  0  0  0  0  0  0  0  0  0  0
   10.9255   39.8726    6.3985 C   0  0  0  0  0  0  0  0  0  0  0  0
   13.7862   41.8988    7.5896 C   0  0  0  0  0  0  0  0  0  0  0  0
   13.4799   43.3134    5.5546 N   0  0  0  0  0  0  0  0  0  0  0  0
   11.4230   45.3351    1.2949 N   0  0  0  0  0  0  0  0  0  0  0  0
   13.1987   46.8640    0.7181 N   0  0  0  0  0  0  0  0  0  0  0  0
   14.3759   47.1752    1.2459 N   0  0  0  0  0  0  0  0  0  0  0  0
   15.4352   43.3009    7.0646 N   0  0  0  0  0  0  0  0  0  0  0  0
   15.8034   42.6637    8.1733 N   0  0  0  0  0  0  0  0  0  0  0  0
   14.7628   40.9948    9.5642 N   0  0  0  0  0  0  0  0  0  0  0  0
   15.0542   44.8622    4.7889 O   0  0  0  0  0  0  0  0  0  0  0  0
   14.8213   39.1426   11.5220 F   0  0  0  0  0  0  0  0  0  0  0  0
   12.7342   39.9034   11.8958 F   0  0  0  0  0  0  0  0  0  0  0  0
   13.0611   38.0850   10.6034 F   0  0  0  0  0  0  0  0  0  0  0  0
  1 22  1  0
  2  3  1  0
  4  5  2  0
  6  5  1  0
  6  7  1  0
  7  8  1  0
  8  6  1  0
  9 23  2  0
  9 24  1  0
 10 11  1  0
 11  3  2  0
 12 24  1  0
 14 28  2  0
 15 14  1  0
 15 30  1  0
 15 31  1  0
 15 32  1  0
 16 17  2  0
 18 17  1  0
 18 19  1  0
 19 20  1  0
 20 18  1  0
 21  1  1  0
 21 13  2  0
 22  2  1  0
 24 25  1  0
 27 26  1  0
 27 13  1  0
  1 26  2  0
  2 29  2  0
  3  4  1  0
  5 23  1  0
 10 25  2  0
 11  9  1  0
 13 28  1  0
 14 16  1  0
 17 21  1  0
M  END
>  <rmsd>  (1) 
0.239128292

$$$$
