MolPort-007-596-206 ChemDiv-C200-2110 MCULE-7309398312 PubChem-6621343 ZINC000004878216
     RDKit          3D

 30 33  0  0  0  0  0  0  0  0999 V2000
   14.2619   42.7725    6.5764 N   0  0  0  0  0  0  0  0  0  0  0  0
   13.4715   43.3138    5.5425 N   0  0  0  0  0  0  0  0  0  0  0  0
   14.4445   42.1443    8.8780 N   0  0  0  0  0  0  0  0  0  0  0  0
   13.9449   44.2896    4.6048 C   0  0  0  0  0  0  0  0  0  0  0  0
   13.1275   44.6383    3.4300 C   0  0  0  0  0  0  0  0  0  0  0  0
   13.5731   45.6050    2.5161 C   0  0  0  0  0  0  0  0  0  0  0  0
   12.7972   45.9341    1.4007 C   0  0  0  0  0  0  0  0  0  0  0  0
   11.5704   45.2988    1.1909 C   0  0  0  0  0  0  0  0  0  0  0  0
   11.1193   44.3344    2.0960 C   0  0  0  0  0  0  0  0  0  0  0  0
   11.8953   44.0053    3.2113 C   0  0  0  0  0  0  0  0  0  0  0  0
   15.5152   42.2767    6.3219 C   0  0  0  0  0  0  0  0  0  0  0  0
   16.2487   41.7593    7.3760 C   0  0  0  0  0  0  0  0  0  0  0  0
   17.8247   40.7820    9.0502 C   0  0  0  0  0  0  0  0  0  0  0  0
   16.5943   41.1628    9.5928 C   0  0  0  0  0  0  0  0  0  0  0  0
   15.7171   41.7057    8.6413 C   0  0  0  0  0  0  0  0  0  0  0  0
   13.8515   42.0935   10.2209 C   0  0  0  0  0  0  0  0  0  0  0  0
   13.6623   40.6781   10.7125 C   0  0  0  0  0  0  0  0  0  0  0  0
   14.3530   40.2451   11.8653 C   0  0  0  0  0  0  0  0  0  0  0  0
   15.2564   41.1571   12.6260 C   0  0  0  0  0  0  0  0  0  0  0  0
   14.1934   38.9369   12.3291 C   0  0  0  0  0  0  0  0  0  0  0  0
   13.3436   38.0523   11.6663 C   0  0  0  0  0  0  0  0  0  0  0  0
   12.6360   38.4768   10.5423 C   0  0  0  0  0  0  0  0  0  0  0  0
   12.7831   39.7814   10.0632 C   0  0  0  0  0  0  0  0  0  0  0  0
   11.9761   40.1819    8.8763 C   0  0  0  0  0  0  0  0  0  0  0  0
   13.1811   36.6624   12.1659 C   0  0  0  0  0  0  0  0  0  0  0  0
   13.7264   42.6937    7.8408 C   0  0  0  0  0  0  0  0  0  0  0  0
   15.0442   44.8753    4.8041 O   0  0  0  0  0  0  0  0  0  0  0  0
   15.9908   42.2675    5.1541 O   0  0  0  0  0  0  0  0  0  0  0  0
   12.5644   43.1429    8.0506 O   0  0  0  0  0  0  0  0  0  0  0  0
   17.7998   41.1296    7.3940 S   0  0  0  0  0  0  0  0  0  0  0  0
  1  2  1  0
  1 11  1  0
  2  4  1  0
  3 26  1  0
  4  5  1  0
  6  7  2  0
  8  9  2  0
 10  5  2  0
 11 12  1  0
 12 30  1  0
 13 30  1  0
 14 15  1  0
 15  3  1  0
 16  3  1  0
 16 17  1  0
 18 20  2  0
 19 18  1  0
 21 22  2  0
 23 17  2  0
 24 23  1  0
 25 21  1  0
 26  1  1  0
  4 27  2  0
  5  6  1  0
  7  8  1  0
  9 10  1  0
 11 28  2  0
 13 14  2  0
 15 12  2  0
 17 18  1  0
 20 21  1  0
 22 23  1  0
 26 29  2  0
M  END
>  <rmsd>  (1) 
0.232336268

$$$$
