MolPort-002-790-936 CSC007976600 CSSS00007976600 LN01161734 MCULE-1365855620 PubChem-17161525
     RDKit          3D

 19 19  0  0  0  0  0  0  0  0999 V2000
   15.4402   37.5539    8.6006 C   0  0  0  0  0  0  0  0  0  0  0  0
   14.4347   37.7670    9.7155 C   0  0  0  0  0  0  0  0  0  0  0  0
   14.3447   39.2408   10.0668 C   0  0  2  0  0  0  0  0  0  0  0  0
   13.5392   39.4039   11.3388 C   0  0  0  0  0  0  0  0  0  0  0  0
   14.3336   40.9924    8.3169 C   0  0  0  0  0  0  0  0  0  0  0  0
   15.6417   41.4002    8.6229 C   0  0  0  0  0  0  0  0  0  0  0  0
   16.2388   42.4411    7.9084 C   0  0  0  0  0  0  0  0  0  0  0  0
   15.5331   43.0796    6.8857 C   0  0  0  0  0  0  0  0  0  0  0  0
   14.2254   42.6814    6.5703 C   0  0  0  0  0  0  0  0  0  0  0  0
   13.9029   44.3901    4.6870 C   0  0  0  0  0  0  0  0  0  0  0  0
   12.9669   44.9423    3.6663 C   0  0  0  0  0  0  0  0  0  0  0  0
   11.9707   45.9000    4.3056 C   0  0  0  0  0  0  0  0  0  0  0  0
   12.6115   47.2069    4.6349 C   0  0  0  0  0  0  0  0  0  0  0  0
   13.6350   41.6377    7.2913 C   0  0  0  0  0  0  0  0  0  0  0  0
   13.7083   39.9534    9.0123 O   0  0  0  0  0  0  0  0  0  0  0  0
   15.0506   44.8945    4.8088 O   0  0  0  0  0  0  0  0  0  0  0  0
   12.7027   47.6167    5.9579 O   0  0  0  0  0  0  0  0  0  0  0  0
   13.0582   47.9442    3.7175 O   0  0  0  0  0  0  0  0  0  0  0  0
   13.4696   43.3133    5.5283 N   0  0  0  0  0  0  0  0  0  0  0  0
  1  2  1  0
  3  2  1  0
  3  4  1  1
  3 15  1  0
  5 15  1  0
  6  7  2  0
  8  9  2  0
  9 19  1  0
 11 10  1  0
 11 12  1  0
 12 13  1  0
 13 17  1  0
 14  5  2  0
 19 10  1  0
  5  6  1  0
  7  8  1  0
  9 14  1  0
 10 16  2  0
 13 18  2  0
M  END
>  <rmsd>  (1) 
0.249363229

$$$$
