MolPort-009-692-461 9001749 CSSS00106926447 MCULE-7088930081 PubChem-16952129 VPBKKCCBLFWVNP-UHFFFAOYSA-N ZINC000009001749 ZINC09001749
     RDKit          3D

 29 32  0  0  0  0  0  0  0  0999 V2000
   12.2364   47.1855    1.0421 C   0  0  0  0  0  0  0  0  0  0  0  0
   12.9960   44.9319    3.6735 C   0  0  0  0  0  0  0  0  0  0  0  0
   11.7051   44.4808    3.4245 C   0  0  0  0  0  0  0  0  0  0  0  0
   11.2952   45.3036    2.3926 C   0  0  0  0  0  0  0  0  0  0  0  0
    9.9616   45.2487    1.7301 C   0  0  0  0  0  0  0  0  0  0  0  0
   13.9002   44.3901    4.6938 C   0  0  0  0  0  0  0  0  0  0  0  0
   14.2515   42.6963    6.5530 C   0  0  0  0  0  0  0  0  0  0  0  0
   16.0328   42.3147    7.8768 C   0  0  0  0  0  0  0  0  0  0  0  0
   15.1556   41.3346    8.3783 C   0  0  0  0  0  0  0  0  0  0  0  0
   15.4593   40.2675    9.3549 C   0  0  0  0  0  0  0  0  0  0  0  0
   14.4750   39.8331   10.3711 C   0  0  0  0  0  0  0  0  0  0  0  0
   13.3114   40.5780   10.6194 C   0  0  0  0  0  0  0  0  0  0  0  0
   12.3990   40.1663   11.5950 C   0  0  0  0  0  0  0  0  0  0  0  0
   12.6444   39.0078   12.3360 C   0  0  0  0  0  0  0  0  0  0  0  0
   13.8029   38.2627   12.1030 C   0  0  0  0  0  0  0  0  0  0  0  0
   14.7148   38.6751   11.1270 C   0  0  0  0  0  0  0  0  0  0  0  0
   17.3889   42.6003    8.3948 C   0  0  0  0  0  0  0  0  0  0  0  0
   17.7362   42.3252    9.7265 C   0  0  0  0  0  0  0  0  0  0  0  0
   19.0108   42.6383   10.2073 C   0  0  0  0  0  0  0  0  0  0  0  0
   19.9468   43.2408    9.3632 C   0  0  0  0  0  0  0  0  0  0  0  0
   19.6064   43.5342    8.0405 C   0  0  0  0  0  0  0  0  0  0  0  0
   18.3315   43.2200    7.5608 C   0  0  0  0  0  0  0  0  0  0  0  0
   12.2784   46.1627    2.0735 N   0  0  0  0  0  0  0  0  0  0  0  0
   13.3240   45.9468    2.8486 N   0  0  0  0  0  0  0  0  0  0  0  0
   13.4650   43.3087    5.5268 N   0  0  0  0  0  0  0  0  0  0  0  0
   15.5135   43.0617    6.8621 N   0  0  0  0  0  0  0  0  0  0  0  0
   15.0529   44.8824    4.8280 O   0  0  0  0  0  0  0  0  0  0  0  0
   16.5807   39.6934    9.2991 O   0  0  0  0  0  0  0  0  0  0  0  0
   13.7134   41.4301    7.5077 S   0  0  0  0  0  0  0  0  0  0  0  0
  1 23  1  0
  2  3  1  0
  2  6  1  0
  4 23  1  0
  5  4  1  0
  6 25  1  0
  7 29  1  0
  8 26  1  0
  8 17  1  0
  9 29  1  0
  9 10  1  0
 10 11  1  0
 12 13  2  0
 14 15  2  0
 16 11  2  0
 18 19  2  0
 20 21  2  0
 22 17  2  0
 23 24  1  0
 25  7  1  0
  2 24  2  0
  3  4  2  0
  6 27  2  0
  7 26  2  0
  8  9  2  0
 10 28  2  0
 11 12  1  0
 13 14  1  0
 15 16  1  0
 17 18  1  0
 19 20  1  0
 21 22  1  0
M  END
>  <rmsd>  (1) 
0.217031762

$$$$
