MolPort-003-009-719 1509443 BKPLWSSOYAGQPR-UHFFFAOYSA-N CSSS00104891008 LN01379873 MCULE-7706064655 PubChem-160276703 PubChem-3279893 ZINC000001509443 ZINC01509443
     RDKit          3D

 23 25  0  0  0  0  0  0  0  0999 V2000
   12.9835   44.9346    3.6658 C   0  0  0  0  0  0  0  0  0  0  0  0
   13.9028   44.3887    4.6975 C   0  0  0  0  0  0  0  0  0  0  0  0
   14.2506   42.6953    6.5544 C   0  0  0  0  0  0  0  0  0  0  0  0
   16.0316   42.3110    7.8780 C   0  0  0  0  0  0  0  0  0  0  0  0
   15.1533   41.3319    8.3793 C   0  0  0  0  0  0  0  0  0  0  0  0
   15.4559   40.2642    9.3556 C   0  0  0  0  0  0  0  0  0  0  0  0
   14.4715   39.8306   10.3718 C   0  0  0  0  0  0  0  0  0  0  0  0
   13.3087   40.5769   10.6206 C   0  0  0  0  0  0  0  0  0  0  0  0
   12.3960   40.1661   11.5963 C   0  0  0  0  0  0  0  0  0  0  0  0
   12.6402   39.0070   12.3370 C   0  0  0  0  0  0  0  0  0  0  0  0
   13.7978   38.2606   12.1036 C   0  0  0  0  0  0  0  0  0  0  0  0
   14.7100   38.6721   11.1275 C   0  0  0  0  0  0  0  0  0  0  0  0
   17.3883   42.5949    8.3960 C   0  0  0  0  0  0  0  0  0  0  0  0
   18.3317   43.2133    7.5619 C   0  0  0  0  0  0  0  0  0  0  0  0
   19.6071   43.5255    8.0416 C   0  0  0  0  0  0  0  0  0  0  0  0
   19.9471   43.2316    9.3644 C   0  0  0  0  0  0  0  0  0  0  0  0
   19.0102   42.6303   10.2084 C   0  0  0  0  0  0  0  0  0  0  0  0
   17.7353   42.3190    9.7276 C   0  0  0  0  0  0  0  0  0  0  0  0
   15.0536   44.8840    4.8261 O   0  0  0  0  0  0  0  0  0  0  0  0
   16.5766   39.6886    9.2994 O   0  0  0  0  0  0  0  0  0  0  0  0
   13.4651   43.3090    5.5282 N   0  0  0  0  0  0  0  0  0  0  0  0
   15.5133   43.0590    6.8635 N   0  0  0  0  0  0  0  0  0  0  0  0
   13.7112   41.4294    7.5089 S   0  0  0  0  0  0  0  0  0  0  0  0
  1  2  1  0
  2 21  1  0
  3 23  1  0
  4 22  1  0
  4 13  1  0
  5 23  1  0
  5  6  1  0
  6  7  1  0
  8  9  2  0
 10 11  2  0
 12  7  2  0
 14 15  2  0
 16 17  2  0
 18 13  2  0
 21  3  1  0
  2 19  2  0
  3 22  2  0
  4  5  2  0
  6 20  2  0
  7  8  1  0
  9 10  1  0
 11 12  1  0
 13 14  1  0
 15 16  1  0
 17 18  1  0
M  END
>  <rmsd>  (1) 
0.215586141

$$$$
