MolPort-021-778-627 72441451 CSSS00160367955 ChemDiv-Y300-3740 MCULE-7894684116 PubChem-56921941 ZINC000072441451 ZINC72441451
     RDKit          3D

 25 27  0  0  0  0  0  0  0  0999 V2000
   13.3250   39.2591   11.2197 C   0  0  0  0  0  0  0  0  0  0  0  0
   13.8878   40.0149    9.2247 C   0  0  0  0  0  0  0  0  0  0  0  0
   14.4822   41.1218    8.4250 C   0  0  0  0  0  0  0  0  0  0  0  0
   15.7805   41.5696    8.6926 C   0  0  0  0  0  0  0  0  0  0  0  0
   16.3342   42.6021    7.9313 C   0  0  0  0  0  0  0  0  0  0  0  0
   15.5915   43.1854    6.9011 C   0  0  0  0  0  0  0  0  0  0  0  0
   14.2901   42.7392    6.6233 C   0  0  0  0  0  0  0  0  0  0  0  0
   13.8846   44.3671    4.6802 C   0  0  0  0  0  0  0  0  0  0  0  0
   12.9375   44.8383    3.6541 C   0  0  0  0  0  0  0  0  0  0  0  0
   11.6571   44.2739    3.5591 C   0  0  0  0  0  0  0  0  0  0  0  0
   10.7582   44.7194    2.5859 C   0  0  0  0  0  0  0  0  0  0  0  0
   11.1346   45.7297    1.6958 C   0  0  0  0  0  0  0  0  0  0  0  0
   10.1674   46.2203    0.6742 C   0  0  0  0  0  0  0  0  0  0  0  0
    7.9994   47.0965    0.8128 C   0  0  0  0  0  0  0  0  0  0  0  0
    7.1625   48.3321    1.1541 C   0  0  0  0  0  0  0  0  0  0  0  0
    8.9463   49.7104    0.9344 C   0  0  0  0  0  0  0  0  0  0  0  0
    9.8773   48.5472    0.5822 C   0  0  0  0  0  0  0  0  0  0  0  0
   12.4063   46.3031    1.7890 C   0  0  0  0  0  0  0  0  0  0  0  0
   13.3048   45.8577    2.7628 C   0  0  0  0  0  0  0  0  0  0  0  0
   13.7433   41.7046    7.3905 C   0  0  0  0  0  0  0  0  0  0  0  0
   13.7479   40.4095   10.5558 O   0  0  0  0  0  0  0  0  0  0  0  0
   15.0273   44.8939    4.7650 O   0  0  0  0  0  0  0  0  0  0  0  0
    7.6517   49.4478    0.4488 O   0  0  0  0  0  0  0  0  0  0  0  0
   13.4982   43.3115    5.5737 N   0  0  0  0  0  0  0  0  0  0  0  0
    9.3880   47.3212    1.2157 N   0  0  0  0  0  0  0  0  0  0  0  0
  1 21  1  0
  2 21  1  0
  2  3  1  0
  4  5  2  0
  6  7  2  0
  7 24  1  0
  8  9  1  0
 10 11  2  0
 12 18  2  0
 13 12  1  0
 13 25  1  0
 14 25  1  0
 14 15  1  0
 15 23  1  0
 16 23  1  0
 16 17  1  0
 17 25  1  0
 19  9  2  0
 20  3  2  0
 24  8  1  0
  3  4  1  0
  5  6  1  0
  7 20  1  0
  8 22  2  0
  9 10  1  0
 11 12  1  0
 18 19  1  0
M  END
>  <rmsd>  (1) 
0.243699878

$$$$
