MolPort-020-281-540 MCULE-5782000833 PubChem-110257273
     RDKit          3D

 22 24  0  0  0  0  0  0  0  0999 V2000
   13.4562   35.3243   10.4995 C   0  0  0  0  0  0  0  0  0  0  0  0
   13.9369   36.4005    9.5853 C   0  0  0  0  0  0  0  0  0  0  0  0
   13.8548   38.0948   11.4486 C   0  0  0  0  0  0  0  0  0  0  0  0
   13.0195   39.3675   11.5492 C   0  0  0  0  0  0  0  0  0  0  0  0
   13.6672   40.4853   10.7379 C   0  0  0  0  0  0  0  0  0  0  0  0
   13.8042   40.0620    9.2746 C   0  0  2  0  0  0  0  0  0  0  0  0
   14.6254   38.7772    9.1596 C   0  0  0  0  0  0  0  0  0  0  0  0
   14.4048   41.1571    8.4516 C   0  0  0  0  0  0  0  0  0  0  0  0
   13.6631   41.7065    7.4033 C   0  0  0  0  0  0  0  0  0  0  0  0
   14.2145   42.7295    6.6278 C   0  0  0  0  0  0  0  0  0  0  0  0
   16.2134   42.6631    7.9163 C   0  0  0  0  0  0  0  0  0  0  0  0
   15.6941   41.6403    8.7112 C   0  0  0  0  0  0  0  0  0  0  0  0
   13.8513   44.3302    4.6678 C   0  0  0  0  0  0  0  0  0  0  0  0
   12.9713   44.7565    3.6693 C   0  0  0  0  0  0  0  0  0  0  0  0
   13.3618   45.7759    2.7994 C   0  0  0  0  0  0  0  0  0  0  0  0
   14.6227   46.3590    2.9331 C   0  0  0  0  0  0  0  0  0  0  0  0
   15.4769   45.9090    3.9416 C   0  0  0  0  0  0  0  0  0  0  0  0
   14.2163   36.1036    8.3932 O   0  0  0  0  0  0  0  0  0  0  0  0
   14.0725   37.7536   10.0438 N   0  0  0  0  0  0  0  0  0  0  0  0
   15.4707   43.1811    6.9017 N   0  0  0  0  0  0  0  0  0  0  0  0
   13.4419   43.2834    5.5559 N   0  0  0  0  0  0  0  0  0  0  0  0
   15.0778   44.9143    4.7794 N   0  0  0  0  0  0  0  0  0  0  0  0
  1  2  1  0
  2 19  1  0
  3 19  1  0
  3  4  1  0
  4  5  1  0
  5  6  1  0
  6  7  1  0
  6  8  1  6
  7 19  1  0
  9 10  2  0
 10 21  1  0
 11 20  2  0
 12  8  2  0
 13 22  2  0
 14 15  2  0
 16 17  2  0
 21 13  1  0
  2 18  2  0
  8  9  1  0
 10 20  1  0
 11 12  1  0
 13 14  1  0
 15 16  1  0
 17 22  1  0
M  END
>  <rmsd>  (1) 
0.242741659

$$$$
