MolPort-016-723-833 36752774 MCULE-7202345058 PubChem-93242465 ZINC000036752774 ZINC36752774
     RDKit          3D

 30 33  0  0  0  0  0  0  0  0999 V2000
    9.8806   45.0714    1.9464 C   0  0  0  0  0  0  0  0  0  0  0  0
   11.2525   45.2216    2.5115 C   0  0  0  0  0  0  0  0  0  0  0  0
   12.9610   44.9228    3.6915 C   0  0  0  0  0  0  0  0  0  0  0  0
   12.0934   47.1282    1.0822 C   0  0  0  0  0  0  0  0  0  0  0  0
   10.9302   47.2944    0.3135 C   0  0  0  0  0  0  0  0  0  0  0  0
   10.8668   48.2758   -0.6798 C   0  0  0  0  0  0  0  0  0  0  0  0
   11.9674   49.1027   -0.9155 C   0  0  0  0  0  0  0  0  0  0  0  0
   13.1307   48.9481   -0.1581 C   0  0  0  0  0  0  0  0  0  0  0  0
   13.1926   47.9663    0.8350 C   0  0  0  0  0  0  0  0  0  0  0  0
   13.8949   44.3969    4.6916 C   0  0  0  0  0  0  0  0  0  0  0  0
   14.2726   42.6907    6.5595 C   0  0  0  0  0  0  0  0  0  0  0  0
   15.8584   41.8932    8.1721 C   0  0  0  0  0  0  0  0  0  0  0  0
   16.9943   41.6050    9.0941 C   0  0  0  0  0  0  0  0  0  0  0  0
   17.0954   42.6741   10.1797 C   0  0  0  0  0  0  0  0  0  0  0  0
   16.1080   42.5196   11.3027 C   0  0  0  0  0  0  0  0  0  0  0  0
   16.0597   43.5142   12.2847 C   0  0  0  0  0  0  0  0  0  0  0  0
   15.1625   43.4118   13.3513 C   0  0  0  0  0  0  0  0  0  0  0  0
   14.3075   42.3104   13.4436 C   0  0  0  0  0  0  0  0  0  0  0  0
   14.3450   41.3050   12.4729 C   0  0  0  0  0  0  0  0  0  0  0  0
   15.2499   41.4129   11.4049 C   0  0  0  0  0  0  0  0  0  0  0  0
   13.4449   39.1553   11.6456 C   0  0  0  0  0  0  0  0  0  0  0  0
   11.7115   44.4440    3.5110 N   0  0  0  0  0  0  0  0  0  0  0  0
   13.2572   45.9356    2.8540 N   0  0  0  0  0  0  0  0  0  0  0  0
   12.1794   46.1224    2.1113 N   0  0  0  0  0  0  0  0  0  0  0  0
   13.4863   43.3146    5.5375 N   0  0  0  0  0  0  0  0  0  0  0  0
   13.8015   41.6730    7.3115 N   0  0  0  0  0  0  0  0  0  0  0  0
   14.6814   41.2314    8.2085 N   0  0  0  0  0  0  0  0  0  0  0  0
   15.0443   44.9026    4.7947 O   0  0  0  0  0  0  0  0  0  0  0  0
   13.4775   40.2159   12.5909 O   0  0  0  0  0  0  0  0  0  0  0  0
   15.8532   43.0971    6.9943 S   0  0  0  0  0  0  0  0  0  0  0  0
  1  2  1  0
  3 22  1  0
  3 10  1  0
  5  6  2  0
  7  8  2  0
  9  4  2  0
 10 25  1  0
 11 30  1  0
 12 30  1  0
 13 12  1  0
 13 14  1  0
 14 15  1  0
 16 17  2  0
 18 19  2  0
 19 29  1  0
 20 15  2  0
 21 29  1  0
 24 23  1  0
 24  4  1  0
 24  2  1  0
 25 11  1  0
 26 27  1  0
  2 22  2  0
  3 23  2  0
  4  5  1  0
  6  7  1  0
  8  9  1  0
 10 28  2  0
 11 26  2  0
 12 27  2  0
 15 16  1  0
 17 18  1  0
 19 20  1  0
M  END
>  <rmsd>  (1) 
0.248961434

$$$$
