MolPort-010-852-299 41076401 ChemDiv-G952-2104 MCULE-1425239194 PubChem-52095933 ZINC000041076401 ZINC41076401
     RDKit          3D

 24 26  0  0  0  0  0  0  0  0999 V2000
   14.0724   39.0230   11.9622 C   0  0  0  0  0  0  0  0  0  0  0  0
   13.1220   39.6369   10.9517 C   0  0  0  0  0  0  0  0  0  0  0  0
   13.6254   39.4044    9.5364 C   0  0  0  0  0  0  0  0  0  0  0  0
   14.6920   40.3863    9.1771 C   0  0  0  0  0  0  0  0  0  0  0  0
   15.7505   41.9254    8.2174 C   0  0  0  0  0  0  0  0  0  0  0  0
   14.2216   42.6948    6.5763 C   0  0  0  0  0  0  0  0  0  0  0  0
   13.9088   44.3856    4.6778 C   0  0  0  0  0  0  0  0  0  0  0  0
   13.0074   44.9068    3.6349 C   0  0  0  0  0  0  0  0  0  0  0  0
   13.4198   45.9513    2.7972 C   0  0  0  0  0  0  0  0  0  0  0  0
   12.5637   46.4462    1.8102 C   0  0  0  0  0  0  0  0  0  0  0  0
   11.2702   45.9186    1.6504 C   0  0  0  0  0  0  0  0  0  0  0  0
   10.8745   44.8515    2.4762 C   0  0  0  0  0  0  0  0  0  0  0  0
   11.7308   44.3567    3.4631 C   0  0  0  0  0  0  0  0  0  0  0  0
   10.3676   46.4081    0.5334 C   0  0  0  0  0  0  0  0  0  0  0  0
   10.6386   45.5973   -0.7195 C   0  0  0  0  0  0  0  0  0  0  0  0
   10.6117   47.8770    0.2210 C   0  0  0  0  0  0  0  0  0  0  0  0
    8.8978   46.2595    0.8972 C   0  0  0  0  0  0  0  0  0  0  0  0
   15.9194   40.4720    9.7583 N   0  0  0  0  0  0  0  0  0  0  0  0
   16.5965   41.4540    9.1488 N   0  0  0  0  0  0  0  0  0  0  0  0
   13.4715   43.3126    5.5236 N   0  0  0  0  0  0  0  0  0  0  0  0
   13.7032   41.6774    7.3212 N   0  0  0  0  0  0  0  0  0  0  0  0
   14.6051   41.3017    8.2128 N   0  0  0  0  0  0  0  0  0  0  0  0
   15.8351   43.1184    7.0461 S   0  0  0  0  0  0  0  0  0  0  0  0
   15.0568   44.8874    4.8189 O   0  0  0  0  0  0  0  0  0  0  0  0
  1  2  1  0
  2  3  1  0
  3  4  1  0
  5 23  1  0
  6 23  1  0
  6 20  1  0
  7  8  1  0
  9 10  2  0
 11 12  2  0
 13  8  2  0
 14 11  1  0
 14 15  1  0
 14 16  1  0
 14 17  1  0
 18 19  1  0
 20  7  1  0
 22 21  1  0
 22  4  1  0
 22  5  1  0
  4 18  2  0
  5 19  2  0
  6 21  2  0
  7 24  2  0
  8  9  1  0
 10 11  1  0
 12 13  1  0
M  END
>  <rmsd>  (1) 
0.208214611

$$$$
