MolPort-020-278-602 MCULE-1424883929 MCULE-1992094285 PubChem-110255474
     RDKit          3D

 22 24  0  0  0  0  0  0  0  0999 V2000
   16.7747   46.5353    4.0198 C   0  0  0  0  0  0  0  0  0  0  0  0
   15.4326   45.9094    3.8970 C   0  0  0  0  0  0  0  0  0  0  0  0
   13.8423   44.3200    4.6772 C   0  0  0  0  0  0  0  0  0  0  0  0
   12.9363   44.7234    3.6924 C   0  0  0  0  0  0  0  0  0  0  0  0
   13.2956   45.7366    2.8019 C   0  0  0  0  0  0  0  0  0  0  0  0
   14.5517   46.3364    2.9015 C   0  0  0  0  0  0  0  0  0  0  0  0
   14.2426   42.7273    6.6569 C   0  0  0  0  0  0  0  0  0  0  0  0
   14.4005   41.1777    8.4437 C   0  0  0  0  0  0  0  0  0  0  0  0
   16.2348   42.5991    7.9942 C   0  0  0  0  0  0  0  0  0  0  0  0
   15.5358   43.1808    6.9390 C   0  0  0  0  0  0  0  0  0  0  0  0
   17.6099   43.0593    8.3181 C   0  0  0  0  0  0  0  0  0  0  0  0
   13.7733   40.0919    9.2524 C   0  0  2  0  0  0  0  0  0  0  0  0
   13.5996   40.5297   10.7075 C   0  0  0  0  0  0  0  0  0  0  0  0
   13.0379   39.3898   11.5618 C   0  0  0  0  0  0  0  0  0  0  0  0
   13.5935   38.0200   11.1502 C   0  0  0  0  0  0  0  0  0  0  0  0
   14.5764   38.7840    9.1237 C   0  0  0  0  0  0  0  0  0  0  0  0
   15.3372   36.8241   10.1518 C   0  0  0  0  0  0  0  0  0  0  0  0
   15.0632   44.9207    4.7548 N   0  0  0  0  0  0  0  0  0  0  0  0
   13.4622   43.2782    5.5864 N   0  0  0  0  0  0  0  0  0  0  0  0
   13.7064   41.7360    7.4171 N   0  0  0  0  0  0  0  0  0  0  0  0
   15.6589   41.6116    8.7265 N   0  0  0  0  0  0  0  0  0  0  0  0
   14.8524   38.1646   10.4231 N   0  0  0  0  0  0  0  0  0  0  0  0
  1  2  1  0
  3 18  2  0
  3 19  1  0
  4  5  2  0
  6  2  2  0
  8 20  2  0
  9 21  2  0
 10  7  2  0
 11  9  1  0
 12  8  1  6
 12 13  1  0
 13 14  1  0
 14 15  1  0
 15 22  1  0
 16 22  1  0
 16 12  1  0
 17 22  1  0
 19  7  1  0
  2 18  1  0
  3  4  1  0
  5  6  1  0
  7 20  1  0
  8 21  1  0
  9 10  1  0
M  END
>  <rmsd>  (1) 
0.249232113

$$$$
