Molport-047-073-963 MCULE-9259942802 PubChem-155997553
     RDKit          3D

 28 31  0  0  0  0  0  0  0  0999 V2000
   15.2190   45.8834    3.8005 C   0  0  0  0  0  0  0  0  0  0  0  0
   14.1214   46.0441    2.9486 C   0  0  0  0  0  0  0  0  0  0  0  0
   13.8806   44.3198    4.6926 C   0  0  0  0  0  0  0  0  0  0  0  0
   14.1903   42.7192    6.6654 C   0  0  0  0  0  0  0  0  0  0  0  0
   15.4708   43.1823    6.9980 C   0  0  0  0  0  0  0  0  0  0  0  0
   16.1532   42.6113    8.0720 C   0  0  0  0  0  0  0  0  0  0  0  0
   15.5574   41.5862    8.8055 C   0  0  0  0  0  0  0  0  0  0  0  0
   14.2760   41.1436    8.4505 C   0  0  0  0  0  0  0  0  0  0  0  0
   13.6013   40.0464    9.2106 C   0  0  2  0  0  0  0  0  0  0  0  0
   13.3456   40.4665   10.6631 C   0  0  0  0  0  0  0  0  0  0  0  0
   13.0526   39.2497   11.5388 C   0  0  0  0  0  0  0  0  0  0  0  0
   14.1306   38.1596   11.4000 C   0  0  0  0  0  0  0  0  0  0  0  0
   15.8864   37.2532   10.1300 C   0  0  0  0  0  0  0  0  0  0  0  0
   17.1919   37.3784   10.7837 C   0  0  0  0  0  0  0  0  0  0  0  0
   14.3902   38.7321    9.1062 C   0  0  0  0  0  0  0  0  0  0  0  0
   16.4494   46.6882    3.6614 C   0  0  0  0  0  0  0  0  0  0  0  0
   18.7010   47.4130    4.5008 C   0  0  0  0  0  0  0  0  0  0  0  0
   19.1824   47.4590    5.9203 C   0  0  0  0  0  0  0  0  0  0  0  0
   18.0609   46.7647    6.6744 C   0  0  0  0  0  0  0  0  0  0  0  0
   12.9518   44.9366    3.4458 S   0  0  0  0  0  0  0  0  0  0  0  0
   13.4477   43.2753    5.5721 N   0  0  0  0  0  0  0  0  0  0  0  0
   15.1094   38.4608   10.3492 N   0  0  0  0  0  0  0  0  0  0  0  0
   18.2228   37.4774   11.3000 N   0  0  0  0  0  0  0  0  0  0  0  0
   13.6316   41.7177    7.3984 N   0  0  0  0  0  0  0  0  0  0  0  0
   15.0813   44.9277    4.7603 N   0  0  0  0  0  0  0  0  0  0  0  0
   17.5480   46.5440    4.5766 N   0  0  0  0  0  0  0  0  0  0  0  0
   16.5393   47.5100    2.7082 O   0  0  0  0  0  0  0  0  0  0  0  0
   17.4075   45.9129    5.7696 O   0  0  0  0  0  0  0  0  0  0  0  0
  1 16  1  0
  1 25  1  0
  2 20  1  0
  3 20  1  0
  3 21  1  0
  4 24  2  0
  5  6  2  0
  7  8  2  0
  9  8  1  1
  9 10  1  0
 10 11  1  0
 11 12  1  0
 12 22  1  0
 13 22  1  0
 13 14  1  0
 15 22  1  0
 15  9  1  0
 16 26  1  0
 17 26  1  0
 17 18  1  0
 18 19  1  0
 19 28  1  0
 21  4  1  0
 26 28  1  0
  1  2  2  0
  3 25  2  0
  4  5  1  0
  6  7  1  0
  8 24  1  0
 16 27  2  0
 14 23  3  0
M  END
>  <rmsd>  (1) 
0.249188498

$$$$
