MolPort-047-072-557 PubChem-132766378
     RDKit          3D

 31 34  0  0  0  0  0  0  0  0999 V2000
   17.5768   43.0378    8.3379 C   0  0  0  0  0  0  0  0  0  0  0  0
   16.2041   42.5762    8.0058 C   0  0  0  0  0  0  0  0  0  0  0  0
   15.5088   43.1619    6.9465 C   0  0  0  0  0  0  0  0  0  0  0  0
   14.2151   42.7211    6.6393 C   0  0  0  0  0  0  0  0  0  0  0  0
   13.8478   44.3321    4.6638 C   0  0  0  0  0  0  0  0  0  0  0  0
   15.4714   45.9134    3.9307 C   0  0  0  0  0  0  0  0  0  0  0  0
   14.6175   46.3624    2.9231 C   0  0  0  0  0  0  0  0  0  0  0  0
   13.3573   45.7798    2.7908 C   0  0  0  0  0  0  0  0  0  0  0  0
   12.9633   44.7606    3.6598 C   0  0  0  0  0  0  0  0  0  0  0  0
   11.6125   44.1512    3.5015 C   0  0  0  0  0  0  0  0  0  0  0  0
   13.6454   41.6999    7.4034 C   0  0  0  0  0  0  0  0  0  0  0  0
   14.3695   41.1359    8.4572 C   0  0  0  0  0  0  0  0  0  0  0  0
   13.7552   40.0441    9.2686 C   0  0  2  0  0  0  0  0  0  0  0  0
   13.6281   40.4654   10.7341 C   0  0  0  0  0  0  0  0  0  0  0  0
   12.9967   39.3445   11.5571 C   0  0  0  0  0  0  0  0  0  0  0  0
   13.8364   38.0762   11.4402 C   0  0  0  0  0  0  0  0  0  0  0  0
   14.5741   38.7587    9.1475 C   0  0  0  0  0  0  0  0  0  0  0  0
   13.6269   36.4571    9.5121 C   0  0  0  0  0  0  0  0  0  0  0  0
   13.0450   35.4397   10.4021 C   0  0  0  0  0  0  0  0  0  0  0  0
   12.6731   34.2418    9.9570 C   0  0  0  0  0  0  0  0  0  0  0  0
   12.0907   33.2169   10.8334 C   0  0  0  0  0  0  0  0  0  0  0  0
   11.7263   31.9834   10.2890 C   0  0  0  0  0  0  0  0  0  0  0  0
   11.1709   30.9952   11.1038 C   0  0  0  0  0  0  0  0  0  0  0  0
   10.9864   31.2565   12.4631 C   0  0  0  0  0  0  0  0  0  0  0  0
   11.8879   33.4373   12.2037 C   0  0  0  0  0  0  0  0  0  0  0  0
   13.4516   43.2839    5.5631 N   0  0  0  0  0  0  0  0  0  0  0  0
   15.0731   44.9200    4.7692 N   0  0  0  0  0  0  0  0  0  0  0  0
   15.6262   41.5839    8.7334 N   0  0  0  0  0  0  0  0  0  0  0  0
   14.0138   37.7390   10.0296 N   0  0  0  0  0  0  0  0  0  0  0  0
   11.3454   32.4617   12.9810 N   0  0  0  0  0  0  0  0  0  0  0  0
   13.7856   36.2010    8.2865 O   0  0  0  0  0  0  0  0  0  0  0  0
  1  2  1  0
  2 28  2  0
  3  4  2  0
  4 26  1  0
  6 27  2  0
  7  8  2  0
  9  5  2  0
 10  9  1  0
 11 12  2  0
 13 12  1  6
 13 14  1  0
 14 15  1  0
 15 16  1  0
 16 29  1  0
 17 29  1  0
 17 13  1  0
 18 19  1  0
 20 21  1  0
 22 23  2  0
 24 30  2  0
 25 21  2  0
 26  5  1  0
 29 18  1  0
  2  3  1  0
  4 11  1  0
  5 27  1  0
  6  7  1  0
  8  9  1  0
 12 28  1  0
 18 31  2  0
 19 20  2  0
 21 22  1  0
 23 24  1  0
 25 30  1  0
M  END
>  <rmsd>  (1) 
0.242637753

$$$$
