MolPort-008-290-763 19521490 MCULE-5617834621 PubChem-46972310 ZINC000019521490
     RDKit          3D

 28 30  0  0  0  0  0  0  0  0999 V2000
    9.9726   45.4692   -0.3657 C   0  0  0  0  0  0  0  0  0  0  0  0
   10.1498   46.4381    0.7889 C   0  0  0  0  0  0  0  0  0  0  0  0
   11.0987   45.8808    1.8018 C   0  0  0  0  0  0  0  0  0  0  0  0
   10.7391   44.8222    2.6532 C   0  0  0  0  0  0  0  0  0  0  0  0
   11.6666   44.3582    3.5843 C   0  0  0  0  0  0  0  0  0  0  0  0
   12.9390   44.9337    3.6817 C   0  0  0  0  0  0  0  0  0  0  0  0
   13.2538   46.0022    2.8137 C   0  0  0  0  0  0  0  0  0  0  0  0
   13.8907   44.4027    4.6873 C   0  0  0  0  0  0  0  0  0  0  0  0
   14.2774   42.6884    6.5512 C   0  0  0  0  0  0  0  0  0  0  0  0
   15.8682   41.8830    8.1551 C   0  0  0  0  0  0  0  0  0  0  0  0
   17.0074   41.5899    9.0715 C   0  0  0  0  0  0  0  0  0  0  0  0
   17.1208   42.6606   10.1543 C   0  0  0  0  0  0  0  0  0  0  0  0
   16.1388   42.5145   11.2832 C   0  0  0  0  0  0  0  0  0  0  0  0
   15.2722   41.4149   11.3909 C   0  0  0  0  0  0  0  0  0  0  0  0
   14.3727   41.3150   12.4642 C   0  0  0  0  0  0  0  0  0  0  0  0
   14.3493   42.3211   13.4348 C   0  0  0  0  0  0  0  0  0  0  0  0
   15.2128   43.4154   13.3370 C   0  0  0  0  0  0  0  0  0  0  0  0
   16.1042   43.5099   12.2649 C   0  0  0  0  0  0  0  0  0  0  0  0
   13.4484   39.1733   11.6425 C   0  0  0  0  0  0  0  0  0  0  0  0
    9.3903   44.1876    2.6014 C   0  0  0  0  0  0  0  0  0  0  0  0
   14.3798   46.5649    2.8570 O   0  0  0  0  0  0  0  0  0  0  0  0
   15.0434   44.9005    4.7981 O   0  0  0  0  0  0  0  0  0  0  0  0
   13.4970   40.2331   12.5882 O   0  0  0  0  0  0  0  0  0  0  0  0
   12.3332   46.4394    1.9129 N   0  0  0  0  0  0  0  0  0  0  0  0
   13.4875   43.3165    5.5343 N   0  0  0  0  0  0  0  0  0  0  0  0
   13.8067   41.6707    7.3035 N   0  0  0  0  0  0  0  0  0  0  0  0
   14.6894   41.2248    8.1958 N   0  0  0  0  0  0  0  0  0  0  0  0
   15.8614   43.0890    6.9794 S   0  0  0  0  0  0  0  0  0  0  0  0
  1  2  1  0
  2  3  1  0
  4  5  1  0
  6  7  1  0
  6  8  1  0
  7 24  1  0
  8 25  1  0
  9 28  1  0
 10 28  1  0
 11 10  1  0
 11 12  1  0
 12 13  1  0
 14 15  2  0
 15 23  1  0
 16 17  2  0
 18 13  2  0
 19 23  1  0
 20  4  1  0
 24  3  1  0
 25  9  1  0
 26 27  1  0
  3  4  2  0
  5  6  2  0
  7 21  2  0
  8 22  2  0
  9 26  2  0
 10 27  2  0
 13 14  1  0
 15 16  1  0
 17 18  1  0
M  END
>  <rmsd>  (1) 
0.248168528

$$$$
