MolPort-046-956-527 MCULE-7643606038 PubChem-110095462
     RDKit          3D

 27 30  0  0  0  0  0  0  0  0999 V2000
   17.6161   43.1014    8.1269 C   0  0  0  0  0  0  0  0  0  0  0  0
   16.2280   42.6272    7.8910 C   0  0  0  0  0  0  0  0  0  0  0  0
   14.4261   41.2141    8.4825 C   0  0  0  0  0  0  0  0  0  0  0  0
   13.6595   41.7466    7.4460 C   0  0  0  0  0  0  0  0  0  0  0  0
   14.2200   42.7365    6.6394 C   0  0  0  0  0  0  0  0  0  0  0  0
   13.8645   44.2996    4.6478 C   0  0  0  0  0  0  0  0  0  0  0  0
   13.0099   44.6675    3.6036 C   0  0  0  0  0  0  0  0  0  0  0  0
   13.4107   45.6571    2.7039 C   0  0  0  0  0  0  0  0  0  0  0  0
   14.6555   46.2707    2.8559 C   0  0  0  0  0  0  0  0  0  0  0  0
   15.4835   45.8809    3.9120 C   0  0  0  0  0  0  0  0  0  0  0  0
   13.8542   40.1330    9.3383 C   0  0  2  0  0  0  0  0  0  0  0  0
   13.8272   40.5530   10.8110 C   0  0  0  0  0  0  0  0  0  0  0  0
   13.5373   39.3763   11.7516 C   0  0  0  0  0  0  0  0  0  0  0  0
   13.1422   38.1166   10.9814 C   0  0  0  0  0  0  0  0  0  0  0  0
   14.6347   38.8227    9.1513 C   0  0  0  0  0  0  0  0  0  0  0  0
   13.6609   36.6835    9.1888 C   0  0  0  0  0  0  0  0  0  0  0  0
   14.0343   35.3340    9.7162 C   0  0  0  0  0  0  0  0  0  0  0  0
   13.8583   33.3579   10.5027 C   0  0  0  0  0  0  0  0  0  0  0  0
   15.2031   33.6193   10.2913 C   0  0  0  0  0  0  0  0  0  0  0  0
   16.5198   35.5421    9.4172 C   0  0  0  0  0  0  0  0  0  0  0  0
   15.6958   41.6611    8.6839 N   0  0  0  0  0  0  0  0  0  0  0  0
   15.4933   43.1548    6.8760 N   0  0  0  0  0  0  0  0  0  0  0  0
   13.4453   43.2809    5.5641 N   0  0  0  0  0  0  0  0  0  0  0  0
   15.0751   44.9134    4.7770 N   0  0  0  0  0  0  0  0  0  0  0  0
   14.2047   37.7279   10.0434 N   0  0  0  0  0  0  0  0  0  0  0  0
   13.1269   34.4352   10.1363 N   0  0  0  0  0  0  0  0  0  0  0  0
   15.2917   34.8633    9.7957 N   0  0  0  0  0  0  0  0  0  0  0  0
  1  2  1  0
  2 22  2  0
  3 21  2  0
  4  5  2  0
  5 23  1  0
  6 24  2  0
  7  8  2  0
  9 10  2  0
 11  3  1  6
 11 12  1  0
 12 13  1  0
 13 14  1  0
 14 25  1  0
 15 25  1  0
 15 11  1  0
 16 25  1  0
 16 17  1  0
 18 26  1  0
 19 27  1  0
 20 27  1  0
 23  6  1  0
 27 17  1  0
  2 21  1  0
  3  4  1  0
  5 22  1  0
  6  7  1  0
  8  9  1  0
 10 24  1  0
 17 26  2  0
 18 19  2  0
M  END
>  <rmsd>  (1) 
0.249213159

$$$$
