MolPort-001-980-475 871563 MCULE-1054843532 PubChem-1131153 ZINC000000871563
     RDKit          3D

 26 28  0  0  0  0  0  0  0  0999 V2000
   14.2802   42.7222    6.5782 C   0  0  0  0  0  0  0  0  0  0  0  0
   13.9597   44.2756    4.5892 C   0  0  0  0  0  0  0  0  0  0  0  0
   13.1552   44.5789    3.3930 C   0  0  0  0  0  0  0  0  0  0  0  0
   11.9415   43.9130    3.1680 C   0  0  0  0  0  0  0  0  0  0  0  0
   11.1785   44.1983    2.0319 C   0  0  0  0  0  0  0  0  0  0  0  0
   11.6240   45.1515    1.1122 C   0  0  0  0  0  0  0  0  0  0  0  0
   12.8325   45.8192    1.3281 C   0  0  0  0  0  0  0  0  0  0  0  0
   13.5954   45.5339    2.4642 C   0  0  0  0  0  0  0  0  0  0  0  0
   15.0837   41.5956    8.6713 C   0  0  0  0  0  0  0  0  0  0  0  0
   16.0614   41.6804    7.6723 C   0  0  0  0  0  0  0  0  0  0  0  0
   17.4401   41.1206    7.8154 C   0  0  0  0  0  0  0  0  0  0  0  0
   15.6063   42.2956    6.4908 C   0  0  0  0  0  0  0  0  0  0  0  0
   16.4008   42.3686    5.2890 C   0  0  0  0  0  0  0  0  0  0  0  0
   15.2585   41.0411   10.0342 C   0  0  0  0  0  0  0  0  0  0  0  0
   12.9293   40.0684   10.1945 C   0  0  0  0  0  0  0  0  0  0  0  0
   12.8277   38.5709   10.4706 C   0  0  0  0  0  0  0  0  0  0  0  0
   12.9044   38.3121   11.9746 C   0  0  0  0  0  0  0  0  0  0  0  0
   14.2034   38.8766   12.5481 C   0  0  0  0  0  0  0  0  0  0  0  0
   14.2968   40.3719   12.2550 C   0  0  0  0  0  0  0  0  0  0  0  0
   13.4882   43.3160    5.5428 N   0  0  0  0  0  0  0  0  0  0  0  0
   17.0391   42.4249    4.3253 N   0  0  0  0  0  0  0  0  0  0  0  0
   14.1391   40.5966   10.8203 N   0  0  0  0  0  0  0  0  0  0  0  0
   15.0390   44.8952    4.7946 O   0  0  0  0  0  0  0  0  0  0  0  0
   16.4186   40.9776   10.5244 O   0  0  0  0  0  0  0  0  0  0  0  0
   10.8848   45.4279    0.0115 F   0  0  0  0  0  0  0  0  0  0  0  0
   13.6682   42.2974    8.0802 S   0  0  0  0  0  0  0  0  0  0  0  0
  1 20  1  0
  1 26  1  0
  2  3  1  0
  4  5  2  0
  6  7  2  0
  6 25  1  0
  8  3  2  0
  9 26  1  0
  9 14  1  0
 10 12  1  0
 11 10  1  0
 12 13  1  0
 14 22  1  0
 15 22  1  0
 15 16  1  0
 16 17  1  0
 17 18  1  0
 18 19  1  0
 19 22  1  0
 20  2  1  0
  2 23  2  0
  3  4  1  0
  5  6  1  0
  7  8  1  0
  9 10  2  0
 12  1  2  0
 14 24  2  0
 13 21  3  0
M  END
>  <rmsd>  (1) 
0.208340183

$$$$
