MolPort-007-686-748 ChemDiv-D039-3202 MCULE-5150081229 PubChem-23605094 ZINC000006809961 ZINC06809961
     RDKit          3D

 28 30  0  0  0  0  0  0  0  0999 V2000
   12.7691   39.2190   11.8008 C   0  0  0  0  0  0  0  0  0  0  0  0
   13.9233   38.9166   10.8682 C   0  0  0  0  0  0  0  0  0  0  0  0
   15.0066   40.6882    9.5436 C   0  0  0  0  0  0  0  0  0  0  0  0
   14.9511   41.6427    8.4176 C   0  0  0  0  0  0  0  0  0  0  0  0
   15.9331   42.5444    8.0242 C   0  0  0  0  0  0  0  0  0  0  0  0
   17.2628   42.7322    8.6698 C   0  0  0  0  0  0  0  0  0  0  0  0
   14.3025   42.8150    6.6605 C   0  0  0  0  0  0  0  0  0  0  0  0
   13.8993   44.3368    4.6626 C   0  0  0  0  0  0  0  0  0  0  0  0
   11.6514   44.1990    3.5513 C   0  0  0  0  0  0  0  0  0  0  0  0
   11.3031   43.8629    2.1048 C   0  0  0  0  0  0  0  0  0  0  0  0
   12.9900   45.5125    1.2969 C   0  0  0  0  0  0  0  0  0  0  0  0
   13.3570   45.8574    2.7371 C   0  0  0  0  0  0  0  0  0  0  0  0
   10.6002   45.5959    0.4251 C   0  0  0  0  0  0  0  0  0  0  0  0
   10.8592   46.7763   -0.4258 C   0  0  0  0  0  0  0  0  0  0  0  0
    9.9247   47.3809   -1.2418 C   0  0  0  0  0  0  0  0  0  0  0  0
   10.5967   48.4320   -1.8401 C   0  0  0  0  0  0  0  0  0  0  0  0
   11.8910   48.4000   -1.3520 C   0  0  0  0  0  0  0  0  0  0  0  0
   13.9042   41.8251    7.5324 C   0  0  0  0  0  0  0  0  0  0  0  0
   12.5970   41.1075    7.5075 C   0  0  0  0  0  0  0  0  0  0  0  0
   13.9214   39.8460    9.7950 O   0  0  0  0  0  0  0  0  0  0  0  0
   16.0316   40.6346   10.2767 O   0  0  0  0  0  0  0  0  0  0  0  0
   15.0331   44.8799    4.7666 O   0  0  0  0  0  0  0  0  0  0  0  0
    9.4419   45.0960    0.4231 O   0  0  0  0  0  0  0  0  0  0  0  0
   12.0069   47.3998   -0.5127 O   0  0  0  0  0  0  0  0  0  0  0  0
   15.5408   43.2619    6.9517 N   0  0  0  0  0  0  0  0  0  0  0  0
   13.5024   43.3090    5.5801 N   0  0  0  0  0  0  0  0  0  0  0  0
   13.0066   44.7435    3.6174 N   0  0  0  0  0  0  0  0  0  0  0  0
   11.6210   45.0049    1.2514 N   0  0  0  0  0  0  0  0  0  0  0  0
  1  2  1  0
  2 20  1  0
  3 20  1  0
  3  4  1  0
  5 25  1  0
  6  5  1  0
  7 26  1  0
  8 27  1  0
  9 27  1  0
  9 10  1  0
 10 28  1  0
 11 28  1  0
 11 12  1  0
 12 27  1  0
 13 14  1  0
 14 24  1  0
 15 16  1  0
 17 24  1  0
 18  4  1  0
 19 18  1  0
 25  7  1  0
 26  8  1  0
 28 13  1  0
  3 21  2  0
  4  5  2  0
  7 18  2  0
  8 22  2  0
 13 23  2  0
 14 15  2  0
 16 17  2  0
M  END
>  <rmsd>  (1) 
0.206916556

$$$$
