MolPort-045-965-923 952990967 CSSS00159968264 MCULE-1112863886 PubChem-131935621 ZINC000952990967
     RDKit          3D

 26 28  0  0  0  0  0  0  0  0999 V2000
   12.9497   44.7502    1.2302 C   0  0  0  0  0  0  0  0  0  0  0  0
   13.1311   44.6845    3.4275 C   0  0  0  0  0  0  0  0  0  0  0  0
   13.9533   44.3042    4.6077 C   0  0  0  0  0  0  0  0  0  0  0  0
   14.2335   42.7293    6.5715 C   0  0  0  0  0  0  0  0  0  0  0  0
   13.6921   42.7057    7.8606 C   0  0  0  0  0  0  0  0  0  0  0  0
   14.4026   42.1335    8.9174 C   0  0  0  0  0  0  0  0  0  0  0  0
   15.6584   41.5544    8.6926 C   0  0  0  0  0  0  0  0  0  0  0  0
   15.9227   40.6000   11.0453 C   0  0  0  0  0  0  0  0  0  0  0  0
   14.6111   39.9403   11.1934 C   0  0  0  0  0  0  0  0  0  0  0  0
   13.9105   39.7006   12.3514 C   0  0  0  0  0  0  0  0  0  0  0  0
   13.3583   39.7012   14.6243 C   0  0  0  0  0  0  0  0  0  0  0  0
   12.1746   38.9950   14.3330 C   0  0  0  0  0  0  0  0  0  0  0  0
   11.2356   38.6152   15.4201 C   0  0  0  0  0  0  0  0  0  0  0  0
   11.8972   38.6553   13.0021 C   0  0  0  0  0  0  0  0  0  0  0  0
   13.8336   39.3478   10.1950 C   0  0  0  0  0  0  0  0  0  0  0  0
   16.1969   41.5635    7.4035 C   0  0  0  0  0  0  0  0  0  0  0  0
   15.4932   42.1355    6.3389 C   0  0  0  0  0  0  0  0  0  0  0  0
   13.8206   44.3801    2.2538 O   0  0  0  0  0  0  0  0  0  0  0  0
   15.0546   44.8808    4.8157 O   0  0  0  0  0  0  0  0  0  0  0  0
   16.6488   40.7628   12.0610 O   0  0  0  0  0  0  0  0  0  0  0  0
   13.4606   43.3186    5.5196 N   0  0  0  0  0  0  0  0  0  0  0  0
   16.4289   40.9993    9.7649 N   0  0  0  0  0  0  0  0  0  0  0  0
   14.2207   40.0497   13.6247 N   0  0  0  0  0  0  0  0  0  0  0  0
   12.7935   39.0313   12.0593 N   0  0  0  0  0  0  0  0  0  0  0  0
   12.7238   38.8053   10.7597 N   0  0  0  0  0  0  0  0  0  0  0  0
   16.1837   41.9965    4.7290 Cl  0  0  0  0  0  0  0  0  0  0  0  0
  1 18  1  0
  2 18  1  0
  2  3  1  0
  3 21  1  0
  5  6  2  0
  7 22  1  0
  7 16  2  0
  8  9  1  0
 10 23  1  0
 11 12  1  0
 13 12  1  0
 14 24  1  0
 15  9  1  0
 17 26  1  0
 17  4  2  0
 21  4  1  0
 22  8  1  0
 24 25  1  0
 24 10  1  0
  3 19  2  0
  4  5  1  0
  6  7  1  0
  8 20  2  0
  9 10  2  0
 11 23  2  0
 12 14  2  0
 15 25  2  0
 16 17  1  0
M  END
>  <rmsd>  (1) 
0.248691678

$$$$
