MolPort-008-320-696 36356972 CSSS00160791463 LN00861550 MCULE-6121196901 PubChem-45491940 ZINC000036356972 ZINC36356972
     RDKit          3D

 28 32  0  0  0  0  0  0  0  0999 V2000
   15.0459   44.8853    4.7783 O   0  0  0  0  0  0  0  0  0  0  0  0
   13.9083   44.3561    4.6570 C   0  0  0  0  0  0  0  0  0  0  0  0
   14.2201   42.7679    6.6473 C   0  0  0  0  0  0  0  0  0  0  0  0
   15.5018   43.2258    6.9832 C   0  0  0  0  0  0  0  0  0  0  0  0
   16.1898   42.6683    8.0625 C   0  0  0  0  0  0  0  0  0  0  0  0
   15.6009   41.6492    8.8142 C   0  0  0  0  0  0  0  0  0  0  0  0
   14.3176   41.1755    8.4952 C   0  0  0  0  0  0  0  0  0  0  0  0
   13.6385   41.7470    7.4056 C   0  0  0  0  0  0  0  0  0  0  0  0
   14.4088   39.5811   10.4421 C   0  0  0  0  0  0  0  0  0  0  0  0
   13.5375   38.6393   11.2695 C   0  0  0  0  0  0  0  0  0  0  0  0
   12.4987   39.4141   12.0755 C   0  0  0  0  0  0  0  0  0  0  0  0
   11.3694   40.1813    9.8961 C   0  0  0  0  0  0  0  0  0  0  0  0
   12.3688   39.6467    8.9249 C   0  0  0  0  0  0  0  0  0  0  0  0
    9.6662   41.1768   10.6550 C   0  0  0  0  0  0  0  0  0  0  0  0
    8.4841   41.8913   10.8322 C   0  0  0  0  0  0  0  0  0  0  0  0
    8.0451   42.1010   12.1529 C   0  0  0  0  0  0  0  0  0  0  0  0
    8.7877   41.5999   13.2456 C   0  0  0  0  0  0  0  0  0  0  0  0
    9.9790   40.8823   13.0322 C   0  0  0  0  0  0  0  0  0  0  0  0
   10.3832   40.6926   11.7106 C   0  0  0  0  0  0  0  0  0  0  0  0
   13.0090   44.8081    3.5891 C   0  0  0  0  0  0  0  0  0  0  0  0
   13.2890   45.7973    2.6588 C   0  0  0  0  0  0  0  0  0  0  0  0
   12.2334   46.0124    1.7609 C   0  0  0  0  0  0  0  0  0  0  0  0
   11.1208   45.2013    1.9738 C   0  0  0  0  0  0  0  0  0  0  0  0
   13.4803   43.3170    5.5486 N   0  0  0  0  0  0  0  0  0  0  0  0
   13.7069   40.1258    9.2725 N   0  0  0  0  0  0  0  0  0  0  0  0
   11.4666   40.0519   11.2495 N   0  0  0  0  0  0  0  0  0  0  0  0
   10.2683   40.8676    9.4930 N   0  0  0  0  0  0  0  0  0  0  0  0
   11.4687   44.2155    3.2917 S   0  0  0  0  0  0  0  0  0  0  0  0
  2 24  1  0
  2 20  1  0
  4  5  2  0
  6  7  2  0
  7 25  1  0
  8  3  2  0
  9 25  1  0
  9 10  1  0
 10 11  1  0
 11 26  1  0
 13 12  1  0
 13 25  1  0
 14 27  1  0
 15 16  2  0
 17 18  2  0
 19 14  2  0
 19 26  1  0
 20 28  1  0
 21 22  1  0
 23 28  1  0
 24  3  1  0
 26 12  1  0
  2  1  2  0
  3  4  1  0
  5  6  1  0
  7  8  1  0
 12 27  2  0
 14 15  1  0
 16 17  1  0
 18 19  1  0
 20 21  2  0
 22 23  2  0
M  END
>  <rmsd>  (1) 
0.238546982

$$$$
