Molport-020-295-207 MCULE-7020605254 PubChem-110267298
     RDKit          3D

 28 31  0  0  0  0  0  0  0  0999 V2000
   11.6147   44.1501    3.4967 C   0  0  0  0  0  0  0  0  0  0  0  0
   12.9665   44.7565    3.6585 C   0  0  0  0  0  0  0  0  0  0  0  0
   13.8465   44.3269    4.6657 C   0  0  0  0  0  0  0  0  0  0  0  0
   15.4753   45.9064    3.9402 C   0  0  0  0  0  0  0  0  0  0  0  0
   14.6261   46.3561    2.9288 C   0  0  0  0  0  0  0  0  0  0  0  0
   13.3656   45.7748    2.7908 C   0  0  0  0  0  0  0  0  0  0  0  0
   14.2298   42.7302    6.6309 C   0  0  0  0  0  0  0  0  0  0  0  0
   16.2291   42.6534    7.8963 C   0  0  0  0  0  0  0  0  0  0  0  0
   15.7012   41.6380    8.6902 C   0  0  0  0  0  0  0  0  0  0  0  0
   14.4055   41.1851    8.4182 C   0  0  0  0  0  0  0  0  0  0  0  0
   13.7802   40.0962    9.2304 C   0  0  2  0  0  0  0  0  0  0  0  0
   13.6432   40.5104   10.6981 C   0  0  0  0  0  0  0  0  0  0  0  0
   12.9936   39.3912   11.5086 C   0  0  0  0  0  0  0  0  0  0  0  0
   13.8214   38.1164   11.3855 C   0  0  0  0  0  0  0  0  0  0  0  0
   14.5708   38.7926    9.1023 C   0  0  0  0  0  0  0  0  0  0  0  0
   13.7357   36.4530    9.4694 C   0  0  0  0  0  0  0  0  0  0  0  0
   12.7877   35.5205   10.1235 C   0  0  0  0  0  0  0  0  0  0  0  0
   12.8173   34.1549    9.8077 C   0  0  0  0  0  0  0  0  0  0  0  0
   10.9951   33.7227   11.2666 C   0  0  0  0  0  0  0  0  0  0  0  0
   10.9182   35.0744   11.6044 C   0  0  0  0  0  0  0  0  0  0  0  0
   11.8160   35.9722   11.0255 C   0  0  0  0  0  0  0  0  0  0  0  0
   15.0722   44.9133    4.7771 N   0  0  0  0  0  0  0  0  0  0  0  0
   13.4475   43.2813    5.5647 N   0  0  0  0  0  0  0  0  0  0  0  0
   15.4892   43.1788    6.8862 N   0  0  0  0  0  0  0  0  0  0  0  0
   13.7010   41.7395    7.3968 N   0  0  0  0  0  0  0  0  0  0  0  0
   13.9844   37.7781    9.9735 N   0  0  0  0  0  0  0  0  0  0  0  0
   11.9337   33.2943   10.3813 N   0  0  0  0  0  0  0  0  0  0  0  0
   14.3363   36.0725    8.4267 O   0  0  0  0  0  0  0  0  0  0  0  0
  1  2  1  0
  3 22  2  0
  3 23  1  0
  4  5  2  0
  6  2  2  0
  7 25  2  0
  8 24  2  0
  9 10  2  0
 11 10  1  6
 11 12  1  0
 12 13  1  0
 13 14  1  0
 14 26  1  0
 15 26  1  0
 15 11  1  0
 16 17  1  0
 18 27  2  0
 19 20  2  0
 21 17  2  0
 23  7  1  0
 26 16  1  0
  2  3  1  0
  4 22  1  0
  5  6  1  0
  7 24  1  0
  8  9  1  0
 10 25  1  0
 16 28  2  0
 17 18  1  0
 19 27  1  0
 20 21  1  0
M  END
>  <rmsd>  (1) 
0.240710482

$$$$
