Molport-047-072-195 PubChem-132766832
     RDKit          3D

 32 35  0  0  0  0  0  0  0  0999 V2000
   12.3767   46.1238    1.7608 C   0  0  0  0  0  0  0  0  0  0  0  0
   13.3333   45.7041    2.8177 C   0  0  0  0  0  0  0  0  0  0  0  0
   14.5791   46.3209    2.9145 C   0  0  0  0  0  0  0  0  0  0  0  0
   15.4475   45.9008    3.9201 C   0  0  0  0  0  0  0  0  0  0  0  0
   16.7860   46.5312    4.0579 C   0  0  0  0  0  0  0  0  0  0  0  0
   13.8500   44.3210    4.6669 C   0  0  0  0  0  0  0  0  0  0  0  0
   14.2376   42.7293    6.6287 C   0  0  0  0  0  0  0  0  0  0  0  0
   13.6931   41.7229    7.4259 C   0  0  0  0  0  0  0  0  0  0  0  0
   14.4704   41.1893    8.4537 C   0  0  0  0  0  0  0  0  0  0  0  0
   16.2505   42.6335    7.8719 C   0  0  0  0  0  0  0  0  0  0  0  0
   17.6332   43.1239    8.1090 C   0  0  0  0  0  0  0  0  0  0  0  0
   13.9096   40.1057    9.3135 C   0  0  2  0  0  0  0  0  0  0  0  0
   13.8599   40.5423   10.7802 C   0  0  0  0  0  0  0  0  0  0  0  0
   13.3519   39.4374   11.7209 C   0  0  0  0  0  0  0  0  0  0  0  0
   13.1919   38.0822   11.0293 C   0  0  0  0  0  0  0  0  0  0  0  0
   14.7268   38.8198    9.1629 C   0  0  0  0  0  0  0  0  0  0  0  0
   15.0709   36.5772   10.2238 C   0  0  0  0  0  0  0  0  0  0  0  0
   15.0817   35.7006   11.4101 C   0  0  0  0  0  0  0  0  0  0  0  0
   14.5885   36.0476   12.5940 C   0  0  0  0  0  0  0  0  0  0  0  0
   14.6214   35.1384   13.7483 C   0  0  0  0  0  0  0  0  0  0  0  0
   15.1559   33.8620   13.7745 C   0  0  0  0  0  0  0  0  0  0  0  0
   14.9329   33.4375   15.0795 C   0  0  0  0  0  0  0  0  0  0  0  0
   13.4759   36.6731   15.3544 C   0  0  0  0  0  0  0  0  0  0  0  0
   15.0702   44.9146    4.7744 N   0  0  0  0  0  0  0  0  0  0  0  0
   13.4493   43.2812    5.5674 N   0  0  0  0  0  0  0  0  0  0  0  0
   15.7340   41.6527    8.6568 N   0  0  0  0  0  0  0  0  0  0  0  0
   15.5051   43.1636    6.8675 N   0  0  0  0  0  0  0  0  0  0  0  0
   14.3429   37.8192   10.1642 N   0  0  0  0  0  0  0  0  0  0  0  0
   14.3046   34.4106   15.7718 N   0  0  0  0  0  0  0  0  0  0  0  0
   14.1214   35.4326   14.9583 N   0  0  0  0  0  0  0  0  0  0  0  0
   12.9919   44.7213    3.6914 N   0  0  0  0  0  0  0  0  0  0  0  0
   15.7458   36.2103    9.2251 O   0  0  0  0  0  0  0  0  0  0  0  0
  1  2  1  0
  2 31  2  0
  3  4  2  0
  5  4  1  0
  6 24  2  0
  6 25  1  0
  7 27  2  0
  8  9  2  0
 10 26  2  0
 11 10  1  0
 12  9  1  6
 12 13  1  0
 13 14  1  0
 14 15  1  0
 15 28  1  0
 16 28  1  0
 16 12  1  0
 17 18  1  0
 19 20  1  0
 21 22  1  0
 23 30  1  0
 25  7  1  0
 28 17  1  0
 30 29  1  0
 30 20  1  0
  2  3  1  0
  4 24  1  0
  6 31  1  0
  7  8  1  0
  9 26  1  0
 10 27  1  0
 17 32  2  0
 18 19  2  0
 20 21  2  0
 22 29  2  0
M  END
>  <rmsd>  (1) 
0.247504205

$$$$
