MolPort-039-219-020 299764338 CSSS02125518311 MCULE-6889923365 PubChem-118772150 ZINC000299764338
     RDKit          3D

 23 25  0  0  0  0  0  0  0  0999 V2000
   13.2285   38.8894   11.7503 C   0  0  0  0  0  0  0  0  0  0  0  0
   13.6643   39.7511   10.5869 C   0  0  0  0  0  0  0  0  0  0  0  0
   14.6177   39.3917    8.2612 C   0  0  0  0  0  0  0  0  0  0  0  0
   14.7859   40.8342    8.0120 C   0  0  0  0  0  0  0  0  0  0  0  0
   14.0694   41.4180    6.9600 C   0  0  0  0  0  0  0  0  0  0  0  0
   14.2535   42.7612    6.6243 C   0  0  0  0  0  0  0  0  0  0  0  0
   13.8538   44.4564    4.7688 C   0  0  0  0  0  0  0  0  0  0  0  0
   11.4712   44.7783    3.9879 C   0  0  0  0  0  0  0  0  0  0  0  0
   10.8370   45.5623    2.8532 C   0  0  0  0  0  0  0  0  0  0  0  0
   11.9790   45.9697    1.9319 C   0  0  1  0  0  0  0  0  0  0  0  0
   11.8696   47.4296    1.5717 C   0  0  0  0  0  0  0  0  0  0  0  0
   13.5770   47.2835    3.1715 C   0  0  0  0  0  0  0  0  0  0  0  0
   13.2427   45.8610    2.7473 C   0  0  1  0  0  0  0  0  0  0  0  0
   15.1596   43.5370    7.3574 C   0  0  0  0  0  0  0  0  0  0  0  0
   15.8823   42.9649    8.4042 C   0  0  0  0  0  0  0  0  0  0  0  0
   15.7151   41.6147    8.7293 C   0  0  0  0  0  0  0  0  0  0  0  0
   14.1484   38.8952    9.5149 N   0  0  0  0  0  0  0  0  0  0  0  0
   13.4841   43.3162    5.5538 N   0  0  0  0  0  0  0  0  0  0  0  0
   12.8877   45.0675    3.9074 N   0  0  0  0  0  0  0  0  0  0  0  0
   12.6351   48.2025    2.5411 N   0  0  0  0  0  0  0  0  0  0  0  0
   14.8305   38.5773    7.3212 O   0  0  0  0  0  0  0  0  0  0  0  0
   15.0372   44.8812    4.7850 O   0  0  0  0  0  0  0  0  0  0  0  0
   16.7663   40.9247    9.9588 Cl  0  0  0  0  0  0  0  0  0  0  0  0
  1  2  1  0
  2 17  1  0
  3  4  1  0
  5  6  2  0
  6 18  1  0
  7 19  1  0
  8 19  1  0
  8  9  1  0
 10  9  1  1
 10 11  1  0
 11 20  1  0
 12 20  1  0
 13 12  1  1
 13 19  1  0
 13 10  1  0
 14 15  2  0
 16 23  1  0
 16  4  2  0
 17  3  1  0
 18  7  1  0
  3 21  2  0
  4  5  1  0
  6 14  1  0
  7 22  2  0
 15 16  1  0
M  END
>  <rmsd>  (1) 
0.241015613

$$$$
