MolPort-002-455-709 ChemDiv-D039-0039 MCULE-4081757879 PubChem-23605071 ZINC000006809953 ZINC06809953
     RDKit          3D

 23 24  0  0  0  0  0  0  0  0999 V2000
   13.4636   39.5627   12.0887 C   0  0  0  0  0  0  0  0  0  0  0  0
   13.6276   38.8312   10.7691 C   0  0  0  0  0  0  0  0  0  0  0  0
   14.8284   40.5630    9.4690 C   0  0  0  0  0  0  0  0  0  0  0  0
   14.8235   41.5392    8.3602 C   0  0  0  0  0  0  0  0  0  0  0  0
   15.8459   42.4062    7.9926 C   0  0  0  0  0  0  0  0  0  0  0  0
   17.1756   42.5269    8.6537 C   0  0  0  0  0  0  0  0  0  0  0  0
   14.2413   42.7691    6.6193 C   0  0  0  0  0  0  0  0  0  0  0  0
   13.9229   44.3427    4.6518 C   0  0  0  0  0  0  0  0  0  0  0  0
   13.4495   45.6668    2.5491 C   0  0  0  0  0  0  0  0  0  0  0  0
   12.6855   46.8169    2.3217 C   0  0  0  0  0  0  0  0  0  0  0  0
   13.0275   47.7052    1.2993 C   0  0  0  0  0  0  0  0  0  0  0  0
   14.1308   47.4412    0.4858 C   0  0  0  0  0  0  0  0  0  0  0  0
   14.8836   46.2819    0.6860 C   0  0  0  0  0  0  0  0  0  0  0  0
   14.5495   45.3875    1.7084 C   0  0  0  0  0  0  0  0  0  0  0  0
   13.7939   41.7807    7.4688 C   0  0  0  0  0  0  0  0  0  0  0  0
   12.4590   41.1175    7.4179 C   0  0  0  0  0  0  0  0  0  0  0  0
   13.7059   39.7599    9.6940 O   0  0  0  0  0  0  0  0  0  0  0  0
   15.8452   40.4506   10.2068 O   0  0  0  0  0  0  0  0  0  0  0  0
   15.0547   44.8776    4.8062 O   0  0  0  0  0  0  0  0  0  0  0  0
   15.4944   43.1582    6.9298 N   0  0  0  0  0  0  0  0  0  0  0  0
   13.4751   43.3128    5.5382 N   0  0  0  0  0  0  0  0  0  0  0  0
   13.0544   44.7844    3.6050 N   0  0  0  0  0  0  0  0  0  0  0  0
   15.5569   43.7638    1.8318 Br  0  0  0  0  0  0  0  0  0  0  0  0
  1  2  1  0
  2 17  1  0
  3 17  1  0
  3  4  1  0
  5 20  1  0
  6  5  1  0
  7 21  1  0
  8 22  1  0
 10 11  2  0
 12 13  2  0
 14 23  1  0
 14  9  2  0
 15  4  1  0
 16 15  1  0
 20  7  1  0
 21  8  1  0
 22  9  1  0
  3 18  2  0
  4  5  2  0
  7 15  2  0
  8 19  2  0
  9 10  1  0
 11 12  1  0
 13 14  1  0
M  END
>  <rmsd>  (1) 
0.187717736

$$$$
