MolPort-035-706-969 CSSS03437789224 MCULE-8319903994 PubChem-91938294
     RDKit          3D

 23 25  0  0  0  0  0  0  0  0999 V2000
   13.5535   35.4575    7.9296 C   0  0  0  0  0  0  0  0  0  0  0  0
   14.8364   36.2507    7.7608 C   0  0  0  0  0  0  0  0  0  0  0  0
   14.6018   37.8332    9.6508 C   0  0  0  0  0  0  0  0  0  0  0  0
   14.4174   39.2512   10.1190 C   0  0  1  0  0  0  0  0  0  0  0  0
   13.4982   39.2824   11.3319 C   0  0  0  0  0  0  0  0  0  0  0  0
   14.3593   41.0610    8.3716 C   0  0  0  0  0  0  0  0  0  0  0  0
   13.6598   41.6640    7.3220 C   0  0  0  0  0  0  0  0  0  0  0  0
   14.2273   42.7246    6.6070 C   0  0  0  0  0  0  0  0  0  0  0  0
   13.8946   44.3920    4.6865 C   0  0  0  0  0  0  0  0  0  0  0  0
   12.9698   44.8911    3.6243 C   0  0  0  0  0  0  0  0  0  0  0  0
   12.6996   46.3712    3.8266 C   0  0  0  0  0  0  0  0  0  0  0  0
   11.6653   45.3529    4.2483 C   0  0  0  0  0  0  0  0  0  0  0  0
   15.5074   43.1815    6.9572 C   0  0  0  0  0  0  0  0  0  0  0  0
   16.2087   42.5832    8.0079 C   0  0  0  0  0  0  0  0  0  0  0  0
   15.6339   41.5234    8.7130 C   0  0  0  0  0  0  0  0  0  0  0  0
   15.7651   39.8232   10.5110 C   0  0  0  0  0  0  0  0  0  0  0  0
   14.6776   37.5660    8.2795 O   0  0  0  0  0  0  0  0  0  0  0  0
   14.7500   36.9007   10.4897 O   0  0  0  0  0  0  0  0  0  0  0  0
   13.7762   40.0015    9.0750 O   0  0  0  0  0  0  0  0  0  0  0  0
   15.0472   44.8918    4.7906 O   0  0  0  0  0  0  0  0  0  0  0  0
   16.4078   39.3226   11.4730 O   0  0  0  0  0  0  0  0  0  0  0  0
   13.4757   43.3161    5.5386 N   0  0  0  0  0  0  0  0  0  0  0  0
   16.3354   40.9159    9.7911 N   0  0  0  0  0  0  0  0  0  0  0  0
  1  2  1  0
  2 17  1  0
  3 17  1  0
  4  3  1  0
  4  5  1  1
  4 19  1  0
  4 16  1  0
  6 19  1  0
  7  8  2  0
  8 22  1  0
 10  9  1  0
 10 11  1  0
 11 12  1  0
 12 10  1  0
 13 14  2  0
 15 23  1  0
 15  6  2  0
 22  9  1  0
 23 16  1  0
  3 18  2  0
  6  7  1  0
  8 13  1  0
  9 20  2  0
 14 15  1  0
 16 21  2  0
M  END
>  <rmsd>  (1) 
0.231010497

$$$$
