MolPort-002-455-752 2685904 CSSS03437074035 MCULE-3982980660 PubChem-2134010 ZINC000002685904 ZINC02685904
     RDKit          3D

 21 21  0  0  0  0  0  0  0  0999 V2000
   15.2260   44.8704   -1.2739 C   0  0  0  0  0  0  0  0  0  0  0  0
   15.8822   45.7779   -0.2503 C   0  0  0  0  0  0  0  0  0  0  0  0
   14.8505   46.3032    0.7320 C   0  0  0  0  0  0  0  0  0  0  0  0
   14.4625   45.2211    1.7218 C   0  0  0  0  0  0  0  0  0  0  0  0
   13.4315   45.7690    2.6913 C   0  0  0  0  0  0  0  0  0  0  0  0
   13.9161   44.3486    4.6584 C   0  0  0  0  0  0  0  0  0  0  0  0
   14.2448   42.7784    6.6280 C   0  0  0  0  0  0  0  0  0  0  0  0
   13.8073   41.7802    7.4715 C   0  0  0  0  0  0  0  0  0  0  0  0
   12.4852   41.0931    7.4068 C   0  0  0  0  0  0  0  0  0  0  0  0
   14.8325   41.5560    8.3724 C   0  0  0  0  0  0  0  0  0  0  0  0
   14.8445   40.5779    9.4795 C   0  0  0  0  0  0  0  0  0  0  0  0
   13.6719   38.8167   10.7600 C   0  0  0  0  0  0  0  0  0  0  0  0
   13.3820   39.5302   12.0672 C   0  0  0  0  0  0  0  0  0  0  0  0
   15.8420   42.4426    8.0167 C   0  0  0  0  0  0  0  0  0  0  0  0
   17.1625   42.5870    8.6915 C   0  0  0  0  0  0  0  0  0  0  0  0
   13.0620   44.7724    3.6373 O   0  0  0  0  0  0  0  0  0  0  0  0
   15.0530   44.8770    4.8005 O   0  0  0  0  0  0  0  0  0  0  0  0
   15.8553   40.4838   10.2281 O   0  0  0  0  0  0  0  0  0  0  0  0
   13.7349   39.7543    9.6925 O   0  0  0  0  0  0  0  0  0  0  0  0
   13.4778   43.3121    5.5423 N   0  0  0  0  0  0  0  0  0  0  0  0
   15.4869   43.1904    6.9520 N   0  0  0  0  0  0  0  0  0  0  0  0
  1  2  1  0
  2  3  1  0
  3  4  1  0
  4  5  1  0
  5 16  1  0
  6 16  1  0
  6 20  1  0
  8 10  1  0
  9  8  1  0
 10 11  1  0
 11 19  1  0
 12 19  1  0
 12 13  1  0
 14 21  1  0
 15 14  1  0
 20  7  1  0
 21  7  1  0
  6 17  2  0
  7  8  2  0
 10 14  2  0
 11 18  2  0
M  END
>  <rmsd>  (1) 
0.18664442

$$$$
