MolPort-051-443-739 2356137063 CSSS09880969218 MCULE-4277650856 PubChem-162637231 QEFWAKVEWCZNOH-UHFFFAOYSA-N
     RDKit          3D

 27 29  0  0  0  0  0  0  0  0999 V2000
   13.9306   44.3020    4.6384 C   0  0  0  0  0  0  0  0  0  0  0  0
   14.2327   42.8658    6.7064 C   0  0  0  0  0  0  0  0  0  0  0  0
   13.8185   41.9286    7.6155 C   0  0  0  0  0  0  0  0  0  0  0  0
   14.8446   41.8438    8.5108 C   0  0  0  0  0  0  0  0  0  0  0  0
   14.7937   40.9857    9.6053 C   0  0  0  0  0  0  0  0  0  0  0  0
   13.6412   40.1830    9.7579 C   0  0  0  0  0  0  0  0  0  0  0  0
   13.5095   39.2770   10.9473 C   0  0  0  0  0  0  0  0  0  0  0  0
   12.5745   40.2951    8.8294 C   0  0  0  0  0  0  0  0  0  0  0  0
   12.6560   41.1746    7.7339 C   0  0  0  0  0  0  0  0  0  0  0  0
   13.0389   44.7015    3.5145 C   0  0  0  0  0  0  0  0  0  0  0  0
   10.8115   45.3702    4.4404 C   0  0  0  0  0  0  0  0  0  0  0  0
   10.2386   43.9923    4.5037 C   0  0  0  0  0  0  0  0  0  0  0  0
   10.2000   46.5519    4.8345 C   0  0  0  0  0  0  0  0  0  0  0  0
    8.8477   46.7492    5.4031 C   0  0  0  0  0  0  0  0  0  0  0  0
    7.9232   45.6032    5.6263 C   0  0  0  0  0  0  0  0  0  0  0  0
   11.1594   47.5251    4.5794 C   0  0  0  0  0  0  0  0  0  0  0  0
   11.0325   48.9887    4.8255 C   0  0  0  0  0  0  0  0  0  0  0  0
   13.4868   43.3098    5.5689 N   0  0  0  0  0  0  0  0  0  0  0  0
   15.8372   42.6865    8.1697 N   0  0  0  0  0  0  0  0  0  0  0  0
   15.4600   43.3152    7.0586 N   0  0  0  0  0  0  0  0  0  0  0  0
   12.0459   45.6578    3.9826 N   0  0  0  0  0  0  0  0  0  0  0  0
   12.2698   46.9588    4.0686 N   0  0  0  0  0  0  0  0  0  0  0  0
   14.7531   38.8153   11.3426 F   0  0  0  0  0  0  0  0  0  0  0  0
   12.7127   38.1881   10.6388 F   0  0  0  0  0  0  0  0  0  0  0  0
   12.9343   39.9759   11.9921 F   0  0  0  0  0  0  0  0  0  0  0  0
   15.0483   44.8666    4.7742 O   0  0  0  0  0  0  0  0  0  0  0  0
    8.4546   47.9051    5.7104 O   0  0  0  0  0  0  0  0  0  0  0  0
  1 18  1  0
  2  3  1  0
  3  4  2  0
  4 19  1  0
  5  6  2  0
  7  6  1  0
  7 23  1  0
  7 24  1  0
  7 25  1  0
  8  9  2  0
 10  1  1  0
 10 21  1  0
 12 11  1  0
 13 14  1  0
 13 16  1  0
 15 14  1  0
 17 16  1  0
 18  2  1  0
 19 20  1  0
 21 11  1  0
 21 22  1  0
  1 26  2  0
  2 20  2  0
  4  5  1  0
  6  8  1  0
  9  3  1  0
 11 13  2  0
 14 27  2  0
 16 22  2  0
M  END
>  <rmsd>  (1) 
0.247838199

$$$$
