Molport-046-971-704 MCULE-1980427541 PubChem-110111659
     RDKit          3D

 27 30  0  0  0  0  0  0  0  0999 V2000
   13.0312   39.3634   11.5607 C   0  0  0  0  0  0  0  0  0  0  0  0
   13.6609   40.4866   10.7403 C   0  0  0  0  0  0  0  0  0  0  0  0
   13.7992   40.0632    9.2759 C   0  0  2  0  0  0  0  0  0  0  0  0
   14.6204   38.7778    9.1625 C   0  0  0  0  0  0  0  0  0  0  0  0
   13.8744   38.0973   11.4449 C   0  0  0  0  0  0  0  0  0  0  0  0
   13.5502   36.5274    9.4714 C   0  0  0  0  0  0  0  0  0  0  0  0
   13.2260   35.3456   10.3001 C   0  0  0  0  0  0  0  0  0  0  0  0
   13.3333   34.1827   12.3613 C   0  0  0  0  0  0  0  0  0  0  0  0
   12.6458   33.1062   11.8051 C   0  0  0  0  0  0  0  0  0  0  0  0
   12.2636   33.1871   10.4678 C   0  0  0  0  0  0  0  0  0  0  0  0
   14.4009   41.1580    8.4535 C   0  0  0  0  0  0  0  0  0  0  0  0
   13.6607   41.7071    7.4041 C   0  0  0  0  0  0  0  0  0  0  0  0
   14.2132   42.7298    6.6290 C   0  0  0  0  0  0  0  0  0  0  0  0
   16.2102   42.6638    7.9203 C   0  0  0  0  0  0  0  0  0  0  0  0
   15.6898   41.6413    8.7149 C   0  0  0  0  0  0  0  0  0  0  0  0
   13.8529   44.3297    4.6677 C   0  0  0  0  0  0  0  0  0  0  0  0
   12.9742   44.7556    3.6679 C   0  0  0  0  0  0  0  0  0  0  0  0
   13.3661   45.7747    2.7981 C   0  0  0  0  0  0  0  0  0  0  0  0
   14.6268   46.3576    2.9334 C   0  0  0  0  0  0  0  0  0  0  0  0
   15.4796   45.9081    3.9433 C   0  0  0  0  0  0  0  0  0  0  0  0
   14.0507   37.7543   10.0353 N   0  0  0  0  0  0  0  0  0  0  0  0
   13.6122   35.2750   11.6034 N   0  0  0  0  0  0  0  0  0  0  0  0
   12.5608   34.2966    9.7425 N   0  0  0  0  0  0  0  0  0  0  0  0
   15.4690   43.1815    6.9045 N   0  0  0  0  0  0  0  0  0  0  0  0
   13.4421   43.2832    5.5558 N   0  0  0  0  0  0  0  0  0  0  0  0
   15.0792   44.9138    4.7809 N   0  0  0  0  0  0  0  0  0  0  0  0
   13.3863   36.4466    8.2232 O   0  0  0  0  0  0  0  0  0  0  0  0
  1  2  1  0
  2  3  1  0
  3  4  1  0
  3 11  1  6
  4 21  1  0
  5 21  1  0
  5  1  1  0
  6  7  1  0
  7 23  2  0
  8 22  2  0
  9 10  2  0
 12 13  2  0
 13 25  1  0
 14 24  2  0
 15 11  2  0
 16 26  2  0
 17 18  2  0
 19 20  2  0
 21  6  1  0
 25 16  1  0
  6 27  2  0
  7 22  1  0
  8  9  1  0
 10 23  1  0
 11 12  1  0
 13 24  1  0
 14 15  1  0
 16 17  1  0
 18 19  1  0
 20 26  1  0
M  END
>  <rmsd>  (1) 
0.243834287

$$$$
