MolPort-002-173-777 MolPort-002-548-036 MolPort-047-713-465 CSSS00107064492 ChemDiv-4120-0457 LN00488348 MCULE-8692214273 MCULE-9998837735 PubChem-2874769 PubChem-2874770 PubChem-5344390
     RDKit          3D

 30 33  0  0  0  0  0  0  0  0999 V2000
   17.7842   41.2618   10.0262 C   0  0  0  0  0  0  0  0  0  0  0  0
   15.7116   41.5022    8.6869 C   0  0  0  0  0  0  0  0  0  0  0  0
   16.2811   42.5332    7.9216 C   0  0  0  0  0  0  0  0  0  0  0  0
   15.5606   43.1383    6.8921 C   0  0  0  0  0  0  0  0  0  0  0  0
   14.2562   42.7223    6.6045 C   0  0  0  0  0  0  0  0  0  0  0  0
   13.8969   44.3711    4.6753 C   0  0  0  0  0  0  0  0  0  0  0  0
   12.9510   44.8472    3.6231 C   0  0  1  0  0  0  0  0  0  0  0  0
   12.5832   46.3166    3.8638 C   0  0  0  0  0  0  0  0  0  0  0  0
   12.0483   46.9638    2.5872 C   0  0  0  0  0  0  0  0  0  0  0  0
   13.0107   46.7815    1.3991 C   0  0  0  0  0  0  0  0  0  0  0  0
   14.7429   45.5309    0.4268 C   0  0  0  0  0  0  0  0  0  0  0  0
   16.1853   45.2113    0.6384 C   0  0  0  0  0  0  0  0  0  0  0  0
   17.0656   46.1899    1.1164 C   0  0  0  0  0  0  0  0  0  0  0  0
   18.4159   45.8828    1.3096 C   0  0  0  0  0  0  0  0  0  0  0  0
   18.8885   44.5982    1.0232 C   0  0  0  0  0  0  0  0  0  0  0  0
   18.0112   43.6212    0.5424 C   0  0  0  0  0  0  0  0  0  0  0  0
   16.6607   43.9280    0.3492 C   0  0  0  0  0  0  0  0  0  0  0  0
   13.5382   44.6133    2.2245 C   0  0  0  0  0  0  0  0  0  0  0  0
   13.6834   41.6998    7.3641 C   0  0  0  0  0  0  0  0  0  0  0  0
   14.3866   41.0869    8.4074 C   0  0  0  0  0  0  0  0  0  0  0  0
   14.1729   39.5078   10.3430 C   0  0  0  0  0  0  0  0  0  0  0  0
   13.8436   40.4417   11.4978 C   0  0  0  0  0  0  0  0  0  0  0  0
   12.7388   39.7752   12.2871 C   0  0  0  0  0  0  0  0  0  0  0  0
   12.8910   38.2991   12.0120 C   0  0  0  0  0  0  0  0  0  0  0  0
   13.4258   38.2118   10.5999 C   0  0  0  0  0  0  0  0  0  0  0  0
   16.4524   40.8860    9.7020 O   0  0  0  0  0  0  0  0  0  0  0  0
   15.0389   44.8964    4.7803 O   0  0  0  0  0  0  0  0  0  0  0  0
   13.7246   40.0726    9.1166 O   0  0  0  0  0  0  0  0  0  0  0  0
   13.4843   43.3143    5.5509 N   0  0  0  0  0  0  0  0  0  0  0  0
   14.1061   45.8524    1.6944 N   0  0  0  0  0  0  0  0  0  0  0  0
  1 26  1  0
  2 26  1  0
  3  4  2  0
  5 29  1  0
  5 19  2  0
  7  6  1  1
  7  8  1  0
  8  9  1  0
  9 10  1  0
 10 30  1  0
 11 30  1  0
 11 12  1  0
 13 14  2  0
 15 16  2  0
 17 12  2  0
 18 30  1  0
 18  7  1  0
 20 28  1  0
 20  2  2  0
 21 28  1  0
 21 22  1  0
 22 23  1  0
 23 24  1  0
 24 25  1  0
 25 21  1  0
 29  6  1  0
  2  3  1  0
  4  5  1  0
  6 27  2  0
 12 13  1  0
 14 15  1  0
 16 17  1  0
 19 20  1  0
M  END
>  <rmsd>  (1) 
0.230132088

$$$$
