MolPort-035-706-970 CSSS03437789225 MCULE-7258694995 PubChem-91938295
     RDKit          3D

 27 29  0  0  0  0  0  0  0  0999 V2000
   16.0399   36.2542    6.8930 C   0  0  0  0  0  0  0  0  0  0  0  0
   14.7931   36.2781    7.7522 C   0  0  0  0  0  0  0  0  0  0  0  0
   14.5625   37.8420    9.6410 C   0  0  0  0  0  0  0  0  0  0  0  0
   14.3974   39.2565   10.1264 C   0  0  1  0  0  0  0  0  0  0  0  0
   13.4941   39.2839   11.3512 C   0  0  0  0  0  0  0  0  0  0  0  0
   14.3473   41.0649    8.3780 C   0  0  0  0  0  0  0  0  0  0  0  0
   13.6462   41.6754    7.3338 C   0  0  0  0  0  0  0  0  0  0  0  0
   14.2273   42.7172    6.6020 C   0  0  0  0  0  0  0  0  0  0  0  0
   13.9023   44.3809    4.6792 C   0  0  0  0  0  0  0  0  0  0  0  0
   12.9870   44.8686    3.6132 C   0  0  0  0  0  0  0  0  0  0  0  0
   13.1571   44.0237    2.3630 C   0  0  0  0  0  0  0  0  0  0  0  0
   12.2351   44.5168    1.2623 C   0  0  0  0  0  0  0  0  0  0  0  0
   12.7716   45.7883    0.6396 C   0  0  0  0  0  0  0  0  0  0  0  0
   12.3357   45.7307   -0.8045 C   0  0  0  0  0  0  0  0  0  0  0  0
   12.3145   44.2594   -1.1621 C   0  0  0  0  0  0  0  0  0  0  0  0
   12.1714   43.4957    0.1429 C   0  0  0  0  0  0  0  0  0  0  0  0
   15.5231   43.1466    6.9290 C   0  0  0  0  0  0  0  0  0  0  0  0
   16.2256   42.5409    7.9745 C   0  0  0  0  0  0  0  0  0  0  0  0
   15.6370   41.5007    8.6971 C   0  0  0  0  0  0  0  0  0  0  0  0
   15.7558   39.8114   10.5060 C   0  0  0  0  0  0  0  0  0  0  0  0
   14.5987   37.5862    8.2680 O   0  0  0  0  0  0  0  0  0  0  0  0
   14.7251   36.9009   10.4676 O   0  0  0  0  0  0  0  0  0  0  0  0
   13.7506   40.0249    9.0989 O   0  0  0  0  0  0  0  0  0  0  0  0
   15.0476   44.8928    4.7919 O   0  0  0  0  0  0  0  0  0  0  0  0
   16.3980   39.3071   11.4665 O   0  0  0  0  0  0  0  0  0  0  0  0
   13.4750   43.3153    5.5377 N   0  0  0  0  0  0  0  0  0  0  0  0
   16.3390   40.8878    9.7718 N   0  0  0  0  0  0  0  0  0  0  0  0
  1  2  1  0
  2 21  1  0
  3 21  1  0
  4  3  1  0
  4  5  1  1
  4 23  1  0
  4 20  1  0
  6 23  1  0
  7  8  2  0
  8 26  1  0
 10  9  1  0
 10 11  1  0
 11 12  1  0
 12 13  1  0
 13 14  1  0
 14 15  1  0
 15 16  1  0
 16 12  1  0
 17 18  2  0
 19 27  1  0
 19  6  2  0
 26  9  1  0
 27 20  1  0
  3 22  2  0
  6  7  1  0
  8 17  1  0
  9 24  2  0
 18 19  1  0
 20 25  2  0
M  END
>  <rmsd>  (1) 
0.231116623

$$$$
