MolPort-000-061-005 1361298 MCULE-4841259958 PubChem-1455182 ZINC000001361298 ZINC01361298
     RDKit          3D

 29 31  0  0  0  0  0  0  0  0999 V2000
   13.0142   43.4537    2.4842 C   0  0  0  0  0  0  0  0  0  0  0  0
   13.1494   44.6505    3.4051 C   0  0  0  0  0  0  0  0  0  0  0  0
   13.9604   44.2885    4.5995 C   0  0  0  0  0  0  0  0  0  0  0  0
   14.2309   42.7271    6.5872 C   0  0  0  0  0  0  0  0  0  0  0  0
   13.6404   42.6255    7.8503 C   0  0  0  0  0  0  0  0  0  0  0  0
   14.3345   42.0449    8.9130 C   0  0  0  0  0  0  0  0  0  0  0  0
   15.6276   41.5398    8.7259 C   0  0  0  0  0  0  0  0  0  0  0  0
   15.9494   40.6712   11.1352 C   0  0  0  0  0  0  0  0  0  0  0  0
   14.5421   40.8810   11.5808 C   0  0  0  0  0  0  0  0  0  0  0  0
   12.0256   40.2319   11.6077 C   0  0  0  0  0  0  0  0  0  0  0  0
   11.7718   39.7618   14.0836 C   0  0  0  0  0  0  0  0  0  0  0  0
   10.8229   39.6150   15.1180 C   0  0  0  0  0  0  0  0  0  0  0  0
   11.2108   39.1147   16.3648 C   0  0  0  0  0  0  0  0  0  0  0  0
   12.5402   38.7597   16.5994 C   0  0  0  0  0  0  0  0  0  0  0  0
   13.4879   38.9039   15.5861 C   0  0  0  0  0  0  0  0  0  0  0  0
   13.1046   39.4030   14.3393 C   0  0  0  0  0  0  0  0  0  0  0  0
   16.2101   41.6153    7.4577 C   0  0  0  0  0  0  0  0  0  0  0  0
   15.5253   42.1976    6.3864 C   0  0  0  0  0  0  0  0  0  0  0  0
   16.1668   42.1595    5.0415 C   0  0  0  0  0  0  0  0  0  0  0  0
   15.0514   44.8822    4.8094 O   0  0  0  0  0  0  0  0  0  0  0  0
   16.7767   40.1968   11.9559 O   0  0  0  0  0  0  0  0  0  0  0  0
   13.4663   43.3163    5.5274 N   0  0  0  0  0  0  0  0  0  0  0  0
   16.3791   40.9428    9.7930 N   0  0  0  0  0  0  0  0  0  0  0  0
   11.3104   40.8706   10.6644 N   0  0  0  0  0  0  0  0  0  0  0  0
   10.2371   41.3258   11.2942 N   0  0  0  0  0  0  0  0  0  0  0  0
   10.2815   40.9806   12.5719 N   0  0  0  0  0  0  0  0  0  0  0  0
   11.3889   40.2934   12.7978 N   0  0  0  0  0  0  0  0  0  0  0  0
   13.5661   39.3836   11.2590 S   0  0  0  0  0  0  0  0  0  0  0  0
    9.5198   39.9352   14.9243 F   0  0  0  0  0  0  0  0  0  0  0  0
  1  2  1  0
  2  3  1  0
  3 22  1  0
  5  6  2  0
  7 23  1  0
  7 17  2  0
  9  8  1  0
  9 28  1  0
 10 28  1  0
 12 29  1  0
 12 13  2  0
 14 15  2  0
 16 11  2  0
 18  4  2  0
 19 18  1  0
 22  4  1  0
 23  8  1  0
 24 25  1  0
 27 26  1  0
 27 11  1  0
 27 10  1  0
  3 20  2  0
  4  5  1  0
  6  7  1  0
  8 21  2  0
 10 24  2  0
 11 12  1  0
 13 14  1  0
 15 16  1  0
 17 18  1  0
 25 26  2  0
M  END
>  <rmsd>  (1) 
0.249389678

$$$$
