MolPort-005-101-321 12471464 CSSS00159780271 PubChem-25306940 ZINC000012471464
     RDKit          3D

 30 33  0  0  0  0  0  0  0  0999 V2000
   17.8584   41.5841   15.9617 F   0  0  0  0  0  0  0  0  0  0  0  0
   17.1096   41.0748   14.9547 C   0  0  0  0  0  0  0  0  0  0  0  0
   17.7093   40.7442   13.7362 C   0  0  0  0  0  0  0  0  0  0  0  0
   16.9369   40.2183   12.6960 C   0  0  0  0  0  0  0  0  0  0  0  0
   15.5626   40.0204   12.8678 C   0  0  0  0  0  0  0  0  0  0  0  0
   14.7836   39.4640   11.7537 C   0  0  0  0  0  0  0  0  0  0  0  0
   13.4723   39.2561   11.8259 C   0  0  0  0  0  0  0  0  0  0  0  0
   12.7271   38.6904   10.6641 C   0  0  0  0  0  0  0  0  0  0  0  0
   12.7722   38.8343    8.3262 C   0  0  0  0  0  0  0  0  0  0  0  0
   12.5868   39.6930    7.0624 C   0  0  0  0  0  0  0  0  0  0  0  0
   12.4089   41.1934    7.3435 C   0  0  0  0  0  0  0  0  0  0  0  0
   11.5075   41.4936    8.5518 C   0  0  0  0  0  0  0  0  0  0  0  0
   11.4827   40.3608    9.5803 C   0  0  0  0  0  0  0  0  0  0  0  0
   15.6492   42.4251    8.2228 C   0  0  0  0  0  0  0  0  0  0  0  0
   15.4315   43.2132    7.0981 C   0  0  0  0  0  0  0  0  0  0  0  0
   14.1808   42.8139    6.6651 C   0  0  0  0  0  0  0  0  0  0  0  0
   13.9383   44.3350    4.6313 C   0  0  0  0  0  0  0  0  0  0  0  0
   13.0965   44.7560    3.4982 C   0  0  0  0  0  0  0  0  0  0  0  0
   11.8491   44.1588    3.2749 C   0  0  0  0  0  0  0  0  0  0  0  0
   11.4835   45.5246    1.3679 C   0  0  0  0  0  0  0  0  0  0  0  0
   12.7190   46.1482    1.5511 C   0  0  0  0  0  0  0  0  0  0  0  0
   13.5257   45.7601    2.6217 C   0  0  0  0  0  0  0  0  0  0  0  0
   14.9647   40.3554   14.0936 C   0  0  0  0  0  0  0  0  0  0  0  0
   15.7372   40.8807   15.1337 C   0  0  0  0  0  0  0  0  0  0  0  0
   12.7434   39.6282    9.5533 N   0  0  0  0  0  0  0  0  0  0  0  0
   13.7012   41.8613    7.4761 N   0  0  0  0  0  0  0  0  0  0  0  0
   14.5863   41.6182    8.4261 N   0  0  0  0  0  0  0  0  0  0  0  0
   13.4693   43.3179    5.5272 N   0  0  0  0  0  0  0  0  0  0  0  0
   11.0772   44.5511    2.2259 N   0  0  0  0  0  0  0  0  0  0  0  0
   15.0666   44.8708    4.8068 O   0  0  0  0  0  0  0  0  0  0  0  0
  2  1  1  0
  3  4  2  0
  5  6  1  0
  5 23  2  0
  8  7  1  0
  8 25  1  0
  9 25  1  0
  9 10  1  0
 10 11  1  0
 11 12  1  0
 11 26  1  0
 12 13  1  0
 13 25  1  0
 14 15  1  0
 16 28  1  0
 16 26  1  0
 17 18  1  0
 19 29  2  0
 20 21  2  0
 22 18  2  0
 24  2  2  0
 26 27  1  0
 28 17  1  0
  2  3  1  0
  4  5  1  0
  6  7  2  0
 14 27  2  0
 15 16  2  0
 17 30  2  0
 18 19  1  0
 20 29  1  0
 21 22  1  0
 23 24  1  0
M  END
>  <rmsd>  (1) 
0.239214137

$$$$
