MolPort-002-859-468 CSSS00138420673 MCULE-9691580979
     RDKit          3D

 25 27  0  0  0  0  0  0  0  0999 V2000
   16.6944   46.4901    4.0212 C   0  0  0  0  0  0  0  0  0  0  0  0
   13.9037   44.3142    4.6717 C   0  0  0  0  0  0  0  0  0  0  0  0
   14.2420   42.7847    6.6805 C   0  0  0  0  0  0  0  0  0  0  0  0
   15.7470   42.4558    8.0783 C   0  0  0  0  0  0  0  0  0  0  0  0
   17.0018   41.6215    9.8669 C   0  0  0  0  0  0  0  0  0  0  0  0
   15.9555   40.7351   10.1891 C   0  0  0  0  0  0  0  0  0  0  0  0
   14.7856   40.7505    9.4077 C   0  0  0  0  0  0  0  0  0  0  0  0
   13.6366   39.8100    9.6609 C   0  0  2  0  0  0  0  0  0  0  0  0
   13.5259   39.3274   11.1024 C   0  0  0  0  0  0  0  0  0  0  0  0
   14.5675   37.7044    8.6395 C   0  0  0  0  0  0  0  0  0  0  0  0
   15.6529   37.6185    9.5263 C   0  0  0  0  0  0  0  0  0  0  0  0
   16.5848   36.5843    9.4058 C   0  0  0  0  0  0  0  0  0  0  0  0
   17.7310   36.5044   10.3476 C   0  0  0  0  0  0  0  0  0  0  0  0
   16.4380   35.6265    8.3992 C   0  0  0  0  0  0  0  0  0  0  0  0
   15.3592   35.7039    7.5142 C   0  0  0  0  0  0  0  0  0  0  0  0
   15.2021   34.6855    6.4437 C   0  0  0  0  0  0  0  0  0  0  0  0
   14.4280   36.7398    7.6353 C   0  0  0  0  0  0  0  0  0  0  0  0
   15.4303   45.8651    3.8961 O   0  0  0  0  0  0  0  0  0  0  0  0
   13.6119   38.7279    8.7258 O   0  0  0  0  0  0  0  0  0  0  0  0
   15.0573   44.8855    4.7847 N   0  0  0  0  0  0  0  0  0  0  0  0
   13.4800   43.2898    5.5782 N   0  0  0  0  0  0  0  0  0  0  0  0
   13.7746   41.8100    7.4971 N   0  0  0  0  0  0  0  0  0  0  0  0
   14.7453   41.6237    8.3693 N   0  0  0  0  0  0  0  0  0  0  0  0
   15.4873   43.2256    7.0083 N   0  0  0  0  0  0  0  0  0  0  0  0
   16.8873   42.4777    8.8098 N   0  0  0  0  0  0  0  0  0  0  0  0
  1 18  1  0
  2 21  1  0
  3 24  1  0
  4 25  1  0
  5  6  1  0
  7 23  1  0
  8  7  1  0
  8  9  1  1
  8 19  1  0
 10 19  1  0
 11 12  2  0
 13 12  1  0
 14 15  2  0
 16 15  1  0
 17 10  2  0
 18 20  1  0
 21  3  1  0
 23 22  1  0
 23  4  1  0
  2 20  2  0
  3 22  2  0
  4 24  2  0
  5 25  2  0
  6  7  2  0
 10 11  1  0
 12 14  1  0
 15 17  1  0
M  END
>  <rmsd>  (1) 
0.194248006

$$$$
