MolPort-002-633-366 5556652 CHEMBL1445989 LN00746763 PubChem-1623160 ZINC000005556652 ZINC05556652
     RDKit          3D

 24 26  0  0  0  0  0  0  0  0999 V2000
   13.3615   38.5654   11.2195 C   0  0  0  0  0  0  0  0  0  0  0  0
   13.2320   40.0568   11.4659 C   0  0  0  0  0  0  0  0  0  0  0  0
   13.3092   40.8190   10.1555 C   0  0  0  0  0  0  0  0  0  0  0  0
   14.7471   40.8726    9.6559 C   0  0  0  0  0  0  0  0  0  0  0  0
   14.3425   42.6904    6.5870 C   0  0  0  0  0  0  0  0  0  0  0  0
   13.9391   44.2734    4.6269 C   0  0  0  0  0  0  0  0  0  0  0  0
   13.0432   44.6136    3.4891 C   0  0  0  0  0  0  0  0  0  0  0  0
   12.0716   45.7005    3.9043 C   0  0  0  0  0  0  0  0  0  0  0  0
   15.7111   42.4785    6.5443 C   0  0  0  0  0  0  0  0  0  0  0  0
   16.7056   42.7479    5.6093 C   0  0  0  0  0  0  0  0  0  0  0  0
   18.0061   42.3145    5.9196 C   0  0  0  0  0  0  0  0  0  0  0  0
   19.0598   42.5607    5.0376 C   0  0  0  0  0  0  0  0  0  0  0  0
   20.3589   42.1246    5.3473 C   0  0  0  0  0  0  0  0  0  0  0  0
   21.2903   43.0445    3.2483 C   0  0  0  0  0  0  0  0  0  0  0  0
   20.5921   41.4392    6.5457 C   0  0  0  0  0  0  0  0  0  0  0  0
   19.5462   41.1837    7.4377 C   0  0  0  0  0  0  0  0  0  0  0  0
   18.2521   41.6143    7.1400 C   0  0  0  0  0  0  0  0  0  0  0  0
   15.9835   41.7951    7.6935 C   0  0  0  0  0  0  0  0  0  0  0  0
   14.8536   41.5906    8.3886 N   0  0  0  0  0  0  0  0  0  0  0  0
   13.8400   42.1258    7.7125 N   0  0  0  0  0  0  0  0  0  0  0  0
   13.5165   43.3009    5.5878 N   0  0  0  0  0  0  0  0  0  0  0  0
   17.2285   41.3568    8.0084 N   0  0  0  0  0  0  0  0  0  0  0  0
   15.0200   44.9027    4.7733 O   0  0  0  0  0  0  0  0  0  0  0  0
   21.4333   42.3580    4.4844 O   0  0  0  0  0  0  0  0  0  0  0  0
  1  2  1  0
  2  3  1  0
  3  4  1  0
  4 19  1  0
  5 21  1  0
  5  9  1  0
  7  6  1  0
  7  8  1  0
 10 11  2  0
 12 13  2  0
 13 24  1  0
 14 24  1  0
 15 16  2  0
 17 22  2  0
 17 11  1  0
 18 19  1  0
 18  9  2  0
 19 20  1  0
 21  6  1  0
  5 20  2  0
  6 23  2  0
  9 10  1  0
 11 12  1  0
 13 15  1  0
 16 17  1  0
 18 22  1  0
M  END
>  <rmsd>  (1) 
0.163044244

$$$$
