Molport-047-017-564 585263107 MCULE-7410489732 MCULE-9561477741 PubChem-129569951 ZINC000585263107
     RDKit          3D

 22 24  0  0  0  0  0  0  0  0999 V2000
   15.1191   35.9478   12.3145 C   0  0  0  0  0  0  0  0  0  0  0  0
   13.8882   37.8552   11.7584 C   0  0  1  0  0  0  0  0  0  0  0  0
   12.4433   38.0913   11.3005 C   0  0  0  0  0  0  0  0  0  0  0  0
   12.1038   39.5719   11.0681 C   0  0  0  0  0  0  0  0  0  0  0  0
   13.2986   40.3800   10.5506 C   0  0  2  0  0  0  0  0  0  0  0  0
   13.6449   39.9649    9.1240 C   0  0  0  0  0  0  0  0  0  0  0  0
   14.3092   41.0729    8.3753 C   0  0  0  0  0  0  0  0  0  0  0  0
   15.6132   41.4667    8.6921 C   0  0  0  0  0  0  0  0  0  0  0  0
   16.2130   42.4911    7.9605 C   0  0  0  0  0  0  0  0  0  0  0  0
   15.5118   43.1048    6.9223 C   0  0  0  0  0  0  0  0  0  0  0  0
   14.2092   42.6829    6.6226 C   0  0  0  0  0  0  0  0  0  0  0  0
   13.8705   44.3373    4.6962 C   0  0  0  0  0  0  0  0  0  0  0  0
   15.2129   45.9121    3.8182 C   0  0  0  0  0  0  0  0  0  0  0  0
   14.0949   46.0702    3.0105 C   0  0  0  0  0  0  0  0  0  0  0  0
   13.9658   47.0548    1.9052 C   0  0  0  0  0  0  0  0  0  0  0  0
   14.5264   40.2676   11.4735 C   0  0  0  0  0  0  0  0  0  0  0  0
   14.4661   39.0875   12.4482 C   0  0  0  0  0  0  0  0  0  0  0  0
   13.9333   36.7142   12.6562 N   0  0  0  0  0  0  0  0  0  0  0  0
   13.4480   43.2781    5.5634 N   0  0  0  0  0  0  0  0  0  0  0  0
   15.0793   44.9398    4.7595 N   0  0  0  0  0  0  0  0  0  0  0  0
   13.6482   41.6803    7.3526 N   0  0  0  0  0  0  0  0  0  0  0  0
   12.9078   44.9748    3.4759 S   0  0  0  0  0  0  0  0  0  0  0  0
  1 18  1  0
  2 18  1  1
  2  3  1  0
  3  4  1  0
  4  5  1  0
  5  6  1  6
  5 16  1  0
  6  7  1  0
  7 21  2  0
  8  9  2  0
 10 11  2  0
 11 19  1  0
 12 22  1  0
 13 20  1  0
 14 22  1  0
 15 14  1  0
 16 17  1  0
 17  2  1  0
 19 12  1  0
  7  8  1  0
  9 10  1  0
 11 21  1  0
 12 20  2  0
 13 14  2  0
M  END
>  <rmsd>  (1) 
0.24558042

$$$$
