MolPort-020-295-316 MCULE-3182182916 PubChem-110267398
     RDKit          3D

 32 36  0  0  0  0  0  0  0  0999 V2000
   15.0136   47.4364    2.0019 C   0  0  0  0  0  0  0  0  0  0  0  0
   14.5967   46.3518    2.9280 C   0  0  0  0  0  0  0  0  0  0  0  0
   15.4618   45.9088    3.9298 C   0  0  0  0  0  0  0  0  0  0  0  0
   13.8470   44.3271    4.6743 C   0  0  0  0  0  0  0  0  0  0  0  0
   12.9570   44.7474    3.6819 C   0  0  0  0  0  0  0  0  0  0  0  0
   13.3365   45.7656    2.8055 C   0  0  0  0  0  0  0  0  0  0  0  0
   14.2315   42.7330    6.6362 C   0  0  0  0  0  0  0  0  0  0  0  0
   16.2225   42.6765    7.9160 C   0  0  0  0  0  0  0  0  0  0  0  0
   15.7012   41.6521    8.7027 C   0  0  0  0  0  0  0  0  0  0  0  0
   14.4133   41.1841    8.4197 C   0  0  0  0  0  0  0  0  0  0  0  0
   13.7944   40.0869    9.2256 C   0  0  2  0  0  0  0  0  0  0  0  0
   13.6342   40.5010   10.6907 C   0  0  0  0  0  0  0  0  0  0  0  0
   12.9821   39.3770   11.4928 C   0  0  0  0  0  0  0  0  0  0  0  0
   13.8204   38.1072   11.3868 C   0  0  0  0  0  0  0  0  0  0  0  0
   14.6072   38.7961    9.1118 C   0  0  0  0  0  0  0  0  0  0  0  0
   13.6351   36.5013    9.4475 C   0  0  0  0  0  0  0  0  0  0  0  0
   13.0921   35.4296   10.3384 C   0  0  0  0  0  0  0  0  0  0  0  0
   14.1609   34.4457   10.6826 C   0  0  0  0  0  0  0  0  0  0  0  0
   14.5646   33.3629    9.9088 C   0  0  0  0  0  0  0  0  0  0  0  0
   15.8286   33.3953   11.6471 C   0  0  0  0  0  0  0  0  0  0  0  0
   16.8029   33.1112   12.6021 C   0  0  0  0  0  0  0  0  0  0  0  0
   16.8870   33.9590   13.7219 C   0  0  0  0  0  0  0  0  0  0  0  0
   16.0085   35.0560   13.8594 C   0  0  0  0  0  0  0  0  0  0  0  0
   15.0349   35.3185   12.8792 C   0  0  0  0  0  0  0  0  0  0  0  0
   14.9791   34.4588   11.7838 C   0  0  0  0  0  0  0  0  0  0  0  0
   15.0727   44.9154    4.7737 N   0  0  0  0  0  0  0  0  0  0  0  0
   13.4494   43.2803    5.5679 N   0  0  0  0  0  0  0  0  0  0  0  0
   15.4835   43.1965    6.9022 N   0  0  0  0  0  0  0  0  0  0  0  0
   13.7092   41.7339    7.3956 N   0  0  0  0  0  0  0  0  0  0  0  0
   14.0260   37.7757    9.9792 N   0  0  0  0  0  0  0  0  0  0  0  0
   15.5932   32.7133   10.5113 N   0  0  0  0  0  0  0  0  0  0  0  0
   13.7643   36.2630    8.2165 O   0  0  0  0  0  0  0  0  0  0  0  0
  1  2  1  0
  3 26  2  0
  4  5  2  0
  4 27  1  0
  6  2  2  0
  7 29  2  0
  8 28  2  0
  9 10  2  0
 11 10  1  6
 11 12  1  0
 12 13  1  0
 13 14  1  0
 14 30  1  0
 15 30  1  0
 15 11  1  0
 17 16  1  0
 17 18  1  0
 19 31  1  0
 21 22  2  0
 23 24  2  0
 25 18  1  0
 25 20  2  0
 27  7  1  0
 30 16  1  0
 31 20  1  0
  2  3  1  0
  4 26  1  0
  5  6  1  0
  7 28  1  0
  8  9  1  0
 10 29  1  0
 16 32  2  0
 18 19  2  0
 20 21  1  0
 22 23  1  0
 24 25  1  0
M  END
>  <rmsd>  (1) 
0.241553202

$$$$
