Molport-047-872-220
     RDKit          3D

 19 19  0  0  0  0  0  0  0  0999 V2000
   13.3009   39.5712   11.9471 C   0  0  0  0  0  0  0  0  0  0  0  0
   13.5942   38.8717   10.6250 C   0  0  0  0  0  0  0  0  0  0  0  0
   14.8692   40.6210    9.3968 C   0  0  0  0  0  0  0  0  0  0  0  0
   14.8909   41.6129    8.3097 C   0  0  0  0  0  0  0  0  0  0  0  0
   15.9108   42.4858    7.9759 C   0  0  0  0  0  0  0  0  0  0  0  0
   14.2937   42.7923    6.6336 C   0  0  0  0  0  0  0  0  0  0  0  0
   13.9038   44.3472    4.6711 C   0  0  0  0  0  0  0  0  0  0  0  0
   13.2669   45.7854    2.6849 C   0  0  0  0  0  0  0  0  0  0  0  0
   12.0129   45.8806    1.8025 C   0  0  0  0  0  0  0  0  0  0  0  0
   14.4707   45.4105    1.7991 C   0  0  0  0  0  0  0  0  0  0  0  0
   13.4984   47.1468    3.3681 C   0  0  0  0  0  0  0  0  0  0  0  0
   13.7324   39.8234    9.5718 O   0  0  0  0  0  0  0  0  0  0  0  0
   15.8666   40.4883   10.1568 O   0  0  0  0  0  0  0  0  0  0  0  0
   15.0422   44.8750    4.7922 O   0  0  0  0  0  0  0  0  0  0  0  0
   13.0209   44.7636    3.6631 O   0  0  0  0  0  0  0  0  0  0  0  0
   17.4698   42.6479    8.7650 Cl  0  0  0  0  0  0  0  0  0  0  0  0
   15.5391   43.2331    6.9180 N   0  0  0  0  0  0  0  0  0  0  0  0
   13.4871   43.3067    5.5645 N   0  0  0  0  0  0  0  0  0  0  0  0
   13.8726   41.8129    7.4569 N   0  0  0  0  0  0  0  0  0  0  0  0
  1  2  1  0
  2 12  1  0
  3 12  1  0
  3  4  1  0
  5 16  1  0
  5 17  1  0
  6 18  1  0
  6 19  1  0
  7 15  1  0
  8 15  1  0
  8  9  1  0
  8 10  1  0
  8 11  1  0
 18  7  1  0
 19  4  1  0
  3 13  2  0
  4  5  2  0
  6 17  2  0
  7 14  2  0
M  END
>  <rmsd>  (1) 
0.169267729

$$$$
