MolPort-020-278-612 MCULE-7584097762 PubChem-110255484
     RDKit          3D

 23 25  0  0  0  0  0  0  0  0999 V2000
   17.5782   43.0450    8.3475 C   0  0  0  0  0  0  0  0  0  0  0  0
   16.2051   42.5892    8.0094 C   0  0  0  0  0  0  0  0  0  0  0  0
   15.5178   43.1751    6.9487 C   0  0  0  0  0  0  0  0  0  0  0  0
   14.2263   42.7255    6.6531 C   0  0  0  0  0  0  0  0  0  0  0  0
   14.3627   41.1717    8.4382 C   0  0  0  0  0  0  0  0  0  0  0  0
   13.7238   40.0841    9.2360 C   0  0  2  0  0  0  0  0  0  0  0  0
   13.5865   40.4975   10.6951 C   0  0  0  0  0  0  0  0  0  0  0  0
   12.9674   39.3585   11.4889 C   0  0  0  0  0  0  0  0  0  0  0  0
   13.8115   38.0917   11.3192 C   0  0  0  0  0  0  0  0  0  0  0  0
   14.5377   38.7888    9.1303 C   0  0  0  0  0  0  0  0  0  0  0  0
   12.6398   37.2764    9.3439 C   0  0  0  0  0  0  0  0  0  0  0  0
   12.0536   36.1087   10.1247 C   0  0  0  0  0  0  0  0  0  0  0  0
   12.7892   36.8293    7.8964 C   0  0  0  0  0  0  0  0  0  0  0  0
   13.8471   44.3229    4.6716 C   0  0  0  0  0  0  0  0  0  0  0  0
   15.4314   45.9063    3.9029 C   0  0  0  0  0  0  0  0  0  0  0  0
   14.5495   46.3234    2.9081 C   0  0  0  0  0  0  0  0  0  0  0  0
   13.3040   45.7036    2.8276 C   0  0  0  0  0  0  0  0  0  0  0  0
   13.6804   41.7338    7.4059 N   0  0  0  0  0  0  0  0  0  0  0  0
   15.6197   41.6015    8.7338 N   0  0  0  0  0  0  0  0  0  0  0  0
   13.9400   37.6873    9.9069 N   0  0  0  0  0  0  0  0  0  0  0  0
   13.4576   43.2804    5.5762 N   0  0  0  0  0  0  0  0  0  0  0  0
   15.0675   44.9193    4.7624 N   0  0  0  0  0  0  0  0  0  0  0  0
   12.9766   44.7199    3.7057 N   0  0  0  0  0  0  0  0  0  0  0  0
  1  2  1  0
  2 19  2  0
  3  4  2  0
  4 21  1  0
  5 18  2  0
  6  5  1  6
  6  7  1  0
  7  8  1  0
  8  9  1  0
  9 20  1  0
 10 20  1  0
 10  6  1  0
 11 20  1  0
 11 12  1  0
 11 13  1  0
 14 23  2  0
 15 22  2  0
 16 17  2  0
 21 14  1  0
  2  3  1  0
  4 18  1  0
  5 19  1  0
 14 22  1  0
 15 16  1  0
 17 23  1  0
M  END
>  <rmsd>  (1) 
0.244024605

$$$$
