Molport-047-873-489 PubChem-165921913
     RDKit          3D

 21 22  0  0  0  0  0  0  0  0999 V2000
   12.5571   40.3248    8.8538 C   0  0  0  0  0  0  0  0  0  0  0  0
   12.6482   41.1950    7.7510 C   0  0  0  0  0  0  0  0  0  0  0  0
   13.8197   41.9357    7.6244 C   0  0  0  0  0  0  0  0  0  0  0  0
   14.8482   41.8395    8.5191 C   0  0  0  0  0  0  0  0  0  0  0  0
   14.7883   40.9896    9.6226 C   0  0  0  0  0  0  0  0  0  0  0  0
   13.6185   40.2225    9.7832 C   0  0  0  0  0  0  0  0  0  0  0  0
   14.2400   42.8675    6.7023 C   0  0  0  0  0  0  0  0  0  0  0  0
   13.9349   44.2915    4.6243 C   0  0  0  0  0  0  0  0  0  0  0  0
   13.0435   44.6823    3.4891 C   0  0  0  0  0  0  0  0  0  0  0  0
   17.0913   42.9054    8.8487 C   0  0  0  0  0  0  0  0  0  0  0  0
   16.9361   44.0389    9.8023 C   0  0  0  0  0  0  0  0  0  0  0  0
   13.4640   39.0374   11.2667 Br  0  0  0  0  0  0  0  0  0  0  0  0
   15.8388   42.6707    8.1460 N   0  0  0  0  0  0  0  0  0  0  0  0
   15.4758   43.3110    7.0393 N   0  0  0  0  0  0  0  0  0  0  0  0
   13.4881   43.3113    5.5683 N   0  0  0  0  0  0  0  0  0  0  0  0
   15.0471   44.8667    4.7724 O   0  0  0  0  0  0  0  0  0  0  0  0
   16.6157   43.8156   10.9983 O   0  0  0  0  0  0  0  0  0  0  0  0
   17.1037   45.3447    9.3617 O   0  0  0  0  0  0  0  0  0  0  0  0
   12.3002   43.5919    3.0751 F   0  0  0  0  0  0  0  0  0  0  0  0
   13.7991   45.1401    2.4244 F   0  0  0  0  0  0  0  0  0  0  0  0
   12.1875   45.6849    3.9038 F   0  0  0  0  0  0  0  0  0  0  0  0
  2  3  2  0
  4  5  2  0
  4 13  1  0
  6 12  1  0
  6  1  2  0
  7 15  1  0
  7  3  1  0
  9  8  1  0
  9 19  1  0
  9 20  1  0
  9 21  1  0
 10 13  1  0
 10 11  1  0
 11 18  1  0
 13 14  1  0
 15  8  1  0
  1  2  1  0
  3  4  1  0
  5  6  1  0
  7 14  2  0
  8 16  2  0
 11 17  2  0
M  END
>  <rmsd>  (1) 
0.248921633

$$$$
