MolPort-005-025-664 14883125 CSSS00160429083 PubChem-26279097 ZINC000014883125 ZINC14883125
     RDKit          3D

 35 38  0  0  0  0  0  0  0  0999 V2000
   14.9736   47.2325    9.1066 C   0  0  0  0  0  0  0  0  0  0  0  0
   14.4550   45.1467    7.9068 C   0  0  0  0  0  0  0  0  0  0  0  0
   14.7148   43.7102    7.7152 C   0  0  0  0  0  0  0  0  0  0  0  0
   14.2249   42.8748    6.6926 C   0  0  0  0  0  0  0  0  0  0  0  0
   13.9011   44.3645    4.6738 C   0  0  0  0  0  0  0  0  0  0  0  0
   13.0181   44.8437    3.6075 C   0  0  0  0  0  0  0  0  0  0  0  0
   11.7893   44.3589    3.4444 C   0  0  0  0  0  0  0  0  0  0  0  0
   10.8889   44.8192    2.3785 C   0  0  0  0  0  0  0  0  0  0  0  0
   11.2835   45.7925    1.4461 C   0  0  0  0  0  0  0  0  0  0  0  0
   10.4019   46.2038    0.4417 C   0  0  0  0  0  0  0  0  0  0  0  0
    9.1230   45.6459    0.3634 C   0  0  0  0  0  0  0  0  0  0  0  0
    8.7254   44.6773    1.2891 C   0  0  0  0  0  0  0  0  0  0  0  0
    9.6068   44.2657    2.2940 C   0  0  0  0  0  0  0  0  0  0  0  0
   14.5557   41.5305    6.8919 C   0  0  0  0  0  0  0  0  0  0  0  0
   14.2145   40.4495    6.0797 C   0  0  0  0  0  0  0  0  0  0  0  0
   14.6543   39.1706    6.4543 C   0  0  0  0  0  0  0  0  0  0  0  0
   15.4301   39.0087    7.6193 C   0  0  0  0  0  0  0  0  0  0  0  0
   15.8450   37.6437    8.0508 C   0  0  0  0  0  0  0  0  0  0  0  0
   14.9237   35.5859    8.6357 C   0  0  0  0  0  0  0  0  0  0  0  0
   15.0557   37.2762   10.2343 C   0  0  0  0  0  0  0  0  0  0  0  0
   14.1567   38.3437   10.7796 C   0  0  0  0  0  0  0  0  0  0  0  0
   13.1313   38.9915   10.1082 C   0  0  0  0  0  0  0  0  0  0  0  0
   12.6678   39.8613   11.0759 C   0  0  0  0  0  0  0  0  0  0  0  0
   11.5553   40.8298   10.8925 C   0  0  0  0  0  0  0  0  0  0  0  0
   15.3148   41.3191    8.0263 C   0  0  0  0  0  0  0  0  0  0  0  0
   15.1876   45.8505    8.8643 O   0  0  0  0  0  0  0  0  0  0  0  0
   13.5583   45.7294    7.2385 O   0  0  0  0  0  0  0  0  0  0  0  0
   15.0511   44.8665    4.7878 O   0  0  0  0  0  0  0  0  0  0  0  0
   14.2492   38.8061   12.0029 O   0  0  0  0  0  0  0  0  0  0  0  0
   13.4773   43.3146    5.5525 N   0  0  0  0  0  0  0  0  0  0  0  0
   14.7824   37.0175    8.8260 N   0  0  0  0  0  0  0  0  0  0  0  0
   13.3625   39.7295   12.2196 N   0  0  0  0  0  0  0  0  0  0  0  0
   15.7465   40.0880    8.3931 N   0  0  0  0  0  0  0  0  0  0  0  0
   10.7879   47.1420   -0.4555 F   0  0  0  0  0  0  0  0  0  0  0  0
   15.5786   42.7651    8.8297 S   0  0  0  0  0  0  0  0  0  0  0  0
  1 26  1  0
  2 26  1  0
  2  3  1  0
  3 35  1  0
  4 30  1  0
  4 14  1  0
  5  6  1  0
  7  8  1  0
  9 10  2  0
 10 34  1  0
 11 12  2  0
 13  8  2  0
 15 16  2  0
 17 33  2  0
 18 17  1  0
 18 31  1  0
 19 31  1  0
 20 31  1  0
 20 21  1  0
 21 29  1  0
 22 23  1  0
 24 23  1  0
 25 35  1  0
 25 14  2  0
 30  5  1  0
 32 29  1  0
  2 27  2  0
  3  4  2  0
  5 28  2  0
  6  7  2  0
  8  9  1  0
 10 11  1  0
 12 13  1  0
 14 15  1  0
 16 17  1  0
 21 22  2  0
 23 32  2  0
 25 33  1  0
M  END
>  <rmsd>  (1) 
0.23138696

$$$$
