MolPort-002-455-707 ChemDiv-D039-0040 MCULE-7305721499 PubChem-959516 ZINC000000568499 ZINC00568499
     RDKit          3D

 23 24  0  0  0  0  0  0  0  0999 V2000
   12.7694   39.2243   11.8040 C   0  0  0  0  0  0  0  0  0  0  0  0
   13.9206   38.9179   10.8690 C   0  0  0  0  0  0  0  0  0  0  0  0
   15.0065   40.6857    9.5413 C   0  0  0  0  0  0  0  0  0  0  0  0
   14.9516   41.6399    8.4150 C   0  0  0  0  0  0  0  0  0  0  0  0
   15.9356   42.5383    8.0191 C   0  0  0  0  0  0  0  0  0  0  0  0
   17.2670   42.7223    8.6620 C   0  0  0  0  0  0  0  0  0  0  0  0
   14.3027   42.8136    6.6588 C   0  0  0  0  0  0  0  0  0  0  0  0
   13.9001   44.3349    4.6639 C   0  0  0  0  0  0  0  0  0  0  0  0
   13.2062   45.7299    2.6268 C   0  0  0  0  0  0  0  0  0  0  0  0
   14.4007   46.4634    2.5541 C   0  0  0  0  0  0  0  0  0  0  0  0
   14.5767   47.4315    1.5614 C   0  0  0  0  0  0  0  0  0  0  0  0
   13.5596   47.6732    0.6344 C   0  0  0  0  0  0  0  0  0  0  0  0
   12.3675   46.9470    0.7004 C   0  0  0  0  0  0  0  0  0  0  0  0
   12.1930   45.9789    1.6940 C   0  0  0  0  0  0  0  0  0  0  0  0
   13.9033   41.8252    7.5319 C   0  0  0  0  0  0  0  0  0  0  0  0
   12.5939   41.1115    7.5102 C   0  0  0  0  0  0  0  0  0  0  0  0
   13.9193   39.8469    9.7954 O   0  0  0  0  0  0  0  0  0  0  0  0
   16.0330   40.6292   10.2723 O   0  0  0  0  0  0  0  0  0  0  0  0
   15.0325   44.8794    4.7670 O   0  0  0  0  0  0  0  0  0  0  0  0
   15.5431   43.2566    6.9473 N   0  0  0  0  0  0  0  0  0  0  0  0
   13.5021   43.3098    5.5796 N   0  0  0  0  0  0  0  0  0  0  0  0
   12.9885   44.7288    3.6305 N   0  0  0  0  0  0  0  0  0  0  0  0
   13.7784   48.8850   -0.6091 Cl  0  0  0  0  0  0  0  0  0  0  0  0
  1  2  1  0
  2 17  1  0
  3 17  1  0
  3  4  1  0
  5 20  1  0
  6  5  1  0
  7 21  1  0
  8 22  1  0
 10 11  2  0
 12 23  1  0
 12 13  2  0
 14  9  2  0
 15  4  1  0
 16 15  1  0
 20  7  1  0
 21  8  1  0
 22  9  1  0
  3 18  2  0
  4  5  2  0
  7 15  2  0
  8 19  2  0
  9 10  1  0
 11 12  1  0
 13 14  1  0
M  END
>  <rmsd>  (1) 
0.205554381

$$$$
