MolPort-006-609-966 ChemDiv-V013-5734 MCULE-3113320894 PubChem-46070050 ZINC000034735461 ZINC34735461
     RDKit          3D

 33 36  0  0  0  0  0  0  0  0999 V2000
   13.2347   32.5040    6.8160 C   0  0  0  0  0  0  0  0  0  0  0  0
   12.4175   34.1148    8.5091 C   0  0  0  0  0  0  0  0  0  0  0  0
   12.0626   35.0624    7.5352 C   0  0  0  0  0  0  0  0  0  0  0  0
   11.5014   36.2855    7.9143 C   0  0  0  0  0  0  0  0  0  0  0  0
   11.2873   36.5695    9.2667 C   0  0  0  0  0  0  0  0  0  0  0  0
   10.7142   37.8893    9.6676 C   0  0  0  0  0  0  0  0  0  0  0  0
   12.1895   38.9231   11.4191 C   0  0  0  0  0  0  0  0  0  0  0  0
   13.7038   38.8568   11.4940 C   0  0  0  0  0  0  0  0  0  0  0  0
   14.3092   40.0394   10.7367 C   0  0  0  0  0  0  0  0  0  0  0  0
   12.5206   39.5313    9.0243 C   0  0  0  0  0  0  0  0  0  0  0  0
   14.3623   41.1975    8.5195 C   0  0  0  0  0  0  0  0  0  0  0  0
   15.6935   41.5914    8.7408 C   0  0  0  0  0  0  0  0  0  0  0  0
   16.3075   42.5346    7.9132 C   0  0  0  0  0  0  0  0  0  0  0  0
   15.5942   43.1035    6.8575 C   0  0  0  0  0  0  0  0  0  0  0  0
   14.2609   42.7370    6.6259 C   0  0  0  0  0  0  0  0  0  0  0  0
   13.9009   44.3542    4.6698 C   0  0  0  0  0  0  0  0  0  0  0  0
   12.9740   44.7917    3.5876 C   0  0  0  0  0  0  0  0  0  0  0  0
   13.3526   44.1677    2.2870 C   0  0  0  0  0  0  0  0  0  0  0  0
   12.9394   42.8642    1.9832 C   0  0  0  0  0  0  0  0  0  0  0  0
   13.3111   42.2792    0.7684 C   0  0  0  0  0  0  0  0  0  0  0  0
   14.0976   42.9932   -0.1424 C   0  0  0  0  0  0  0  0  0  0  0  0
   14.5103   44.2954    0.1605 C   0  0  0  0  0  0  0  0  0  0  0  0
   14.1400   44.8814    1.3750 C   0  0  0  0  0  0  0  0  0  0  0  0
   13.6571   41.7888    7.4579 C   0  0  0  0  0  0  0  0  0  0  0  0
   11.6439   35.6310   10.2402 C   0  0  0  0  0  0  0  0  0  0  0  0
   12.2050   34.4072    9.8611 C   0  0  0  0  0  0  0  0  0  0  0  0
   12.9794   32.8820    8.1635 O   0  0  0  0  0  0  0  0  0  0  0  0
   12.1334   39.5030    7.8230 O   0  0  0  0  0  0  0  0  0  0  0  0
   15.0358   44.8923    4.7728 O   0  0  0  0  0  0  0  0  0  0  0  0
   11.7796   38.8193   10.0267 N   0  0  0  0  0  0  0  0  0  0  0  0
   13.7300   40.2358    9.3962 N   0  0  0  0  0  0  0  0  0  0  0  0
   13.4890   43.3113    5.5630 N   0  0  0  0  0  0  0  0  0  0  0  0
   14.4562   42.4248   -1.3188 F   0  0  0  0  0  0  0  0  0  0  0  0
  1 27  1  0
  2 27  1  0
  3  4  2  0
  5 25  2  0
  6  5  1  0
  6 30  1  0
  7 30  1  0
  7  8  1  0
  8  9  1  0
  9 31  1  0
 10 30  1  0
 12 13  2  0
 14 15  2  0
 15 32  1  0
 17 16  1  0
 17 18  1  0
 19 20  2  0
 21 33  1  0
 21 22  2  0
 23 18  2  0
 24 11  2  0
 26  2  2  0
 31 10  1  0
 31 11  1  0
 32 16  1  0
  2  3  1  0
  4  5  1  0
 10 28  2  0
 11 12  1  0
 13 14  1  0
 15 24  1  0
 16 29  2  0
 18 19  1  0
 20 21  1  0
 22 23  1  0
 25 26  1  0
M  END
>  <rmsd>  (1) 
0.234198317

$$$$
