MolPort-000-056-042 1324325 MCULE-1065918161 PubChem-1428015 ZINC000001324325 ZINC01324325
     RDKit          3D

 26 27  0  0  0  0  0  0  0  0999 V2000
   14.5315   38.5499    7.0935 C   0  0  0  0  0  0  0  0  0  0  0  0
   15.0379   40.8445    7.8803 C   0  0  0  0  0  0  0  0  0  0  0  0
   14.3217   41.4172    6.8184 C   0  0  0  0  0  0  0  0  0  0  0  0
   14.2477   42.8028    6.6585 C   0  0  0  0  0  0  0  0  0  0  0  0
   13.8586   44.4366    4.7462 C   0  0  0  0  0  0  0  0  0  0  0  0
   12.8475   45.0289    3.8213 C   0  0  0  0  0  0  0  0  0  0  0  0
   13.2684   44.8345    2.3773 C   0  0  0  0  0  0  0  0  0  0  0  0
   12.6598   46.5058    4.1108 C   0  0  0  0  0  0  0  0  0  0  0  0
   14.8722   43.6451    7.6001 C   0  0  0  0  0  0  0  0  0  0  0  0
   15.3434   45.9383    8.4126 C   0  0  0  0  0  0  0  0  0  0  0  0
   15.5893   43.0724    8.6616 C   0  0  0  0  0  0  0  0  0  0  0  0
   15.6652   41.6869    8.8202 C   0  0  0  0  0  0  0  0  0  0  0  0
   16.1251   39.9921   10.6841 C   0  0  0  0  0  0  0  0  0  0  0  0
   14.7355   39.5676   10.9651 C   0  0  0  0  0  0  0  0  0  0  0  0
   14.4801   38.2665   11.4236 C   0  0  0  0  0  0  0  0  0  0  0  0
   13.1732   37.8580   11.7048 C   0  0  0  0  0  0  0  0  0  0  0  0
   12.1109   38.7498   11.5367 C   0  0  0  0  0  0  0  0  0  0  0  0
   12.3557   40.0508   11.0904 C   0  0  0  0  0  0  0  0  0  0  0  0
   13.6626   40.4584   10.8095 C   0  0  0  0  0  0  0  0  0  0  0  0
   15.1528   39.4544    7.9964 O   0  0  0  0  0  0  0  0  0  0  0  0
   15.0384   44.8839    4.7688 O   0  0  0  0  0  0  0  0  0  0  0  0
   14.7461   45.0349    7.4923 O   0  0  0  0  0  0  0  0  0  0  0  0
   17.0816   39.3312   11.1694 O   0  0  0  0  0  0  0  0  0  0  0  0
   13.4874   43.3181    5.5580 N   0  0  0  0  0  0  0  0  0  0  0  0
   16.4240   41.1707    9.9226 N   0  0  0  0  0  0  0  0  0  0  0  0
   12.9371   36.5980   12.1417 F   0  0  0  0  0  0  0  0  0  0  0  0
  1 20  1  0
  2 20  1  0
  3  4  2  0
  4 24  1  0
  6  5  1  0
  6  7  1  0
  6  8  1  0
  9 22  1  0
  9 11  2  0
 10 22  1  0
 12 25  1  0
 12  2  2  0
 13 14  1  0
 15 16  2  0
 16 26  1  0
 17 18  2  0
 19 14  2  0
 24  5  1  0
 25 13  1  0
  2  3  1  0
  4  9  1  0
  5 21  2  0
 11 12  1  0
 13 23  2  0
 14 15  1  0
 16 17  1  0
 18 19  1  0
M  END
>  <rmsd>  (1) 
0.247444659

$$$$
