MolPort-046-958-378 MCULE-1290761083 PubChem-110093598
     RDKit          3D

 32 36  0  0  0  0  0  0  0  0999 V2000
   17.6446   42.9025    8.2360 C   0  0  0  0  0  0  0  0  0  0  0  0
   16.2438   42.4946    7.9557 C   0  0  0  0  0  0  0  0  0  0  0  0
   15.5406   43.0908    6.9078 C   0  0  0  0  0  0  0  0  0  0  0  0
   14.2206   42.6998    6.6498 C   0  0  0  0  0  0  0  0  0  0  0  0
   13.6335   41.7152    7.4482 C   0  0  0  0  0  0  0  0  0  0  0  0
   14.3660   41.1412    8.4904 C   0  0  0  0  0  0  0  0  0  0  0  0
   13.7368   40.0862    9.3370 C   0  0  2  0  0  0  0  0  0  0  0  0
   13.7104   40.5110   10.8089 C   0  0  0  0  0  0  0  0  0  0  0  0
   13.5869   39.3207   11.7637 C   0  0  0  0  0  0  0  0  0  0  0  0
   12.9959   38.1082   11.0489 C   0  0  0  0  0  0  0  0  0  0  0  0
   14.4569   38.7443    9.1610 C   0  0  0  0  0  0  0  0  0  0  0  0
   13.0450   36.8543    9.0656 C   0  0  0  0  0  0  0  0  0  0  0  0
   13.7160   35.5587    8.7559 C   0  0  0  0  0  0  0  0  0  0  0  0
   13.1264   34.3556    9.1882 C   0  0  0  0  0  0  0  0  0  0  0  0
   13.7824   33.1686    8.8676 C   0  0  0  0  0  0  0  0  0  0  0  0
   14.9543   33.1541    8.1562 C   0  0  0  0  0  0  0  0  0  0  0  0
   15.5625   34.3254    7.7092 C   0  0  0  0  0  0  0  0  0  0  0  0
   14.9245   35.5408    8.0179 C   0  0  0  0  0  0  0  0  0  0  0  0
   14.4077   31.1437    8.6187 C   0  0  0  0  0  0  0  0  0  0  0  0
   12.2601   31.4543    9.9040 C   0  0  0  0  0  0  0  0  0  0  0  0
   16.5442   31.4015    7.3033 C   0  0  0  0  0  0  0  0  0  0  0  0
   13.8793   44.3086    4.6895 C   0  0  0  0  0  0  0  0  0  0  0  0
   15.2000   45.8793    3.7839 C   0  0  0  0  0  0  0  0  0  0  0  0
   14.1012   46.0194    2.9347 C   0  0  0  0  0  0  0  0  0  0  0  0
   15.6487   41.5397    8.7185 N   0  0  0  0  0  0  0  0  0  0  0  0
   13.8713   37.6499    9.9605 N   0  0  0  0  0  0  0  0  0  0  0  0
   15.3572   31.8804    7.9937 N   0  0  0  0  0  0  0  0  0  0  0  0
   13.4290   31.9043    9.1645 N   0  0  0  0  0  0  0  0  0  0  0  0
   13.4538   43.2726    5.5829 N   0  0  0  0  0  0  0  0  0  0  0  0
   15.0724   44.9330    4.7533 N   0  0  0  0  0  0  0  0  0  0  0  0
   14.4321   29.8849    8.6849 O   0  0  0  0  0  0  0  0  0  0  0  0
   12.9420   44.9049    3.4402 S   0  0  0  0  0  0  0  0  0  0  0  0
  1  2  1  0
  2 25  2  0
  3  4  2  0
  4 29  1  0
  5  6  2  0
  7  6  1  6
  7  8  1  0
  8  9  1  0
  9 10  1  0
 10 26  1  0
 11 26  1  0
 11  7  1  0
 12 26  1  0
 12 13  1  0
 14 15  2  0
 16 17  2  0
 16 27  1  0
 18 13  2  0
 19 28  1  0
 20 28  1  0
 21 27  1  0
 22 32  1  0
 23 30  1  0
 24 32  1  0
 27 19  1  0
 28 15  1  0
 29 22  1  0
  2  3  1  0
  4  5  1  0
  6 25  1  0
 13 14  1  0
 15 16  1  0
 17 18  1  0
 19 31  2  0
 22 30  2  0
 23 24  2  0
M  END
>  <rmsd>  (1) 
0.246312007

$$$$
