MolPort-001-901-439 830104 CSSS00159729154 MCULE-6437410963 PubChem-1104026 ZINC000000830104 ZINC00830104
     RDKit          3D

 27 29  0  0  0  0  0  0  0  0999 V2000
   14.2313   37.7961    7.9982 C   0  0  0  0  0  0  0  0  0  0  0  0
   14.1166   39.0188   10.1511 C   0  0  0  0  0  0  0  0  0  0  0  0
   14.7392   39.8683   11.0922 C   0  0  0  0  0  0  0  0  0  0  0  0
   14.0611   40.2014   12.2735 C   0  0  0  0  0  0  0  0  0  0  0  0
   12.7685   39.7297   12.5100 C   0  0  0  0  0  0  0  0  0  0  0  0
   12.1423   38.9116   11.5697 C   0  0  0  0  0  0  0  0  0  0  0  0
   12.8130   38.5556   10.3984 C   0  0  0  0  0  0  0  0  0  0  0  0
   16.1064   40.3937   10.8876 C   0  0  0  0  0  0  0  0  0  0  0  0
   15.7779   41.4490    8.5810 C   0  0  0  0  0  0  0  0  0  0  0  0
   14.5024   41.9633    8.8489 C   0  0  0  0  0  0  0  0  0  0  0  0
   13.7611   42.5718    7.8347 C   0  0  0  0  0  0  0  0  0  0  0  0
   14.2881   42.6955    6.5454 C   0  0  0  0  0  0  0  0  0  0  0  0
   13.9312   44.3143    4.6169 C   0  0  0  0  0  0  0  0  0  0  0  0
   13.0843   44.7008    3.4752 C   0  0  0  0  0  0  0  0  0  0  0  0
   11.8437   44.0791    3.2709 C   0  0  0  0  0  0  0  0  0  0  0  0
   11.0400   44.4437    2.1867 C   0  0  0  0  0  0  0  0  0  0  0  0
   11.4713   45.4326    1.2986 C   0  0  0  0  0  0  0  0  0  0  0  0
   12.7062   46.0569    1.4941 C   0  0  0  0  0  0  0  0  0  0  0  0
   13.5099   45.6922    2.5784 C   0  0  0  0  0  0  0  0  0  0  0  0
   15.5670   42.1627    6.2676 C   0  0  0  0  0  0  0  0  0  0  0  0
   16.1407   42.1545    4.8919 C   0  0  0  0  0  0  0  0  0  0  0  0
   16.3014   41.5537    7.2900 C   0  0  0  0  0  0  0  0  0  0  0  0
   14.8050   38.6304    8.9953 O   0  0  0  0  0  0  0  0  0  0  0  0
   16.8991   40.4333   11.8657 O   0  0  0  0  0  0  0  0  0  0  0  0
   15.0382   44.8904    4.8031 O   0  0  0  0  0  0  0  0  0  0  0  0
   16.5735   40.8407    9.6065 N   0  0  0  0  0  0  0  0  0  0  0  0
   13.4773   43.3146    5.5384 N   0  0  0  0  0  0  0  0  0  0  0  0
  1 23  1  0
  2 23  1  0
  3  4  2  0
  3  8  1  0
  5  6  2  0
  7  2  2  0
  8 26  1  0
 10 11  2  0
 12 27  1  0
 12 20  2  0
 13 14  1  0
 15 16  2  0
 17 18  2  0
 19 14  2  0
 21 20  1  0
 22  9  2  0
 26  9  1  0
 27 13  1  0
  2  3  1  0
  4  5  1  0
  6  7  1  0
  8 24  2  0
  9 10  1  0
 11 12  1  0
 13 25  2  0
 14 15  1  0
 16 17  1  0
 18 19  1  0
 20 22  1  0
M  END
>  <rmsd>  (1) 
0.247105435

$$$$
