MolPort-018-616-241 96190568 CSSS02267491935 MCULE-5501081623 PubChem-12828310
     RDKit          3D

 17 17  0  0  0  0  0  0  0  0999 V2000
   13.2500   39.1844   11.1675 C   0  0  0  0  0  0  0  0  0  0  0  0
   14.6826   40.4507    9.6168 C   0  0  0  0  0  0  0  0  0  0  0  0
   14.8221   41.3916    8.4905 C   0  0  0  0  0  0  0  0  0  0  0  0
   13.8648   41.7655    7.5382 C   0  0  0  0  0  0  0  0  0  0  0  0
   12.5372   41.1351    7.3806 C   0  0  0  0  0  0  0  0  0  0  0  0
   10.1696   41.3349    6.7349 C   0  0  0  0  0  0  0  0  0  0  0  0
   14.3263   42.7843    6.6762 C   0  0  0  0  0  0  0  0  0  0  0  0
   13.8925   44.3290    4.6811 C   0  0  0  0  0  0  0  0  0  0  0  0
   12.9320   44.7389    3.6243 C   0  0  0  0  0  0  0  0  0  0  0  0
   15.6326   43.2090    6.9185 C   0  0  0  0  0  0  0  0  0  0  0  0
   13.4190   40.0739   10.0741 O   0  0  0  0  0  0  0  0  0  0  0  0
   15.7185   40.0238   10.1967 O   0  0  0  0  0  0  0  0  0  0  0  0
   12.3870   39.9060    7.6203 O   0  0  0  0  0  0  0  0  0  0  0  0
   11.4598   41.8962    6.9223 O   0  0  0  0  0  0  0  0  0  0  0  0
   15.0168   44.8923    4.7464 O   0  0  0  0  0  0  0  0  0  0  0  0
   13.5194   43.3022    5.6074 N   0  0  0  0  0  0  0  0  0  0  0  0
   16.1990   42.3139    8.2207 S   0  0  0  0  0  0  0  0  0  0  0  0
  1 11  1  0
  2 11  1  0
  2  3  1  0
  3 17  1  0
  4  5  1  0
  4  7  1  0
  5 14  1  0
  6 14  1  0
  7 16  1  0
  9  8  1  0
 10 17  1  0
 16  8  1  0
  2 12  2  0
  3  4  2  0
  5 13  2  0
  7 10  2  0
  8 15  2  0
M  END
>  <rmsd>  (1) 
0.203004271

$$$$
