MolPort-047-071-871 PubChem-132766136
     RDKit          3D

 30 33  0  0  0  0  0  0  0  0999 V2000
   16.8079   46.5187    4.0755 C   0  0  0  0  0  0  0  0  0  0  0  0
   15.4626   45.9053    3.9282 C   0  0  0  0  0  0  0  0  0  0  0  0
   14.6002   46.3471    2.9231 C   0  0  0  0  0  0  0  0  0  0  0  0
   13.3405   45.7589    2.8003 C   0  0  0  0  0  0  0  0  0  0  0  0
   12.9593   44.7422    3.6776 C   0  0  0  0  0  0  0  0  0  0  0  0
   13.8473   44.3242    4.6724 C   0  0  0  0  0  0  0  0  0  0  0  0
   14.2318   42.7367    6.6377 C   0  0  0  0  0  0  0  0  0  0  0  0
   13.6950   41.7157    7.4215 C   0  0  0  0  0  0  0  0  0  0  0  0
   14.4658   41.1935    8.4598 C   0  0  0  0  0  0  0  0  0  0  0  0
   16.2244   42.6776    7.9152 C   0  0  0  0  0  0  0  0  0  0  0  0
   17.5908   43.1979    8.1801 C   0  0  0  0  0  0  0  0  0  0  0  0
   13.9123   40.0971    9.3077 C   0  0  2  0  0  0  0  0  0  0  0  0
   13.8080   40.5387   10.7711 C   0  0  0  0  0  0  0  0  0  0  0  0
   13.4090   39.4025   11.7265 C   0  0  0  0  0  0  0  0  0  0  0  0
   13.2054   38.0642   11.0162 C   0  0  0  0  0  0  0  0  0  0  0  0
   14.7626   38.8321    9.1778 C   0  0  0  0  0  0  0  0  0  0  0  0
   15.0797   36.5737   10.2897 C   0  0  0  0  0  0  0  0  0  0  0  0
   15.9659   36.0193    9.2486 C   0  0  0  0  0  0  0  0  0  0  0  0
   16.0220   36.4757    8.0019 C   0  0  0  0  0  0  0  0  0  0  0  0
   16.9237   35.8878    7.0087 C   0  0  0  0  0  0  0  0  0  0  0  0
   17.0367   36.3083    5.7065 C   0  0  0  0  0  0  0  0  0  0  0  0
   18.3769   34.6690    6.0631 C   0  0  0  0  0  0  0  0  0  0  0  0
   13.4483   43.2802    5.5685 N   0  0  0  0  0  0  0  0  0  0  0  0
   15.7152   41.6829    8.6872 N   0  0  0  0  0  0  0  0  0  0  0  0
   15.4854   43.1968    6.9005 N   0  0  0  0  0  0  0  0  0  0  0  0
   14.3327   37.7950   10.1229 N   0  0  0  0  0  0  0  0  0  0  0  0
   17.9600   35.5310    5.1120 N   0  0  0  0  0  0  0  0  0  0  0  0
   17.7585   34.8611    7.2451 N   0  0  0  0  0  0  0  0  0  0  0  0
   15.0722   44.9134    4.7731 N   0  0  0  0  0  0  0  0  0  0  0  0
   14.9761   35.9290   11.3673 O   0  0  0  0  0  0  0  0  0  0  0  0
  1  2  1  0
  2 29  2  0
  3  4  2  0
  5  6  2  0
  6 23  1  0
  7 25  2  0
  8  9  2  0
 10 24  2  0
 11 10  1  0
 12  9  1  6
 12 13  1  0
 13 14  1  0
 14 15  1  0
 15 26  1  0
 16 26  1  0
 16 12  1  0
 17 18  1  0
 19 20  1  0
 21 27  1  0
 22 28  1  0
 23  7  1  0
 26 17  1  0
 28 20  1  0
  2  3  1  0
  4  5  1  0
  6 29  1  0
  7  8  1  0
  9 24  1  0
 10 25  1  0
 17 30  2  0
 18 19  2  0
 20 21  2  0
 22 27  2  0
M  END
>  <rmsd>  (1) 
0.248363882

$$$$
