MolPort-038-935-636 MCULE-3364464604 MCULE-5536987923 PubChem-160976054 PubChem-160976055 PubChem-45480521 PubChem-87361682 ZINC000116862995
     RDKit          3D

 34 39  0  0  0  0  0  0  0  0999 V2000
   18.8212   38.7858    9.5658 C   0  0  0  0  0  0  0  0  0  0  0  0
   17.8999   39.9069    9.1436 C   0  0  0  0  0  0  0  0  0  0  0  0
   16.5056   38.1955    9.9087 C   0  0  0  0  0  0  0  0  0  0  0  0
   17.9238   37.7231   10.1530 C   0  0  1  0  0  0  0  0  0  0  0  0
   15.5017   40.2965    9.3699 C   0  0  1  0  0  0  0  0  0  0  0  0
   15.6276   40.9408   10.7376 C   0  0  0  0  0  0  0  0  0  0  0  0
   16.6025   41.9225   10.9807 C   0  0  0  0  0  0  0  0  0  0  0  0
   16.7087   42.5244   12.2370 C   0  0  0  0  0  0  0  0  0  0  0  0
   15.8340   42.1573   13.2618 C   0  0  0  0  0  0  0  0  0  0  0  0
   14.8519   41.1909   13.0289 C   0  0  0  0  0  0  0  0  0  0  0  0
   14.7418   40.5830   11.7735 C   0  0  0  0  0  0  0  0  0  0  0  0
   15.2131   41.2737    8.2712 C   0  0  0  0  0  0  0  0  0  0  0  0
   16.1014   42.2023    7.7362 C   0  0  0  0  0  0  0  0  0  0  0  0
   14.2759   42.6633    6.5108 C   0  0  0  0  0  0  0  0  0  0  0  0
   13.8947   44.4018    4.7026 C   0  0  0  0  0  0  0  0  0  0  0  0
   12.9774   44.9398    3.6550 C   0  0  0  0  0  0  0  0  0  0  0  0
   11.5919   45.3418    4.1208 C   0  0  0  0  0  0  0  0  0  0  0  0
   12.6284   46.4080    3.7974 C   0  0  0  0  0  0  0  0  0  0  0  0
   13.0896   44.4373    2.2488 C   0  0  0  0  0  0  0  0  0  0  0  0
   12.3046   43.3444    1.8246 C   0  0  0  0  0  0  0  0  0  0  0  0
   12.4761   42.8935    0.5174 C   0  0  0  0  0  0  0  0  0  0  0  0
   13.3688   43.4643   -0.3310 C   0  0  0  0  0  0  0  0  0  0  0  0
   14.1714   44.5359    0.0503 C   0  0  0  0  0  0  0  0  0  0  0  0
   14.0266   45.0211    1.3627 C   0  0  0  0  0  0  0  0  0  0  0  0
   12.3381   41.7776   -1.4669 C   0  0  0  0  0  0  0  0  0  0  0  0
   16.5611   39.3383    9.0051 N   0  0  0  0  0  0  0  0  0  0  0  0
   15.5696   42.9732    6.7509 N   0  0  0  0  0  0  0  0  0  0  0  0
   13.4670   43.3090    5.5238 N   0  0  0  0  0  0  0  0  0  0  0  0
   18.1350   36.5198    9.4828 O   0  0  0  0  0  0  0  0  0  0  0  0
   15.0503   44.8919    4.8265 O   0  0  0  0  0  0  0  0  0  0  0  0
   13.3220   42.8193   -1.5513 O   0  0  0  0  0  0  0  0  0  0  0  0
   11.8239   41.8612   -0.1296 O   0  0  0  0  0  0  0  0  0  0  0  0
   13.4992   39.3641   11.5391 Cl  0  0  0  0  0  0  0  0  0  0  0  0
   13.7270   41.4223    7.4986 S   0  0  0  0  0  0  0  0  0  0  0  0
  1  2  1  0
  2 26  1  0
  3 26  1  0
  3  4  1  0
  4 29  1  6
  4  1  1  0
  5 26  1  6
  5  6  1  0
  5 12  1  0
  7  8  2  0
  9 10  2  0
 11 33  1  0
 11  6  2  0
 12 34  1  0
 13 27  1  0
 14 34  1  0
 14 28  1  0
 16 15  1  0
 16 17  1  0
 16 19  1  0
 17 18  1  0
 18 16  1  0
 20 21  2  0
 21 32  1  0
 22 23  2  0
 22 31  1  0
 24 19  2  0
 25 31  1  0
 25 32  1  0
 28 15  1  0
  6  7  1  0
  8  9  1  0
 10 11  1  0
 12 13  2  0
 14 27  2  0
 15 30  2  0
 19 20  1  0
 21 22  1  0
 23 24  1  0
M  END
>  <rmsd>  (1) 
0.248958722

$$$$
