MolPort-008-869-463 36182764 CSSS00160342980 ChemDiv-Y300-3262 MCULE-7091247739 PubChem-56919441 ZINC000036182764 ZINC36182764
     RDKit          3D

 20 21  0  0  0  0  0  0  0  0999 V2000
   13.5166   39.2693   11.2317 C   0  0  0  0  0  0  0  0  0  0  0  0
   13.5698   41.7625   11.5686 C   0  0  0  0  0  0  0  0  0  0  0  0
   12.4245   41.6925   12.3804 C   0  0  0  0  0  0  0  0  0  0  0  0
   11.8852   42.8476   12.9533 C   0  0  0  0  0  0  0  0  0  0  0  0
   12.4846   44.0876   12.7214 C   0  0  0  0  0  0  0  0  0  0  0  0
   13.6234   44.1724   11.9174 C   0  0  0  0  0  0  0  0  0  0  0  0
   14.1620   43.0168   11.3453 C   0  0  0  0  0  0  0  0  0  0  0  0
   15.1346   41.6258    8.5262 C   0  0  0  0  0  0  0  0  0  0  0  0
   14.2371   42.7804    6.6391 C   0  0  0  0  0  0  0  0  0  0  0  0
   13.9157   44.3433    4.6660 C   0  0  0  0  0  0  0  0  0  0  0  0
   13.0198   44.8000    3.5723 C   0  0  0  0  0  0  0  0  0  0  0  0
   14.1218   40.5694   10.9761 N   0  0  0  0  0  0  0  0  0  0  0  0
   15.9794   42.5519    8.0232 N   0  0  0  0  0  0  0  0  0  0  0  0
   15.4799   43.1959    6.9700 N   0  0  0  0  0  0  0  0  0  0  0  0
   13.4739   43.3087    5.5503 N   0  0  0  0  0  0  0  0  0  0  0  0
   15.5022   40.6316    9.9207 S   0  0  0  0  0  0  0  0  0  0  0  0
   13.6886   41.5646    7.6646 S   0  0  0  0  0  0  0  0  0  0  0  0
   15.8583   39.2483    9.4522 O   0  0  0  0  0  0  0  0  0  0  0  0
   16.6712   41.2094   10.6681 O   0  0  0  0  0  0  0  0  0  0  0  0
   15.0505   44.8730    4.7993 O   0  0  0  0  0  0  0  0  0  0  0  0
  1 12  1  0
  3  4  2  0
  5  6  2  0
  7  2  2  0
  8 17  1  0
  9 15  1  0
  9 17  1  0
 11 10  1  0
 12  2  1  0
 13 14  1  0
 15 10  1  0
 16 12  1  0
 16  8  1  0
  2  3  1  0
  4  5  1  0
  6  7  1  0
  8 13  2  0
  9 14  2  0
 10 20  2  0
 16 18  2  0
 16 19  2  0
M  END
>  <rmsd>  (1) 
0.198167011

$$$$
