MolPort-006-735-194 ChemDiv-D411-0149 MCULE-2748102922 PubChem-46740137
     RDKit          3D

 31 34  0  0  0  0  0  0  0  0999 V2000
   10.4829   41.1772   13.3851 C   0  0  0  0  0  0  0  0  0  0  0  0
   11.1279   41.3505   10.9961 C   0  0  0  0  0  0  0  0  0  0  0  0
   10.2017   42.3858   10.7905 C   0  0  0  0  0  0  0  0  0  0  0  0
   10.0576   42.9780    9.5389 C   0  0  0  0  0  0  0  0  0  0  0  0
   10.8377   42.5426    8.4721 C   0  0  0  0  0  0  0  0  0  0  0  0
   11.7646   41.5113    8.6428 C   0  0  0  0  0  0  0  0  0  0  0  0
   12.5860   41.1170    7.4381 C   0  0  1  0  0  0  0  0  0  0  0  0
   11.2532   39.1246    7.0750 C   0  0  0  0  0  0  0  0  0  0  0  0
   10.6620   39.3190    5.6675 C   0  0  0  0  0  0  0  0  0  0  0  0
   12.6624   39.5492    4.6914 C   0  0  0  0  0  0  0  0  0  0  0  0
   13.4297   39.3398    6.0097 C   0  0  0  0  0  0  0  0  0  0  0  0
   13.9563   41.7413    7.4979 C   0  0  0  0  0  0  0  0  0  0  0  0
   14.3528   42.7565    6.6369 C   0  0  0  0  0  0  0  0  0  0  0  0
   13.8784   44.3477    4.6902 C   0  0  0  0  0  0  0  0  0  0  0  0
   12.9132   44.7818    3.6756 C   0  0  0  0  0  0  0  0  0  0  0  0
   11.6459   44.2659    3.5043 C   0  0  0  0  0  0  0  0  0  0  0  0
   11.1162   44.9765    2.4414 C   0  0  0  0  0  0  0  0  0  0  0  0
   12.0916   45.8729    2.0390 C   0  0  0  0  0  0  0  0  0  0  0  0
   16.1207   42.0938    8.2482 C   0  0  0  0  0  0  0  0  0  0  0  0
   17.3526   41.9257    9.0615 C   0  0  0  0  0  0  0  0  0  0  0  0
   14.9526   41.3615    8.4111 C   0  0  0  0  0  0  0  0  0  0  0  0
   11.9262   40.9034    9.9104 C   0  0  0  0  0  0  0  0  0  0  0  0
   13.1759   39.1738   11.2323 C   0  0  0  0  0  0  0  0  0  0  0  0
   11.2554   40.7697   12.2633 O   0  0  0  0  0  0  0  0  0  0  0  0
   11.4430   40.2075    4.9133 O   0  0  0  0  0  0  0  0  0  0  0  0
   15.0105   44.8977    4.7430 O   0  0  0  0  0  0  0  0  0  0  0  0
   13.1489   45.7255    2.8002 O   0  0  0  0  0  0  0  0  0  0  0  0
   12.8750   39.8731   10.0334 O   0  0  0  0  0  0  0  0  0  0  0  0
   12.6241   39.6575    7.2063 N   0  0  0  0  0  0  0  0  0  0  0  0
   13.5215   43.3060    5.6066 N   0  0  0  0  0  0  0  0  0  0  0  0
   15.9388   43.1975    6.9929 S   0  0  0  0  0  0  0  0  0  0  0  0
  1 24  1  0
  2 24  1  0
  3  4  2  0
  5  6  2  0
  7  6  1  0
  7 29  1  1
  7 12  1  0
  8 29  1  0
  8  9  1  0
  9 25  1  0
 10 25  1  0
 10 11  1  0
 11 29  1  0
 13 30  1  0
 13 31  1  0
 14 15  1  0
 15 27  1  0
 16 17  1  0
 18 27  1  0
 19 31  1  0
 20 19  1  0
 21 12  1  0
 22 28  1  0
 22  2  2  0
 23 28  1  0
 30 14  1  0
  2  3  1  0
  4  5  1  0
  6 22  1  0
 12 13  2  0
 14 26  2  0
 15 16  2  0
 17 18  2  0
 19 21  2  0
M  END
>  <rmsd>  (1) 
0.241768181

$$$$
