MolPort-005-114-135 CSSS00159524509 MCULE-1382020917 PubChem-31105705
     RDKit          3D

 28 30  0  0  0  0  0  0  0  0999 V2000
   12.7018   39.2967   11.6672 C   0  0  0  0  0  0  0  0  0  0  0  0
   13.8500   38.9731   10.7342 C   0  0  0  0  0  0  0  0  0  0  0  0
   14.9933   40.7295    9.4426 C   0  0  0  0  0  0  0  0  0  0  0  0
   14.9669   41.6902    8.3351 C   0  0  0  0  0  0  0  0  0  0  0  0
   15.9883   42.5508    7.9907 C   0  0  0  0  0  0  0  0  0  0  0  0
   14.3350   42.8129    6.6690 C   0  0  0  0  0  0  0  0  0  0  0  0
   13.8908   44.3284    4.6743 C   0  0  0  0  0  0  0  0  0  0  0  0
   11.7063   44.0360    3.4727 C   0  0  0  0  0  0  0  0  0  0  0  0
   10.5854   45.0532    3.2728 C   0  0  0  0  0  0  0  0  0  0  0  0
   10.8887   46.0398    2.1212 C   0  0  0  0  0  0  0  0  0  0  0  0
   12.2513   46.7141    2.4057 C   0  0  0  0  0  0  0  0  0  0  0  0
   13.3753   45.7025    2.6360 C   0  0  0  0  0  0  0  0  0  0  0  0
    9.8421   47.1391    2.0881 C   0  0  0  0  0  0  0  0  0  0  0  0
    9.9292   48.2375    1.0761 C   0  0  0  0  0  0  0  0  0  0  0  0
   10.8565   45.3033    0.7847 C   0  0  0  0  0  0  0  0  0  0  0  0
    9.7371   44.5212    0.4470 C   0  0  0  0  0  0  0  0  0  0  0  0
    9.6734   43.8589   -0.7819 C   0  0  0  0  0  0  0  0  0  0  0  0
   10.7247   43.9754   -1.6936 C   0  0  0  0  0  0  0  0  0  0  0  0
   11.8382   44.7569   -1.3783 C   0  0  0  0  0  0  0  0  0  0  0  0
   11.9020   45.4194   -0.1497 C   0  0  0  0  0  0  0  0  0  0  0  0
   13.8813   39.9180    9.6751 O   0  0  0  0  0  0  0  0  0  0  0  0
   16.0156   40.6421   10.1766 O   0  0  0  0  0  0  0  0  0  0  0  0
   15.0221   44.8800    4.7579 O   0  0  0  0  0  0  0  0  0  0  0  0
    8.9101   47.1476    2.8789 O   0  0  0  0  0  0  0  0  0  0  0  0
   15.5798   43.2657    6.9260 N   0  0  0  0  0  0  0  0  0  0  0  0
   13.5143   43.3033    5.6036 N   0  0  0  0  0  0  0  0  0  0  0  0
   12.9738   44.7339    3.6500 N   0  0  0  0  0  0  0  0  0  0  0  0
   13.9187   41.8466    7.5081 N   0  0  0  0  0  0  0  0  0  0  0  0
  1  2  1  0
  2 21  1  0
  3 21  1  0
  3  4  1  0
  5 25  1  0
  6 26  1  0
  6 28  1  0
  7 27  1  0
  8 27  1  0
  8  9  1  0
  9 10  1  0
 10 11  1  0
 10 13  1  0
 10 15  1  0
 11 12  1  0
 12 27  1  0
 14 13  1  0
 16 17  2  0
 18 19  2  0
 20 15  2  0
 26  7  1  0
 28  4  1  0
  3 22  2  0
  4  5  2  0
  6 25  2  0
  7 23  2  0
 13 24  2  0
 15 16  1  0
 17 18  1  0
 19 20  1  0
M  END
>  <rmsd>  (1) 
0.206146955

$$$$
