MolPort-046-971-720 MCULE-6984137246 PubChem-110111680
     RDKit          3D

 28 31  0  0  0  0  0  0  0  0999 V2000
   13.7451   34.0750   13.6982 C   0  0  0  0  0  0  0  0  0  0  0  0
   13.2399   34.1791   12.3047 C   0  0  0  0  0  0  0  0  0  0  0  0
   12.0065   33.2634   10.5115 C   0  0  0  0  0  0  0  0  0  0  0  0
   12.3103   34.3728    9.7245 C   0  0  0  0  0  0  0  0  0  0  0  0
   13.0943   35.3935   10.2737 C   0  0  0  0  0  0  0  0  0  0  0  0
   13.4508   36.5755    9.4555 C   0  0  0  0  0  0  0  0  0  0  0  0
   13.8772   38.0970   11.4422 C   0  0  0  0  0  0  0  0  0  0  0  0
   13.0343   39.3631   11.5641 C   0  0  0  0  0  0  0  0  0  0  0  0
   13.6587   40.4875   10.7403 C   0  0  0  0  0  0  0  0  0  0  0  0
   13.7968   40.0644    9.2753 C   0  0  2  0  0  0  0  0  0  0  0  0
   14.6185   38.7791    9.1631 C   0  0  0  0  0  0  0  0  0  0  0  0
   14.3988   41.1591    8.4531 C   0  0  0  0  0  0  0  0  0  0  0  0
   13.6590   41.7079    7.4032 C   0  0  0  0  0  0  0  0  0  0  0  0
   14.2118   42.7306    6.6282 C   0  0  0  0  0  0  0  0  0  0  0  0
   16.2082   42.6650    7.9206 C   0  0  0  0  0  0  0  0  0  0  0  0
   15.6875   41.6426    8.7150 C   0  0  0  0  0  0  0  0  0  0  0  0
   13.8523   44.3302    4.6667 C   0  0  0  0  0  0  0  0  0  0  0  0
   12.9740   44.7558    3.6663 C   0  0  0  0  0  0  0  0  0  0  0  0
   13.3662   45.7750    2.7966 C   0  0  0  0  0  0  0  0  0  0  0  0
   14.6269   46.3580    2.9323 C   0  0  0  0  0  0  0  0  0  0  0  0
   15.4791   45.9087    3.9428 C   0  0  0  0  0  0  0  0  0  0  0  0
   12.4736   33.1857   11.7843 N   0  0  0  0  0  0  0  0  0  0  0  0
   13.5465   35.2674   11.5513 N   0  0  0  0  0  0  0  0  0  0  0  0
   14.0416   37.7560   10.0310 N   0  0  0  0  0  0  0  0  0  0  0  0
   15.4674   43.1825    6.9044 N   0  0  0  0  0  0  0  0  0  0  0  0
   13.4412   43.2839    5.5547 N   0  0  0  0  0  0  0  0  0  0  0  0
   15.0784   44.9144    4.7802 N   0  0  0  0  0  0  0  0  0  0  0  0
   13.2397   36.5386    8.2117 O   0  0  0  0  0  0  0  0  0  0  0  0
  1  2  1  0
  2 23  2  0
  3 22  2  0
  4  5  2  0
  5  6  1  0
  6 24  1  0
  7 24  1  0
  7  8  1  0
  8  9  1  0
  9 10  1  0
 10 11  1  0
 10 12  1  6
 11 24  1  0
 13 14  2  0
 14 26  1  0
 15 25  2  0
 16 12  2  0
 17 27  2  0
 18 19  2  0
 20 21  2  0
 26 17  1  0
  2 22  1  0
  3  4  1  0
  5 23  1  0
  6 28  2  0
 12 13  1  0
 14 25  1  0
 15 16  1  0
 17 18  1  0
 19 20  1  0
 21 27  1  0
M  END
>  <rmsd>  (1) 
0.24385424

$$$$
