MolPort-000-640-780 8048355 CSSS00160348931 MCULE-9317775528 PubChem-9179313 ZINC000008048355
     RDKit          3D

 20 21  0  0  0  0  0  0  0  0999 V2000
   12.9171   39.0407   10.9156 C   0  0  0  0  0  0  0  0  0  0  0  0
   14.1964   39.6594   11.4457 C   0  0  0  0  0  0  0  0  0  0  0  0
   15.1255   41.7818   11.7391 C   0  0  0  0  0  0  0  0  0  0  0  0
   14.1441   42.7753   12.3297 C   0  0  0  0  0  0  0  0  0  0  0  0
   15.3872   40.6649    9.7040 C   0  0  0  0  0  0  0  0  0  0  0  0
   15.0999   41.5532    8.5426 C   0  0  0  0  0  0  0  0  0  0  0  0
   15.9716   42.5045    8.0292 C   0  0  0  0  0  0  0  0  0  0  0  0
   14.2342   42.7718    6.6293 C   0  0  0  0  0  0  0  0  0  0  0  0
   13.9114   44.3506    4.6631 C   0  0  0  0  0  0  0  0  0  0  0  0
   13.0268   44.8167    3.5808 C   0  0  0  0  0  0  0  0  0  0  0  0
   11.7566   44.2469    3.4087 C   0  0  0  0  0  0  0  0  0  0  0  0
   10.9166   44.6884    2.3821 C   0  0  0  0  0  0  0  0  0  0  0  0
   11.3406   45.7031    1.5199 C   0  0  0  0  0  0  0  0  0  0  0  0
   12.6044   46.2765    1.6839 C   0  0  0  0  0  0  0  0  0  0  0  0
   13.4445   45.8349    2.7105 C   0  0  0  0  0  0  0  0  0  0  0  0
   14.4431   40.9284   10.7797 N   0  0  0  0  0  0  0  0  0  0  0  0
   15.4791   43.1836    6.9589 N   0  0  0  0  0  0  0  0  0  0  0  0
   13.4711   43.3092    5.5448 N   0  0  0  0  0  0  0  0  0  0  0  0
   15.0517   44.8700    4.8088 O   0  0  0  0  0  0  0  0  0  0  0  0
   13.6797   41.5503    7.6400 S   0  0  0  0  0  0  0  0  0  0  0  0
  1  2  1  0
  2 16  1  0
  3 16  1  0
  3  4  1  0
  5 16  1  0
  5  6  1  0
  6 20  1  0
  7 17  1  0
  8 18  1  0
  8 20  1  0
  9 10  1  0
 11 12  2  0
 13 14  2  0
 15 10  2  0
 18  9  1  0
  6  7  2  0
  8 17  2  0
  9 19  2  0
 10 11  1  0
 12 13  1  0
 14 15  1  0
M  END
>  <rmsd>  (1) 
0.210848823

$$$$
