MolPort-020-298-667 CHEMBL3450043 MCULE-7664358719 PubChem-110269812
     RDKit          3D

 24 26  0  0  0  0  0  0  0  0999 V2000
   13.8556   44.3250    4.6636 C   0  0  0  0  0  0  0  0  0  0  0  0
   14.2014   42.7251    6.6490 C   0  0  0  0  0  0  0  0  0  0  0  0
   14.2900   41.1550    8.4397 C   0  0  0  0  0  0  0  0  0  0  0  0
   13.6107   40.0698    9.2126 C   0  0  1  0  0  0  0  0  0  0  0  0
   14.3799   38.7442    9.1022 C   0  0  0  0  0  0  0  0  0  0  0  0
   14.1163   38.1721   11.3947 C   0  0  0  0  0  0  0  0  0  0  0  0
   13.0690   39.2896   11.5479 C   0  0  0  0  0  0  0  0  0  0  0  0
   13.3795   40.4981   10.6668 C   0  0  0  0  0  0  0  0  0  0  0  0
   15.8498   37.2344   10.1171 C   0  0  0  0  0  0  0  0  0  0  0  0
   17.1620   37.2920   10.8747 C   0  0  0  0  0  0  0  0  0  0  0  0
   15.5814   41.5822    8.7764 C   0  0  0  0  0  0  0  0  0  0  0  0
   16.1808   42.5963    8.0308 C   0  0  0  0  0  0  0  0  0  0  0  0
   15.4921   43.1720    6.9632 C   0  0  0  0  0  0  0  0  0  0  0  0
   15.4561   45.9037    3.9192 C   0  0  0  0  0  0  0  0  0  0  0  0
   14.5899   46.3246    2.9121 C   0  0  0  0  0  0  0  0  0  0  0  0
   13.3437   45.7091    2.8132 C   0  0  0  0  0  0  0  0  0  0  0  0
   12.3900   46.1283    1.7533 C   0  0  0  0  0  0  0  0  0  0  0  0
   16.7946   46.5333    4.0602 C   0  0  0  0  0  0  0  0  0  0  0  0
   13.4498   43.2832    5.5616 N   0  0  0  0  0  0  0  0  0  0  0  0
   13.6399   41.7334    7.3934 N   0  0  0  0  0  0  0  0  0  0  0  0
   15.0980   38.4566   10.3421 N   0  0  0  0  0  0  0  0  0  0  0  0
   15.0764   44.9173    4.7724 N   0  0  0  0  0  0  0  0  0  0  0  0
   13.0004   44.7258    3.6856 N   0  0  0  0  0  0  0  0  0  0  0  0
   17.8770   36.1162   10.6546 O   0  0  0  0  0  0  0  0  0  0  0  0
  1 19  1  0
  1 23  2  0
  3 20  2  0
  4  3  1  6
  4  5  1  0
  5 21  1  0
  6 21  1  0
  6  7  1  0
  7  8  1  0
  8  4  1  0
  9 21  1  0
  9 10  1  0
 10 24  1  0
 11 12  2  0
 13  2  2  0
 14 22  2  0
 15 16  2  0
 17 16  1  0
 18 14  1  0
 19  2  1  0
  1 22  1  0
  2 20  1  0
  3 11  1  0
 12 13  1  0
 14 15  1  0
 16 23  1  0
M  END
>  <rmsd>  (1) 
0.247216403

$$$$
