MolPort-001-625-477 4696243 CSSS00132526133 ChemDiv-Y030-8192 LN00990780 MCULE-6331054327 PubChem-4036561 ZINC000004696243 ZINC04696243
     RDKit          3D

 30 32  0  0  0  0  0  0  0  0999 V2000
   13.1351   39.8849   11.4286 C   0  0  0  0  0  0  0  0  0  0  0  0
   13.9624   38.6366   11.1911 C   0  0  0  0  0  0  0  0  0  0  0  0
   14.9890   38.8805   10.0996 C   0  0  0  0  0  0  0  0  0  0  0  0
   16.3255   40.9931    9.9394 C   0  0  0  0  0  0  0  0  0  0  0  0
   15.5829   41.5741    8.7898 C   0  0  0  0  0  0  0  0  0  0  0  0
   16.1507   42.6384    8.0723 C   0  0  0  0  0  0  0  0  0  0  0  0
   15.4699   43.2189    6.9990 C   0  0  0  0  0  0  0  0  0  0  0  0
   14.2037   42.7479    6.6255 C   0  0  0  0  0  0  0  0  0  0  0  0
   13.9062   44.3754    4.6626 C   0  0  0  0  0  0  0  0  0  0  0  0
   13.0074   44.8639    3.6019 C   0  0  0  0  0  0  0  0  0  0  0  0
   13.4208   45.8877    2.7365 C   0  0  0  0  0  0  0  0  0  0  0  0
   12.5740   46.3584    1.7275 C   0  0  0  0  0  0  0  0  0  0  0  0
   12.3217   48.0253   -0.2089 C   0  0  0  0  0  0  0  0  0  0  0  0
   12.9698   49.0782   -1.0108 C   0  0  0  0  0  0  0  0  0  0  0  0
   12.2790   49.6957   -2.0645 C   0  0  0  0  0  0  0  0  0  0  0  0
   12.8952   50.6939   -2.8252 C   0  0  0  0  0  0  0  0  0  0  0  0
   14.2064   51.0822   -2.5379 C   0  0  0  0  0  0  0  0  0  0  0  0
   14.9018   50.4723   -1.4903 C   0  0  0  0  0  0  0  0  0  0  0  0
   14.2858   49.4741   -0.7299 C   0  0  0  0  0  0  0  0  0  0  0  0
   11.2978   45.7945    1.5850 C   0  0  0  0  0  0  0  0  0  0  0  0
   10.8766   44.7747    2.4417 C   0  0  0  0  0  0  0  0  0  0  0  0
   11.7287   44.3111    3.4466 C   0  0  0  0  0  0  0  0  0  0  0  0
   13.6291   41.6955    7.3430 C   0  0  0  0  0  0  0  0  0  0  0  0
   14.3117   41.1157    8.4157 C   0  0  0  0  0  0  0  0  0  0  0  0
   15.9878   39.7809   10.5609 O   0  0  0  0  0  0  0  0  0  0  0  0
   17.3235   41.6185   10.3875 O   0  0  0  0  0  0  0  0  0  0  0  0
   15.0524   44.8848    4.7944 O   0  0  0  0  0  0  0  0  0  0  0  0
   11.1374   47.6797   -0.4708 O   0  0  0  0  0  0  0  0  0  0  0  0
   13.4716   43.3189    5.5326 N   0  0  0  0  0  0  0  0  0  0  0  0
   13.0437   47.4042    0.8659 N   0  0  0  0  0  0  0  0  0  0  0  0
  1  2  1  0
  2  3  1  0
  3 25  1  0
  4 25  1  0
  4  5  1  0
  6  7  2  0
  8 29  1  0
  8 23  2  0
  9 10  1  0
 11 12  2  0
 12 30  1  0
 13 14  1  0
 15 16  2  0
 17 18  2  0
 19 14  2  0
 20 21  2  0
 22 10  2  0
 24  5  2  0
 29  9  1  0
 30 13  1  0
  4 26  2  0
  5  6  1  0
  7  8  1  0
  9 27  2  0
 10 11  1  0
 12 20  1  0
 13 28  2  0
 14 15  1  0
 16 17  1  0
 18 19  1  0
 21 22  1  0
 23 24  1  0
M  END
>  <rmsd>  (1) 
0.240253866

$$$$
