MolPort-009-692-523 9203998 CSSS00106609010 MCULE-8697503382 PubChem-16953668 UXYJRMSYGVHNHR-UHFFFAOYSA-N ZINC000009203998 ZINC09203998
     RDKit          3D

 28 31  0  0  0  0  0  0  0  0999 V2000
   11.8535   47.0322    0.9850 C   0  0  0  0  0  0  0  0  0  0  0  0
   12.1130   46.0632    2.0818 C   0  0  0  0  0  0  0  0  0  0  0  0
   13.2846   45.9676    2.8060 C   0  0  0  0  0  0  0  0  0  0  0  0
   12.9925   44.9285    3.6750 C   0  0  0  0  0  0  0  0  0  0  0  0
   13.9004   44.3903    4.6939 C   0  0  0  0  0  0  0  0  0  0  0  0
   14.2510   42.6975    6.5535 C   0  0  0  0  0  0  0  0  0  0  0  0
   16.0322   42.3165    7.8780 C   0  0  0  0  0  0  0  0  0  0  0  0
   15.1553   41.3360    8.3790 C   0  0  0  0  0  0  0  0  0  0  0  0
   15.4593   40.2688    9.3554 C   0  0  0  0  0  0  0  0  0  0  0  0
   14.4752   39.8335   10.3713 C   0  0  0  0  0  0  0  0  0  0  0  0
   14.7158   38.6758   11.1274 C   0  0  0  0  0  0  0  0  0  0  0  0
   13.8041   38.2627   12.1034 C   0  0  0  0  0  0  0  0  0  0  0  0
   12.6451   39.0069   12.3361 C   0  0  0  0  0  0  0  0  0  0  0  0
   12.3989   40.1652   11.5950 C   0  0  0  0  0  0  0  0  0  0  0  0
   13.3110   40.5776   10.6196 C   0  0  0  0  0  0  0  0  0  0  0  0
   17.3882   42.6026    8.3962 C   0  0  0  0  0  0  0  0  0  0  0  0
   18.3308   43.2222    7.5621 C   0  0  0  0  0  0  0  0  0  0  0  0
   19.6054   43.5369    8.0422 C   0  0  0  0  0  0  0  0  0  0  0  0
   19.9454   43.2441    9.3652 C   0  0  0  0  0  0  0  0  0  0  0  0
   19.0095   42.6413   10.2091 C   0  0  0  0  0  0  0  0  0  0  0  0
   17.7353   42.3276    9.7279 C   0  0  0  0  0  0  0  0  0  0  0  0
   11.7462   44.4634    3.4647 N   0  0  0  0  0  0  0  0  0  0  0  0
   13.4649   43.3096    5.5270 N   0  0  0  0  0  0  0  0  0  0  0  0
   15.5129   43.0633    6.8632 N   0  0  0  0  0  0  0  0  0  0  0  0
   11.2479   45.1716    2.4974 O   0  0  0  0  0  0  0  0  0  0  0  0
   15.0537   44.8820    4.8277 O   0  0  0  0  0  0  0  0  0  0  0  0
   16.5811   39.6952    9.2996 O   0  0  0  0  0  0  0  0  0  0  0  0
   13.7133   41.4309    7.5080 S   0  0  0  0  0  0  0  0  0  0  0  0
  1  2  1  0
  2 25  1  0
  3  4  1  0
  4  5  1  0
  5 23  1  0
  6 28  1  0
  7 24  1  0
  7 16  1  0
  8 28  1  0
  8  9  1  0
  9 10  1  0
 11 12  2  0
 13 14  2  0
 15 10  2  0
 17 18  2  0
 19 20  2  0
 21 16  2  0
 22 25  1  0
 23  6  1  0
  2  3  2  0
  4 22  2  0
  5 26  2  0
  6 24  2  0
  7  8  2  0
  9 27  2  0
 10 11  1  0
 12 13  1  0
 14 15  1  0
 16 17  1  0
 18 19  1  0
 20 21  1  0
M  END
>  <rmsd>  (1) 
0.216876775

$$$$
