MolPort-007-723-737 8588205 CHEMBL1355675 ChemDiv-E157-8420 MCULE-7523060625 PubChem-16017631 ZINC000008588205 ZINC08588205
     RDKit          3D

 28 30  0  0  0  0  0  0  0  0999 V2000
   15.0881   47.3946    1.7923 C   0  0  0  0  0  0  0  0  0  0  0  0
   13.3901   45.7907    2.6260 C   0  0  0  0  0  0  0  0  0  0  0  0
   13.0147   44.7946    3.5602 C   0  0  0  0  0  0  0  0  0  0  0  0
   11.7456   44.2038    3.4523 C   0  0  0  0  0  0  0  0  0  0  0  0
   10.8585   44.5852    2.4448 C   0  0  0  0  0  0  0  0  0  0  0  0
   11.2286   45.5663    1.5267 C   0  0  0  0  0  0  0  0  0  0  0  0
   12.4857   46.1648    1.6167 C   0  0  0  0  0  0  0  0  0  0  0  0
   13.9112   44.3467    4.6529 C   0  0  0  0  0  0  0  0  0  0  0  0
   14.2346   42.7954    6.6421 C   0  0  0  0  0  0  0  0  0  0  0  0
   15.1265   41.6578    8.5421 C   0  0  0  0  0  0  0  0  0  0  0  0
   13.5297   39.2541   11.2302 C   0  0  0  0  0  0  0  0  0  0  0  0
   13.4825   41.7516   11.5353 C   0  0  0  0  0  0  0  0  0  0  0  0
   14.0412   43.0227   11.3209 C   0  0  0  0  0  0  0  0  0  0  0  0
   13.4468   44.1642   11.8649 C   0  0  0  0  0  0  0  0  0  0  0  0
   12.2853   44.0484   12.6314 C   0  0  0  0  0  0  0  0  0  0  0  0
   11.7188   42.7915   12.8545 C   0  0  0  0  0  0  0  0  0  0  0  0
   12.3139   41.6502   12.3097 C   0  0  0  0  0  0  0  0  0  0  0  0
   14.6505   46.3966    2.7052 O   0  0  0  0  0  0  0  0  0  0  0  0
   15.0497   44.8676    4.8015 O   0  0  0  0  0  0  0  0  0  0  0  0
   16.6278   41.2832   10.7164 O   0  0  0  0  0  0  0  0  0  0  0  0
   15.8948   39.3008    9.4834 O   0  0  0  0  0  0  0  0  0  0  0  0
   13.4742   43.3133    5.5464 N   0  0  0  0  0  0  0  0  0  0  0  0
   15.4709   43.2234    6.9814 N   0  0  0  0  0  0  0  0  0  0  0  0
   15.9675   42.5885    8.0413 N   0  0  0  0  0  0  0  0  0  0  0  0
   14.0915   40.5727   10.9707 N   0  0  0  0  0  0  0  0  0  0  0  0
   13.6881   41.5800    7.6691 S   0  0  0  0  0  0  0  0  0  0  0  0
   15.4915   40.6735    9.9444 S   0  0  0  0  0  0  0  0  0  0  0  0
   11.5400   45.4777   13.3127 Cl  0  0  0  0  0  0  0  0  0  0  0  0
  1 18  1  0
  2 18  1  0
  3  4  2  0
  3  8  1  0
  5  6  2  0
  7  2  2  0
  8 22  1  0
  9 26  1  0
 10 26  1  0
 11 25  1  0
 13 14  2  0
 15 28  1  0
 15 16  2  0
 17 12  2  0
 22  9  1  0
 23 24  1  0
 25 12  1  0
 27 10  1  0
 27 25  1  0
  2  3  1  0
  4  5  1  0
  6  7  1  0
  8 19  2  0
  9 23  2  0
 10 24  2  0
 12 13  1  0
 14 15  1  0
 16 17  1  0
 27 20  2  0
 27 21  2  0
M  END
>  <rmsd>  (1) 
0.205905989

$$$$
