MolPort-002-622-394 9328043 PubChem-2027619 ZINC000009328043 ZINC09328043
     RDKit          3D

 23 25  0  0  0  0  0  0  0  0999 V2000
   12.7809   39.6778   11.7391 C   0  0  0  0  0  0  0  0  0  0  0  0
   13.7724   38.9540   10.8476 C   0  0  0  0  0  0  0  0  0  0  0  0
   13.9105   39.6714    9.5170 C   0  0  0  0  0  0  0  0  0  0  0  0
   14.7472   40.9299    9.6774 C   0  0  0  0  0  0  0  0  0  0  0  0
   14.3488   42.6993    6.5955 C   0  0  0  0  0  0  0  0  0  0  0  0
   13.9356   44.2726    4.6305 C   0  0  0  0  0  0  0  0  0  0  0  0
   13.0612   44.5680    3.4642 C   0  0  0  0  0  0  0  0  0  0  0  0
   13.3834   43.6187    2.3275 C   0  0  0  0  0  0  0  0  0  0  0  0
   15.7187   42.4898    6.5492 C   0  0  0  0  0  0  0  0  0  0  0  0
   16.7095   42.7535    5.6089 C   0  0  0  0  0  0  0  0  0  0  0  0
   18.0122   42.3260    5.9190 C   0  0  0  0  0  0  0  0  0  0  0  0
   19.0629   42.5669    5.0312 C   0  0  0  0  0  0  0  0  0  0  0  0
   20.3554   42.1360    5.3460 C   0  0  0  0  0  0  0  0  0  0  0  0
   20.6036   41.4622    6.5469 C   0  0  0  0  0  0  0  0  0  0  0  0
   21.9814   41.0088    6.8697 C   0  0  0  0  0  0  0  0  0  0  0  0
   19.5604   41.2121    7.4442 C   0  0  0  0  0  0  0  0  0  0  0  0
   18.2636   41.6371    7.1458 C   0  0  0  0  0  0  0  0  0  0  0  0
   15.9966   41.8173    7.7035 C   0  0  0  0  0  0  0  0  0  0  0  0
   14.8680   41.6148    8.4000 N   0  0  0  0  0  0  0  0  0  0  0  0
   13.8508   42.1440    7.7279 N   0  0  0  0  0  0  0  0  0  0  0  0
   13.5190   43.2996    5.5936 N   0  0  0  0  0  0  0  0  0  0  0  0
   17.2432   41.3847    8.0193 N   0  0  0  0  0  0  0  0  0  0  0  0
   15.0172   44.9020    4.7692 O   0  0  0  0  0  0  0  0  0  0  0  0
  1  2  1  0
  2  3  1  0
  3  4  1  0
  4 19  1  0
  5 21  1  0
  5  9  1  0
  7  6  1  0
  7  8  1  0
 10 11  2  0
 12 13  2  0
 14 16  2  0
 15 14  1  0
 17 22  2  0
 17 11  1  0
 18 19  1  0
 18  9  2  0
 19 20  1  0
 21  6  1  0
  5 20  2  0
  6 23  2  0
  9 10  1  0
 11 12  1  0
 13 14  1  0
 16 17  1  0
 18 22  1  0
M  END
>  <rmsd>  (1) 
0.163929015

$$$$
