MolPort-008-363-374 MolPort-047-536-103 CSSS00160416724 MCULE-3028797757 MCULE-3209284736 PubChem-154924705 PubChem-46985117
     RDKit          3D

 23 25  0  0  0  0  0  0  0  0999 V2000
   13.9038   44.3464    4.6704 C   0  0  0  0  0  0  0  0  0  0  0  0
   11.6902   44.1819    3.4885 C   0  0  1  0  0  0  0  0  0  0  0  0
   10.5608   45.1578    3.8556 C   0  0  0  0  0  0  0  0  0  0  0  0
   11.0110   46.4053    4.6156 C   0  0  0  0  0  0  0  0  0  0  0  0
   11.5870   47.4374    3.6506 C   0  0  0  0  0  0  0  0  0  0  0  0
   13.0824   47.2284    3.3956 C   0  0  0  0  0  0  0  0  0  0  0  0
   13.4032   45.8852    2.7381 C   0  0  2  0  0  0  0  0  0  0  0  0
   12.7260   45.7649    1.3651 C   0  0  0  0  0  0  0  0  0  0  0  0
   12.4397   44.3025    1.0341 C   0  0  0  0  0  0  0  0  0  0  0  0
   11.4720   43.6824    2.0525 C   0  0  0  0  0  0  0  0  0  0  0  0
   14.2742   42.7848    6.6443 C   0  0  0  0  0  0  0  0  0  0  0  0
   15.8841   42.4800    8.0096 C   0  0  0  0  0  0  0  0  0  0  0  0
   14.8457   41.6210    8.3039 C   0  0  0  0  0  0  0  0  0  0  0  0
   14.8304   40.6366    9.3906 C   0  0  0  0  0  0  0  0  0  0  0  0
   13.6100   38.8730   10.6200 C   0  0  0  0  0  0  0  0  0  0  0  0
   13.3115   39.5684   11.9350 C   0  0  0  0  0  0  0  0  0  0  0  0
   15.0422   44.8759    4.7914 O   0  0  0  0  0  0  0  0  0  0  0  0
   13.7047   39.8277    9.5700 O   0  0  0  0  0  0  0  0  0  0  0  0
   15.8302   40.5230   10.1516 O   0  0  0  0  0  0  0  0  0  0  0  0
   13.0186   44.7860    3.6300 N   0  0  0  0  0  0  0  0  0  0  0  0
   13.4902   43.3060    5.5662 N   0  0  0  0  0  0  0  0  0  0  0  0
   15.5141   43.2213    6.9489 N   0  0  0  0  0  0  0  0  0  0  0  0
   13.8247   41.8044    7.4491 N   0  0  0  0  0  0  0  0  0  0  0  0
  1 20  1  0
  1 21  1  0
  2 20  1  0
  2  3  1  6
  3  4  1  0
  4  5  1  0
  5  6  1  0
  7  6  1  1
  7  8  1  0
  7 20  1  0
  8  9  1  0
  9 10  1  0
 10  2  1  0
 12 22  1  0
 13 14  1  0
 13 23  1  0
 14 18  1  0
 15 18  1  0
 15 16  1  0
 21 11  1  0
 23 11  1  0
  1 17  2  0
 11 22  2  0
 12 13  2  0
 14 19  2  0
M  END
>  <rmsd>  (1) 
0.160554498

$$$$
