MolPort-001-980-258 350703 CHEMBL1569906 CSSS03436650360 MCULE-6472137387 PubChem-650633 ZINC000000350703
     RDKit          3D

 22 24  0  0  0  0  0  0  0  0999 V2000
   15.1934   41.4704    8.5570 C   0  0  0  0  0  0  0  0  0  0  0  0
   14.3213   42.6740    6.5354 C   0  0  0  0  0  0  0  0  0  0  0  0
   15.6388   42.2395    6.3826 C   0  0  0  0  0  0  0  0  0  0  0  0
   16.3876   42.3472    5.1545 C   0  0  0  0  0  0  0  0  0  0  0  0
   16.1329   41.5812    7.5246 C   0  0  0  0  0  0  0  0  0  0  0  0
   17.5108   41.0061    7.5964 C   0  0  0  0  0  0  0  0  0  0  0  0
   13.9479   44.2838    4.6044 C   0  0  0  0  0  0  0  0  0  0  0  0
   13.0817   44.6402    3.4415 C   0  0  0  0  0  0  0  0  0  0  0  0
   12.8025   43.4023    2.6086 C   0  0  0  0  0  0  0  0  0  0  0  0
   13.8358   44.4036    2.1454 C   0  0  0  0  0  0  0  0  0  0  0  0
   15.4184   40.8738    9.8947 C   0  0  0  0  0  0  0  0  0  0  0  0
   13.0969   39.8957   10.0798 C   0  0  0  0  0  0  0  0  0  0  0  0
   12.7816   38.4740   10.5495 C   0  0  0  0  0  0  0  0  0  0  0  0
   12.9833   38.2696   12.0596 C   0  0  0  0  0  0  0  0  0  0  0  0
   13.3218   39.5610   12.8029 C   0  0  0  0  0  0  0  0  0  0  0  0
   14.5217   40.2407   12.1465 C   0  0  0  0  0  0  0  0  0  0  0  0
   13.7635   42.2051    8.0455 S   0  0  0  0  0  0  0  0  0  0  0  0
   16.9890   42.4316    4.1692 N   0  0  0  0  0  0  0  0  0  0  0  0
   13.4966   43.3104    5.5521 N   0  0  0  0  0  0  0  0  0  0  0  0
   14.3346   40.3747   10.6977 N   0  0  0  0  0  0  0  0  0  0  0  0
   15.0283   44.9062    4.7914 O   0  0  0  0  0  0  0  0  0  0  0  0
   16.5942   40.8187   10.3475 O   0  0  0  0  0  0  0  0  0  0  0  0
  1 17  1  0
  1 11  1  0
  2 17  1  0
  2 19  1  0
  3  4  1  0
  3  5  1  0
  6  5  1  0
  8  7  1  0
  8  9  1  0
  9 10  1  0
 10  8  1  0
 11 20  1  0
 12 20  1  0
 12 13  1  0
 13 14  1  0
 14 15  1  0
 15 16  1  0
 16 20  1  0
 19  7  1  0
  2  3  2  0
  5  1  2  0
  7 21  2  0
 11 22  2  0
  4 18  3  0
M  END
>  <rmsd>  (1) 
0.243982688

$$$$
