MolPort-047-586-240 MCULE-2060819155 PubChem-157292296 PubChem-159458611 PubChem-57934984
     RDKit          3D

 31 32  0  0  0  0  0  0  0  0999 V2000
   13.7828   41.7376   10.2596 B   0  0  0  0  0  0  0  0  0  0  0  0
   14.3621   40.7682   11.1742 O   0  0  0  0  0  0  0  0  0  0  0  0
   12.3374   41.8254   10.3831 O   0  0  0  0  0  0  0  0  0  0  0  0
   17.7533   42.0048    3.3419 O   0  0  0  0  0  0  0  0  0  0  0  0
   18.3675   41.4079    5.4903 O   0  0  0  0  0  0  0  0  0  0  0  0
   15.0410   44.8948    4.7990 O   0  0  0  0  0  0  0  0  0  0  0  0
   13.1431   44.6297    3.4995 O   0  0  0  0  0  0  0  0  0  0  0  0
   13.3341   39.8174   11.2625 C   0  0  0  0  0  0  0  0  0  0  0  0
   12.0071   40.5095   10.7402 C   0  0  0  0  0  0  0  0  0  0  0  0
   11.3909   39.8163    9.5230 C   0  0  0  0  0  0  0  0  0  0  0  0
   10.9071   40.5820   11.7956 C   0  0  0  0  0  0  0  0  0  0  0  0
   13.2487   39.3678   12.7184 C   0  0  0  0  0  0  0  0  0  0  0  0
   13.7427   38.5842   10.4542 C   0  0  0  0  0  0  0  0  0  0  0  0
   14.4293   41.9170    8.8442 C   0  0  0  0  0  0  0  0  0  0  0  0
   13.7059   42.5234    7.8141 C   0  0  0  0  0  0  0  0  0  0  0  0
   14.2748   42.7015    6.5486 C   0  0  0  0  0  0  0  0  0  0  0  0
   15.5809   42.2233    6.2961 C   0  0  0  0  0  0  0  0  0  0  0  0
   16.2984   41.6181    7.3393 C   0  0  0  0  0  0  0  0  0  0  0  0
   15.7310   41.4722    8.6058 C   0  0  0  0  0  0  0  0  0  0  0  0
   17.4412   41.8996    4.5582 C   0  0  0  0  0  0  0  0  0  0  0  0
   19.6969   40.9892    5.1737 C   0  0  0  0  0  0  0  0  0  0  0  0
   20.4998   42.1414    4.5951 C   0  0  0  0  0  0  0  0  0  0  0  0
   19.6760   39.8311    4.1912 C   0  0  0  0  0  0  0  0  0  0  0  0
   20.3737   40.5255    6.4460 C   0  0  0  0  0  0  0  0  0  0  0  0
   13.9433   44.3040    4.6027 C   0  0  0  0  0  0  0  0  0  0  0  0
   13.4919   45.5898    2.4995 C   0  0  0  0  0  0  0  0  0  0  0  0
   13.6490   46.9709    3.1119 C   0  0  0  0  0  0  0  0  0  0  0  0
   14.7773   45.1896    1.7956 C   0  0  0  0  0  0  0  0  0  0  0  0
   12.3810   45.6453    1.4725 C   0  0  0  0  0  0  0  0  0  0  0  0
   16.1291   42.2987    4.9708 N   0  0  0  0  0  0  0  0  0  0  0  0
   13.4770   43.3198    5.5305 N   0  0  0  0  0  0  0  0  0  0  0  0
  1  2  1  0
  1 14  1  0
  1  3  1  0
  8  2  1  0
  8  9  1  0
  8 12  1  0
  8 13  1  0
  9  3  1  0
  9 10  1  0
  9 11  1  0
 15 16  2  0
 16 31  1  0
 17 18  2  0
 17 30  1  0
 19 14  2  0
 20  5  1  0
 21  5  1  0
 21 22  1  0
 21 23  1  0
 21 24  1  0
 25  7  1  0
 26  7  1  0
 26 27  1  0
 26 28  1  0
 26 29  1  0
 30 20  1  0
 31 25  1  0
 14 15  1  0
 16 17  1  0
 18 19  1  0
 20  4  2  0
 25  6  2  0
M  END
>  <rmsd>  (1) 
0.24944438

$$$$
