MolPort-002-630-792 2343945 LN00716437 PubChem-1618750 ZINC000002343945 ZINC02343945
     RDKit          3D

 30 33  0  0  0  0  0  0  0  0999 V2000
   12.7750   39.6728   11.7367 C   0  0  0  0  0  0  0  0  0  0  0  0
   13.7714   38.9517   10.8483 C   0  0  0  0  0  0  0  0  0  0  0  0
   13.9116   39.6693    9.5180 C   0  0  0  0  0  0  0  0  0  0  0  0
   14.7442   40.9302    9.6807 C   0  0  0  0  0  0  0  0  0  0  0  0
   14.3497   42.6987    6.5978 C   0  0  0  0  0  0  0  0  0  0  0  0
   13.9397   44.2652    4.6264 C   0  0  0  0  0  0  0  0  0  0  0  0
   13.0399   44.5958    3.4906 C   0  0  0  0  0  0  0  0  0  0  0  0
   11.1424   46.1146    3.0318 C   0  0  0  0  0  0  0  0  0  0  0  0
   10.2752   47.1045    3.5067 C   0  0  0  0  0  0  0  0  0  0  0  0
    9.2876   47.6376    2.6727 C   0  0  0  0  0  0  0  0  0  0  0  0
    9.1626   47.1822    1.3571 C   0  0  0  0  0  0  0  0  0  0  0  0
   10.0249   46.1937    0.8749 C   0  0  0  0  0  0  0  0  0  0  0  0
   11.0122   45.6606    1.7086 C   0  0  0  0  0  0  0  0  0  0  0  0
   15.7204   42.4938    6.5559 C   0  0  0  0  0  0  0  0  0  0  0  0
   16.7140   42.7626    5.6200 C   0  0  0  0  0  0  0  0  0  0  0  0
   18.0172   42.3401    5.9347 C   0  0  0  0  0  0  0  0  0  0  0  0
   19.0698   42.5866    5.0511 C   0  0  0  0  0  0  0  0  0  0  0  0
   20.3671   42.1645    5.3618 C   0  0  0  0  0  0  0  0  0  0  0  0
   22.7434   42.0382    4.6863 C   0  0  0  0  0  0  0  0  0  0  0  0
   20.6073   41.4875    6.5703 C   0  0  0  0  0  0  0  0  0  0  0  0
   19.5632   41.2318    7.4638 C   0  0  0  0  0  0  0  0  0  0  0  0
   18.2666   41.6515    7.1612 C   0  0  0  0  0  0  0  0  0  0  0  0
   15.9968   41.8216    7.7106 C   0  0  0  0  0  0  0  0  0  0  0  0
   14.8668   41.6153    8.4037 N   0  0  0  0  0  0  0  0  0  0  0  0
   13.8500   42.1418    7.7288 N   0  0  0  0  0  0  0  0  0  0  0  0
   13.5207   43.2997    5.5954 N   0  0  0  0  0  0  0  0  0  0  0  0
   17.2440   41.3940    8.0308 N   0  0  0  0  0  0  0  0  0  0  0  0
   15.0165   44.9018    4.7678 O   0  0  0  0  0  0  0  0  0  0  0  0
   12.1186   45.6020    3.8900 O   0  0  0  0  0  0  0  0  0  0  0  0
   21.3969   42.4291    4.4549 O   0  0  0  0  0  0  0  0  0  0  0  0
  1  2  1  0
  2  3  1  0
  3  4  1  0
  4 24  1  0
  5 26  1  0
  5 14  1  0
  7  6  1  0
  7 29  1  0
  8 29  1  0
  9 10  2  0
 11 12  2  0
 13  8  2  0
 15 16  2  0
 17 18  2  0
 18 30  1  0
 19 30  1  0
 20 21  2  0
 22 27  2  0
 22 16  1  0
 23 24  1  0
 23 14  2  0
 24 25  1  0
 26  6  1  0
  5 25  2  0
  6 28  2  0
  8  9  1  0
 10 11  1  0
 12 13  1  0
 14 15  1  0
 16 17  1  0
 18 20  1  0
 21 22  1  0
 23 27  1  0
M  END
>  <rmsd>  (1) 
0.163969487

$$$$
