MolPort-002-849-478 8715568 LN01251847 MCULE-7792707188 PubChem-11842435 ZINC000008715568 ZINC08715568
     RDKit          3D

 28 31  0  0  0  0  0  0  0  0999 V2000
   15.0525   44.8810    4.8287 O   0  0  0  0  0  0  0  0  0  0  0  0
   16.5848   39.6997    9.3017 O   0  0  0  0  0  0  0  0  0  0  0  0
   13.8980   44.3915    4.6910 C   0  0  0  0  0  0  0  0  0  0  0  0
   14.2520   42.6984    6.5527 C   0  0  0  0  0  0  0  0  0  0  0  0
   16.0340   42.3182    7.8759 C   0  0  0  0  0  0  0  0  0  0  0  0
   15.1575   41.3381    8.3784 C   0  0  0  0  0  0  0  0  0  0  0  0
   15.4621   40.2717    9.3555 C   0  0  0  0  0  0  0  0  0  0  0  0
   14.4774   39.8350   10.3698 C   0  0  0  0  0  0  0  0  0  0  0  0
   13.3081   40.5681   10.6169 C   0  0  0  0  0  0  0  0  0  0  0  0
   12.6439   39.0394   12.3071 C   0  0  0  0  0  0  0  0  0  0  0  0
   13.7971   38.2805   12.1034 C   0  0  0  0  0  0  0  0  0  0  0  0
   14.7150   38.6845   11.1330 C   0  0  0  0  0  0  0  0  0  0  0  0
   17.3904   42.6048    8.3931 C   0  0  0  0  0  0  0  0  0  0  0  0
   17.7378   42.3324    9.7253 C   0  0  0  0  0  0  0  0  0  0  0  0
   19.0123   42.6466   10.2053 C   0  0  0  0  0  0  0  0  0  0  0  0
   19.9482   43.2473    9.3599 C   0  0  0  0  0  0  0  0  0  0  0  0
   19.6078   43.5379    8.0365 C   0  0  0  0  0  0  0  0  0  0  0  0
   18.3328   43.2228    7.5576 C   0  0  0  0  0  0  0  0  0  0  0  0
   12.9893   44.9348    3.6661 C   0  0  0  0  0  0  0  0  0  0  0  0
   13.3999   45.9933    2.8417 C   0  0  0  0  0  0  0  0  0  0  0  0
   12.5370   46.5080    1.8695 C   0  0  0  0  0  0  0  0  0  0  0  0
   11.2574   45.9682    1.7145 C   0  0  0  0  0  0  0  0  0  0  0  0
   10.8404   44.9139    2.5314 C   0  0  0  0  0  0  0  0  0  0  0  0
   11.7032   44.3991    3.5035 C   0  0  0  0  0  0  0  0  0  0  0  0
   13.4649   43.3097    5.5264 N   0  0  0  0  0  0  0  0  0  0  0  0
   15.5140   43.0644    6.8609 N   0  0  0  0  0  0  0  0  0  0  0  0
   12.4252   40.1586   11.5669 N   0  0  0  0  0  0  0  0  0  0  0  0
   13.7150   41.4326    7.5084 S   0  0  0  0  0  0  0  0  0  0  0  0
  3 25  1  0
  3 19  1  0
  4 28  1  0
  5 26  1  0
  5 13  1  0
  6 28  1  0
  6  7  1  0
  7  8  1  0
  9 27  2  0
 10 11  2  0
 12  8  2  0
 14 15  2  0
 16 17  2  0
 18 13  2  0
 20 21  2  0
 22 23  2  0
 24 19  2  0
 25  4  1  0
  3  1  2  0
  4 26  2  0
  5  6  2  0
  7  2  2  0
  8  9  1  0
 10 27  1  0
 11 12  1  0
 13 14  1  0
 15 16  1  0
 17 18  1  0
 19 20  1  0
 21 22  1  0
 23 24  1  0
M  END
>  <rmsd>  (1) 
0.218648627

$$$$
