MolPort-001-629-776 2865914 CHEMBL1313544 CSSS00132429924 MCULE-8055462173 PubChem-2219067 ZINC000002865914 ZINC02865914
     RDKit          3D

 26 28  0  0  0  0  0  0  0  0999 V2000
   13.1833   38.6355   11.0279 C   0  0  0  0  0  0  0  0  0  0  0  0
   13.8251   39.9291   11.4935 C   0  0  0  0  0  0  0  0  0  0  0  0
   13.8119   40.9587   10.3781 C   0  0  0  0  0  0  0  0  0  0  0  0
   14.8749   40.6323    9.3422 C   0  0  0  0  0  0  0  0  0  0  0  0
   14.2646   42.7729    6.6319 C   0  0  0  0  0  0  0  0  0  0  0  0
   13.9102   44.3487    4.6733 C   0  0  0  0  0  0  0  0  0  0  0  0
   13.0162   44.8117    3.6075 C   0  0  0  0  0  0  0  0  0  0  0  0
   11.7470   44.3251    3.3563 C   0  0  0  0  0  0  0  0  0  0  0  0
   11.2875   45.0512    2.2695 C   0  0  0  0  0  0  0  0  0  0  0  0
   12.3110   45.9284    1.9466 C   0  0  0  0  0  0  0  0  0  0  0  0
   12.2874   46.8957    0.8274 C   0  0  0  0  0  0  0  0  0  0  0  0
   13.1704   48.0039    0.7516 C   0  0  0  0  0  0  0  0  0  0  0  0
   13.1661   48.8066   -0.3999 C   0  0  0  0  0  0  0  0  0  0  0  0
   12.2885   48.5440   -1.4522 C   0  0  0  0  0  0  0  0  0  0  0  0
   11.3996   47.4743   -1.3659 C   0  0  0  0  0  0  0  0  0  0  0  0
   11.4028   46.6558   -0.2360 C   0  0  0  0  0  0  0  0  0  0  0  0
   14.8466   41.6154    8.2727 N   0  0  0  0  0  0  0  0  0  0  0  0
   15.8477   42.4309    7.9902 N   0  0  0  0  0  0  0  0  0  0  0  0
   15.5092   43.1814    6.9540 N   0  0  0  0  0  0  0  0  0  0  0  0
   13.4838   43.3056    5.5579 N   0  0  0  0  0  0  0  0  0  0  0  0
   14.0304   48.3683    1.8410 N   0  0  0  0  0  0  0  0  0  0  0  0
   13.8322   41.7910    7.4433 N   0  0  0  0  0  0  0  0  0  0  0  0
   15.0478   44.8760    4.8002 O   0  0  0  0  0  0  0  0  0  0  0  0
   13.3264   45.7565    2.7563 O   0  0  0  0  0  0  0  0  0  0  0  0
   13.5313   48.4167    3.1223 O   0  0  0  0  0  0  0  0  0  0  0  0
   15.1396   48.8920    1.6080 O   0  0  0  0  0  0  0  0  0  0  0  0
  1  2  1  0
  2  3  1  0
  3  4  1  0
  4 17  1  0
  5 19  1  0
  5 20  1  0
  6  7  1  0
  7 24  1  0
  8  9  1  0
 10 24  1  0
 10 11  1  0
 12 13  2  0
 12 21  1  0
 14 15  2  0
 16 11  2  0
 17 18  1  0
 17 22  1  0
 20  6  1  0
 21 25  1  0
  5 22  2  0
  6 23  2  0
  7  8  2  0
  9 10  2  0
 11 12  1  0
 13 14  1  0
 15 16  1  0
 18 19  2  0
 21 26  2  0
M  CHG  2  21   1  25  -1
M  END
>  <rmsd>  (1) 
0.162749574

$$$$
