Molport-020-279-143 MCULE-5768605864 MCULE-8724888574 PubChem-110255897
     RDKit          3D

 26 28  0  0  0  0  0  0  0  0999 V2000
   16.7879   46.5346    4.0440 C   0  0  0  0  0  0  0  0  0  0  0  0
   15.4444   45.9139    3.9115 C   0  0  0  0  0  0  0  0  0  0  0  0
   13.8453   44.3252    4.6753 C   0  0  0  0  0  0  0  0  0  0  0  0
   12.9453   44.7372    3.6888 C   0  0  0  0  0  0  0  0  0  0  0  0
   13.3119   45.7544    2.8057 C   0  0  0  0  0  0  0  0  0  0  0  0
   14.5695   46.3494    2.9145 C   0  0  0  0  0  0  0  0  0  0  0  0
   14.2314   42.7199    6.6477 C   0  0  0  0  0  0  0  0  0  0  0  0
   14.3759   41.1594    8.4262 C   0  0  0  0  0  0  0  0  0  0  0  0
   16.2168   42.5774    7.9933 C   0  0  0  0  0  0  0  0  0  0  0  0
   15.5246   43.1677    6.9383 C   0  0  0  0  0  0  0  0  0  0  0  0
   17.5920   43.0314    8.3261 C   0  0  0  0  0  0  0  0  0  0  0  0
   13.7405   40.0698    9.2241 C   0  0  2  0  0  0  0  0  0  0  0  0
   13.6054   40.4825   10.6912 C   0  0  0  0  0  0  0  0  0  0  0  0
   12.9527   39.3640   11.5007 C   0  0  0  0  0  0  0  0  0  0  0  0
   13.7779   38.0863   11.3828 C   0  0  0  0  0  0  0  0  0  0  0  0
   14.5441   38.7753    9.1006 C   0  0  0  0  0  0  0  0  0  0  0  0
   13.5677   36.4826    9.4444 C   0  0  0  0  0  0  0  0  0  0  0  0
   12.9842   35.4326   10.3304 C   0  0  0  0  0  0  0  0  0  0  0  0
   13.4151   33.6452   11.7600 C   0  0  0  0  0  0  0  0  0  0  0  0
   15.0678   44.9215    4.7619 N   0  0  0  0  0  0  0  0  0  0  0  0
   13.4577   43.2796    5.5767 N   0  0  0  0  0  0  0  0  0  0  0  0
   13.6886   41.7259    7.3995 N   0  0  0  0  0  0  0  0  0  0  0  0
   15.6346   41.5875    8.7170 N   0  0  0  0  0  0  0  0  0  0  0  0
   13.9650   37.7568    9.9720 N   0  0  0  0  0  0  0  0  0  0  0  0
   14.0488   34.6226   10.8948 N   0  0  0  0  0  0  0  0  0  0  0  0
   13.7346   36.2231    8.2226 O   0  0  0  0  0  0  0  0  0  0  0  0
  1  2  1  0
  3 20  2  0
  3 21  1  0
  4  5  2  0
  6  2  2  0
  8 22  2  0
  9 23  2  0
 10  7  2  0
 11  9  1  0
 12  8  1  6
 12 13  1  0
 13 14  1  0
 14 15  1  0
 15 24  1  0
 16 24  1  0
 16 12  1  0
 18 17  1  0
 18 25  1  0
 19 25  1  0
 21  7  1  0
 24 17  1  0
  2 20  1  0
  3  4  1  0
  5  6  1  0
  7 22  1  0
  8 23  1  0
  9 10  1  0
 17 26  2  0
M  END
>  <rmsd>  (1) 
0.240459353

$$$$
