MolPort-005-148-118 CSSS00159568032 MCULE-3943007993 PubChem-31192806
     RDKit          3D

 23 24  0  0  0  0  0  0  0  0999 V2000
   12.7308   39.3657   11.7276 C   0  0  0  0  0  0  0  0  0  0  0  0
   13.8293   38.9948   10.7549 C   0  0  0  0  0  0  0  0  0  0  0  0
   15.0001   40.6903    9.4083 C   0  0  0  0  0  0  0  0  0  0  0  0
   14.9797   41.6422    8.2936 C   0  0  0  0  0  0  0  0  0  0  0  0
   16.0285   42.4502    7.9064 C   0  0  0  0  0  0  0  0  0  0  0  0
   14.3424   42.7850    6.6427 C   0  0  0  0  0  0  0  0  0  0  0  0
   13.8981   44.3214    4.6654 C   0  0  0  0  0  0  0  0  0  0  0  0
   11.7333   44.0168    3.4387 C   0  0  0  0  0  0  0  0  0  0  0  0
   13.3745   45.7185    2.6356 C   0  0  0  0  0  0  0  0  0  0  0  0
   13.3125   47.1022    3.2577 C   0  0  0  0  0  0  0  0  0  0  0  0
   13.7773   48.1242    2.2800 C   0  0  0  0  0  0  0  0  0  0  0  0
   14.8417   49.6605    1.3706 C   0  0  0  0  0  0  0  0  0  0  0  0
   15.8310   50.7338    1.0825 C   0  0  0  0  0  0  0  0  0  0  0  0
   13.8614   39.9323    9.6893 O   0  0  0  0  0  0  0  0  0  0  0  0
   16.0397   40.5658   10.1099 O   0  0  0  0  0  0  0  0  0  0  0  0
   15.0232   44.8837    4.7653 O   0  0  0  0  0  0  0  0  0  0  0  0
   13.8707   49.3179    0.5618 O   0  0  0  0  0  0  0  0  0  0  0  0
   15.6174   43.1769    6.8508 N   0  0  0  0  0  0  0  0  0  0  0  0
   13.5119   43.3017    5.5974 N   0  0  0  0  0  0  0  0  0  0  0  0
   12.9993   44.7088    3.6158 N   0  0  0  0  0  0  0  0  0  0  0  0
   13.1770   48.3610    1.0976 N   0  0  0  0  0  0  0  0  0  0  0  0
   14.8410   48.9241    2.4958 N   0  0  0  0  0  0  0  0  0  0  0  0
   13.9100   41.8458    7.5037 N   0  0  0  0  0  0  0  0  0  0  0  0
  1  2  1  0
  2 14  1  0
  3 14  1  0
  3  4  1  0
  5 18  1  0
  6 19  1  0
  6 23  1  0
  7 20  1  0
  8 20  1  0
  9 20  1  0
  9 10  1  0
 10 11  1  0
 11 22  1  0
 12 17  1  0
 13 12  1  0
 19  7  1  0
 21 17  1  0
 23  4  1  0
  3 15  2  0
  4  5  2  0
  6 18  2  0
  7 16  2  0
 11 21  2  0
 12 22  2  0
M  END
>  <rmsd>  (1) 
0.187545478

$$$$
