MolPort-001-631-060 4778425 CSSS00121599782 MCULE-7263481753 PubChem-4613212 ZINC000004778425 ZINC04778425
     RDKit          3D

 26 28  0  0  0  0  0  0  0  0999 V2000
   13.1801   38.6375   11.0239 C   0  0  0  0  0  0  0  0  0  0  0  0
   13.8244   39.9289   11.4918 C   0  0  0  0  0  0  0  0  0  0  0  0
   13.8137   40.9604   10.3780 C   0  0  0  0  0  0  0  0  0  0  0  0
   14.8762   40.6335    9.3418 C   0  0  0  0  0  0  0  0  0  0  0  0
   14.2653   42.7740    6.6319 C   0  0  0  0  0  0  0  0  0  0  0  0
   13.9090   44.3464    4.6678 C   0  0  0  0  0  0  0  0  0  0  0  0
   13.0121   44.7977    3.5898 C   0  0  0  0  0  0  0  0  0  0  0  0
   11.7403   44.2277    3.4462 C   0  0  0  0  0  0  0  0  0  0  0  0
   10.8811   44.6402    2.4159 C   0  0  0  0  0  0  0  0  0  0  0  0
    9.0960   43.0407    3.0820 C   0  0  0  0  0  0  0  0  0  0  0  0
    9.7101   41.7287    2.7243 C   0  0  0  0  0  0  0  0  0  0  0  0
    9.4264   41.1303    1.4913 C   0  0  0  0  0  0  0  0  0  0  0  0
   10.0106   39.9046    1.1573 C   0  0  0  0  0  0  0  0  0  0  0  0
   10.8789   39.2760    2.0554 C   0  0  0  0  0  0  0  0  0  0  0  0
   11.1626   39.8725    3.2878 C   0  0  0  0  0  0  0  0  0  0  0  0
   10.5782   41.0979    3.6222 C   0  0  0  0  0  0  0  0  0  0  0  0
   11.3025   45.6361    1.5297 C   0  0  0  0  0  0  0  0  0  0  0  0
   12.5679   46.2129    1.6670 C   0  0  0  0  0  0  0  0  0  0  0  0
   13.4201   45.7949    2.6928 C   0  0  0  0  0  0  0  0  0  0  0  0
   14.8479   41.6163    8.2723 N   0  0  0  0  0  0  0  0  0  0  0  0
   15.8497   42.4307    7.9883 N   0  0  0  0  0  0  0  0  0  0  0  0
   15.5107   43.1812    6.9522 N   0  0  0  0  0  0  0  0  0  0  0  0
   13.4843   43.3057    5.5578 N   0  0  0  0  0  0  0  0  0  0  0  0
   13.8327   41.7929    7.4439 N   0  0  0  0  0  0  0  0  0  0  0  0
   15.0469   44.8746    4.8005 O   0  0  0  0  0  0  0  0  0  0  0  0
    9.6089   44.0803    2.2523 O   0  0  0  0  0  0  0  0  0  0  0  0
  1  2  1  0
  2  3  1  0
  3  4  1  0
  4 20  1  0
  5 22  1  0
  5 23  1  0
  6  7  1  0
  8  9  2  0
  9 26  1  0
 10 26  1  0
 10 11  1  0
 12 13  2  0
 14 15  2  0
 16 11  2  0
 17 18  2  0
 19  7  2  0
 20 21  1  0
 20 24  1  0
 23  6  1  0
  5 24  2  0
  6 25  2  0
  7  8  1  0
  9 17  1  0
 11 12  1  0
 13 14  1  0
 15 16  1  0
 18 19  1  0
 21 22  2  0
M  END
>  <rmsd>  (1) 
0.162405491

$$$$
