MolPort-007-967-229 ChemDiv-L497-0054 MCULE-7610445205 PubChem-46385453 ZINC000033129563 ZINC33129563
     RDKit          3D

 27 29  0  0  0  0  0  0  0  0999 V2000
   12.5852   46.5123   -1.0245 C   0  0  0  0  0  0  0  0  0  0  0  0
   12.8377   45.4002    1.1703 C   0  0  0  0  0  0  0  0  0  0  0  0
   13.5882   45.2455    2.3395 C   0  0  0  0  0  0  0  0  0  0  0  0
   13.1741   44.3602    3.3443 C   0  0  0  0  0  0  0  0  0  0  0  0
   11.9946   43.6255    3.1658 C   0  0  0  0  0  0  0  0  0  0  0  0
   11.2311   43.7704    1.9972 C   0  0  0  0  0  0  0  0  0  0  0  0
    9.5455   42.1258    2.7529 C   0  0  0  0  0  0  0  0  0  0  0  0
   11.6577   44.6579    1.0054 C   0  0  0  0  0  0  0  0  0  0  0  0
   13.9708   44.2006    4.5731 C   0  0  0  0  0  0  0  0  0  0  0  0
   14.3134   42.8497    6.7061 C   0  0  0  0  0  0  0  0  0  0  0  0
   15.6697   42.5181    6.6369 C   0  0  0  0  0  0  0  0  0  0  0  0
   16.5319   42.5035    5.4228 C   0  0  0  0  0  0  0  0  0  0  0  0
   14.6598   42.1194    8.8741 C   0  0  0  0  0  0  0  0  0  0  0  0
   13.7374   42.6082    7.9595 C   0  0  0  0  0  0  0  0  0  0  0  0
   13.4262   39.3316    9.8778 C   0  0  0  0  0  0  0  0  0  0  0  0
   12.4326   38.6160   10.7668 C   0  0  0  0  0  0  0  0  0  0  0  0
   13.1387   38.4746   12.0835 C   0  0  0  0  0  0  0  0  0  0  0  0
   14.1021   39.6347   12.1047 C   0  0  0  0  0  0  0  0  0  0  0  0
   13.2847   46.2933    0.1929 O   0  0  0  0  0  0  0  0  0  0  0  0
   10.0514   43.0485    1.7977 O   0  0  0  0  0  0  0  0  0  0  0  0
   15.0198   44.8818    4.7350 O   0  0  0  0  0  0  0  0  0  0  0  0
   12.9163   42.1331   10.8857 O   0  0  0  0  0  0  0  0  0  0  0  0
   15.2886   42.3693   11.4393 O   0  0  0  0  0  0  0  0  0  0  0  0
   13.5230   43.3113    5.6039 N   0  0  0  0  0  0  0  0  0  0  0  0
   14.4401   39.9589   10.7231 N   0  0  0  0  0  0  0  0  0  0  0  0
   16.1598   41.9450    8.1377 S   0  0  0  0  0  0  0  0  0  0  0  0
   14.3070   41.6794   10.5337 S   0  0  0  0  0  0  0  0  0  0  0  0
  1 19  1  0
  2 19  1  0
  3  4  2  0
  4  9  1  0
  5  6  2  0
  6 20  1  0
  7 20  1  0
  8  2  2  0
  9 24  1  0
 11 26  1  0
 12 11  1  0
 13 26  1  0
 14 10  1  0
 15 25  1  0
 15 16  1  0
 16 17  1  0
 17 18  1  0
 18 25  1  0
 24 10  1  0
 27 13  1  0
 27 25  1  0
  2  3  1  0
  4  5  1  0
  6  8  1  0
  9 21  2  0
 10 11  2  0
 13 14  2  0
 27 22  2  0
 27 23  2  0
M  END
>  <rmsd>  (1) 
0.247921661

$$$$
