MolPort-047-015-259 MCULE-1510657617 PubChem-155985150
     RDKit          3D

 21 23  0  0  0  0  0  0  0  0999 V2000
   14.1858   42.7195    6.6460 C   0  0  0  0  0  0  0  0  0  0  0  0
   16.1471   42.6404    7.9693 C   0  0  0  0  0  0  0  0  0  0  0  0
   15.5954   41.6242    8.7459 C   0  0  0  0  0  0  0  0  0  0  0  0
   14.3085   41.1719    8.4351 C   0  0  0  0  0  0  0  0  0  0  0  0
   13.6602   40.0831    9.2293 C   0  0  2  0  0  0  0  0  0  0  0  0
   13.4386   40.5244   10.6807 C   0  0  0  0  0  0  0  0  0  0  0  0
   13.1261   39.3282   11.5800 C   0  0  0  0  0  0  0  0  0  0  0  0
   14.1110   38.1639   11.3741 C   0  0  0  0  0  0  0  0  0  0  0  0
   15.9932   37.2903   10.1896 C   0  0  0  0  0  0  0  0  0  0  0  0
   16.7076   36.9125   11.4807 C   0  0  0  0  0  0  0  0  0  0  0  0
   17.0671   37.5503    9.1410 C   0  0  0  0  0  0  0  0  0  0  0  0
   14.4566   38.7729    9.1253 C   0  0  0  0  0  0  0  0  0  0  0  0
   13.8858   44.3180    4.6883 C   0  0  0  0  0  0  0  0  0  0  0  0
   14.1601   46.0414    2.9540 C   0  0  0  0  0  0  0  0  0  0  0  0
   15.2434   45.8767    3.8184 C   0  0  0  0  0  0  0  0  0  0  0  0
   15.4372   43.1678    6.9386 N   0  0  0  0  0  0  0  0  0  0  0  0
   15.1510   38.4787   10.3836 N   0  0  0  0  0  0  0  0  0  0  0  0
   13.6339   41.7283    7.3948 N   0  0  0  0  0  0  0  0  0  0  0  0
   13.4369   43.2751    5.5597 N   0  0  0  0  0  0  0  0  0  0  0  0
   15.0875   44.9224    4.7761 N   0  0  0  0  0  0  0  0  0  0  0  0
   12.9772   44.9387    3.4292 S   0  0  0  0  0  0  0  0  0  0  0  0
  1 19  1  0
  1 18  2  0
  2 16  2  0
  3  4  2  0
  5  4  1  6
  5  6  1  0
  6  7  1  0
  7  8  1  0
  8 17  1  0
  9 17  1  0
  9 10  1  0
  9 11  1  0
 12 17  1  0
 12  5  1  0
 13 21  1  0
 14 21  1  0
 15 20  1  0
 19 13  1  0
  1 16  1  0
  2  3  1  0
  4 18  1  0
 13 20  2  0
 14 15  2  0
M  END
>  <rmsd>  (1) 
0.248858899

$$$$
