MolPort-002-455-729 CHEMBL1475516 CSC026739902 CSSS00026739902 MCULE-9128102949 PubChem-2134008 Z57477982 ZINC02685901
     RDKit          3D

 26 27  0  0  0  0  0  0  0  0999 V2000
   12.7662   39.2215   11.8043 C   0  0  0  0  0  0  0  0  0  0  0  0
   13.9176   38.9154   10.8696 C   0  0  0  0  0  0  0  0  0  0  0  0
   15.0040   40.6833    9.5427 C   0  0  0  0  0  0  0  0  0  0  0  0
   14.9495   41.6378    8.4166 C   0  0  0  0  0  0  0  0  0  0  0  0
   15.9338   42.5363    8.0213 C   0  0  0  0  0  0  0  0  0  0  0  0
   17.2651   42.7200    8.6645 C   0  0  0  0  0  0  0  0  0  0  0  0
   14.3015   42.8120    6.6604 C   0  0  0  0  0  0  0  0  0  0  0  0
   13.9017   44.3340    4.6669 C   0  0  0  0  0  0  0  0  0  0  0  0
   12.4609   46.1440    1.6875 C   0  0  0  0  0  0  0  0  0  0  0  0
   12.8378   47.1941    0.7087 C   0  0  0  0  0  0  0  0  0  0  0  0
   12.0872   47.2808   -0.4759 C   0  0  0  0  0  0  0  0  0  0  0  0
   12.3857   48.2335   -1.4512 C   0  0  0  0  0  0  0  0  0  0  0  0
   13.4421   49.1211   -1.2558 C   0  0  0  0  0  0  0  0  0  0  0  0
   14.1948   49.0588   -0.0831 C   0  0  0  0  0  0  0  0  0  0  0  0
   13.9063   48.1083    0.9024 C   0  0  0  0  0  0  0  0  0  0  0  0
   13.9016   41.8234    7.5332 C   0  0  0  0  0  0  0  0  0  0  0  0
   12.5922   41.1098    7.5110 C   0  0  0  0  0  0  0  0  0  0  0  0
   13.9167   39.8446    9.7962 O   0  0  0  0  0  0  0  0  0  0  0  0
   16.0303   40.6266   10.2740 O   0  0  0  0  0  0  0  0  0  0  0  0
   15.0330   44.8815    4.7656 O   0  0  0  0  0  0  0  0  0  0  0  0
   11.3381   45.5767    1.5886 O   0  0  0  0  0  0  0  0  0  0  0  0
   15.5418   43.2548    6.9495 N   0  0  0  0  0  0  0  0  0  0  0  0
   13.5014   43.3086    5.5812 N   0  0  0  0  0  0  0  0  0  0  0  0
   13.0034   44.7352    3.6351 N   0  0  0  0  0  0  0  0  0  0  0  0
   13.3577   45.7346    2.7197 N   0  0  0  0  0  0  0  0  0  0  0  0
   14.8890   48.1663    2.3598 Cl  0  0  0  0  0  0  0  0  0  0  0  0
  1  2  1  0
  2 18  1  0
  3 18  1  0
  3  4  1  0
  5 22  1  0
  6  5  1  0
  7 23  1  0
  8 24  1  0
  9 10  1  0
 11 12  2  0
 13 14  2  0
 15 26  1  0
 15 10  2  0
 16  4  1  0
 17 16  1  0
 22  7  1  0
 23  8  1  0
 24 25  1  0
 25  9  1  0
  3 19  2  0
  4  5  2  0
  7 16  2  0
  8 20  2  0
  9 21  2  0
 10 11  1  0
 12 13  1  0
 14 15  1  0
M  END
>  <rmsd>  (1) 
0.205933064

$$$$
