MolPort-007-723-578 8588081 CHEMBL1705810 ChemDiv-E157-6412 MCULE-4936432176 PubChem-16017475 ZINC000008588081 ZINC08588081
     RDKit          3D

 29 31  0  0  0  0  0  0  0  0999 V2000
    8.4321   43.2169    0.3492 C   0  0  0  0  0  0  0  0  0  0  0  0
    8.7380   44.4187    1.2183 C   0  0  0  0  0  0  0  0  0  0  0  0
   10.9146   44.6510    2.3713 C   0  0  0  0  0  0  0  0  0  0  0  0
   11.3413   45.6702    1.5053 C   0  0  0  0  0  0  0  0  0  0  0  0
   12.6005   46.2520    1.6696 C   0  0  0  0  0  0  0  0  0  0  0  0
   13.4406   45.8197    2.6987 C   0  0  0  0  0  0  0  0  0  0  0  0
   13.0275   44.8026    3.5712 C   0  0  0  0  0  0  0  0  0  0  0  0
   11.7616   44.2241    3.3991 C   0  0  0  0  0  0  0  0  0  0  0  0
   13.9122   44.3468    4.6580 C   0  0  0  0  0  0  0  0  0  0  0  0
   14.2359   42.7864    6.6378 C   0  0  0  0  0  0  0  0  0  0  0  0
   15.1309   41.6387    8.5302 C   0  0  0  0  0  0  0  0  0  0  0  0
   13.5252   39.2641   11.2384 C   0  0  0  0  0  0  0  0  0  0  0  0
   13.5200   41.7623   11.5406 C   0  0  0  0  0  0  0  0  0  0  0  0
   12.3586   41.6801   12.3279 C   0  0  0  0  0  0  0  0  0  0  0  0
   11.7874   42.8312   12.8778 C   0  0  0  0  0  0  0  0  0  0  0  0
   12.3711   44.0789   12.6473 C   0  0  0  0  0  0  0  0  0  0  0  0
   11.7639   45.3030   13.2312 C   0  0  0  0  0  0  0  0  0  0  0  0
   13.5260   44.1756   11.8678 C   0  0  0  0  0  0  0  0  0  0  0  0
   14.0963   43.0242   11.3186 C   0  0  0  0  0  0  0  0  0  0  0  0
    9.6612   44.0480    2.2332 O   0  0  0  0  0  0  0  0  0  0  0  0
   15.0508   44.8703    4.8013 O   0  0  0  0  0  0  0  0  0  0  0  0
   16.6484   41.2455   10.6902 O   0  0  0  0  0  0  0  0  0  0  0  0
   15.8737   39.2721    9.4681 O   0  0  0  0  0  0  0  0  0  0  0  0
   13.4731   43.3116    5.5474 N   0  0  0  0  0  0  0  0  0  0  0  0
   15.4790   43.2018    6.9678 N   0  0  0  0  0  0  0  0  0  0  0  0
   15.9769   42.5616    8.0239 N   0  0  0  0  0  0  0  0  0  0  0  0
   14.1043   40.5735   10.9707 N   0  0  0  0  0  0  0  0  0  0  0  0
   13.6853   41.5756    7.6679 S   0  0  0  0  0  0  0  0  0  0  0  0
   15.4955   40.6516    9.9306 S   0  0  0  0  0  0  0  0  0  0  0  0
  1  2  1  0
  2 20  1  0
  3 20  1  0
  4  5  2  0
  6  7  2  0
  7  9  1  0
  8  3  2  0
  9 24  1  0
 10 28  1  0
 11 28  1  0
 12 27  1  0
 14 15  2  0
 16 18  2  0
 17 16  1  0
 19 13  2  0
 24 10  1  0
 25 26  1  0
 27 13  1  0
 29 11  1  0
 29 27  1  0
  3  4  1  0
  5  6  1  0
  7  8  1  0
  9 21  2  0
 10 25  2  0
 11 26  2  0
 13 14  1  0
 15 16  1  0
 18 19  1  0
 29 22  2  0
 29 23  2  0
M  END
>  <rmsd>  (1) 
0.200949311

$$$$
