MolPort-020-286-832 MCULE-8425089913 PubChem-110260869
     RDKit          3D

 33 36  0  0  0  0  0  0  0  0999 V2000
   11.3836   37.8609    9.7897 C   0  0  0  0  0  0  0  0  0  0  0  0
   12.4306   38.6023   10.5495 C   0  0  0  0  0  0  0  0  0  0  0  0
   12.0902   39.5681   11.5072 C   0  0  0  0  0  0  0  0  0  0  0  0
   10.6560   39.8494   11.8736 C   0  0  0  0  0  0  0  0  0  0  0  0
   10.4638   41.3134   12.2614 C   0  0  0  0  0  0  0  0  0  0  0  0
   11.4715   41.7010   13.2970 C   0  0  0  0  0  0  0  0  0  0  0  0
   13.1293   40.2187   12.1958 C   0  0  0  0  0  0  0  0  0  0  0  0
   14.7310   38.9716   10.9735 C   0  0  0  0  0  0  0  0  0  0  0  0
   16.1633   38.6832   10.6222 C   0  0  2  0  0  0  0  0  0  0  0  0
   17.1018   38.6475   11.8042 C   0  0  0  0  0  0  0  0  0  0  0  0
   18.4547   38.8939   11.1834 C   0  0  0  0  0  0  0  0  0  0  0  0
   18.1819   39.4161    9.7769 C   0  0  0  0  0  0  0  0  0  0  0  0
   16.4461   40.9731    9.8740 C   0  0  0  0  0  0  0  0  0  0  0  0
   15.6838   41.5739    8.7418 C   0  0  0  0  0  0  0  0  0  0  0  0
   16.2603   42.5989    7.9870 C   0  0  0  0  0  0  0  0  0  0  0  0
   15.5466   43.1791    6.9344 C   0  0  0  0  0  0  0  0  0  0  0  0
   14.2481   42.7414    6.6306 C   0  0  0  0  0  0  0  0  0  0  0  0
   13.6745   41.7191    7.3944 C   0  0  0  0  0  0  0  0  0  0  0  0
   14.3871   41.1381    8.4468 C   0  0  0  0  0  0  0  0  0  0  0  0
   13.9016   44.3600    4.6736 C   0  0  0  0  0  0  0  0  0  0  0  0
   12.9718   44.8284    3.6137 C   0  0  0  0  0  0  0  0  0  0  0  0
   13.8623   41.7509   14.0609 C   0  0  0  0  0  0  0  0  0  0  0  0
   14.3032   40.7113   15.0861 C   0  0  0  0  0  0  0  0  0  0  0  0
   13.2369   40.4847   16.1449 C   0  0  0  0  0  0  0  0  0  0  0  0
   13.9022   40.0758   17.4418 C   0  0  0  0  0  0  0  0  0  0  0  0
   12.2938   39.3811   15.7062 C   0  0  0  0  0  0  0  0  0  0  0  0
   11.1281   42.4423   14.2561 O   0  0  0  0  0  0  0  0  0  0  0  0
   15.0386   44.8913    4.7762 O   0  0  0  0  0  0  0  0  0  0  0  0
   12.8211   41.2204   13.1836 N   0  0  0  0  0  0  0  0  0  0  0  0
   14.4217   39.9089   11.9091 N   0  0  0  0  0  0  0  0  0  0  0  0
   13.7385   38.3349   10.2993 N   0  0  0  0  0  0  0  0  0  0  0  0
   16.7407   39.5649    9.6002 N   0  0  0  0  0  0  0  0  0  0  0  0
   13.4855   43.3122    5.5585 N   0  0  0  0  0  0  0  0  0  0  0  0
  1  2  1  0
  2 31  2  0
  4  3  1  0
  4  5  1  0
  5  6  1  0
  6 29  1  0
  7  3  2  0
  8 30  2  0
  9  8  1  1
  9 10  1  0
  9 32  1  0
 10 11  1  0
 11 12  1  0
 12 32  1  0
 13 32  1  0
 13 14  1  0
 15 16  2  0
 17 18  2  0
 17 33  1  0
 19 14  2  0
 21 20  1  0
 22 29  1  0
 22 23  1  0
 23 24  1  0
 24 25  1  0
 24 26  1  0
 29  7  1  0
 33 20  1  0
  2  3  1  0
  6 27  2  0
  7 30  1  0
  8 31  1  0
 14 15  1  0
 16 17  1  0
 18 19  1  0
 20 28  2  0
M  END
>  <rmsd>  (1) 
0.232597828

$$$$
