MolPort-006-609-926 ChemDiv-V020-0066 MCULE-2014378284 PubChem-46070010 ZINC000034735415 ZINC34735415
     RDKit          3D

 34 37  0  0  0  0  0  0  0  0999 V2000
    8.2978   44.4879    5.9993 C   0  0  0  0  0  0  0  0  0  0  0  0
    9.8891   46.2724    5.3661 C   0  0  0  0  0  0  0  0  0  0  0  0
   10.7891   45.3587    4.7936 C   0  0  0  0  0  0  0  0  0  0  0  0
   11.9826   45.8087    4.2186 C   0  0  0  0  0  0  0  0  0  0  0  0
   12.9441   44.8307    3.6340 C   0  0  0  0  0  0  0  0  0  0  0  0
   13.8977   44.3521    4.6746 C   0  0  0  0  0  0  0  0  0  0  0  0
   14.2663   42.7493    6.6410 C   0  0  0  0  0  0  0  0  0  0  0  0
   13.6961   41.7434    7.4272 C   0  0  0  0  0  0  0  0  0  0  0  0
   14.4093   41.1544    8.4848 C   0  0  0  0  0  0  0  0  0  0  0  0
   15.7120   41.6082    8.7510 C   0  0  0  0  0  0  0  0  0  0  0  0
   16.2903   42.6129    7.9722 C   0  0  0  0  0  0  0  0  0  0  0  0
   15.5701   43.1810    6.9201 C   0  0  0  0  0  0  0  0  0  0  0  0
   14.3894   39.8431   10.6224 C   0  0  0  0  0  0  0  0  0  0  0  0
   13.2797   39.6074   11.6327 C   0  0  0  0  0  0  0  0  0  0  0  0
   12.4575   38.3868   11.2285 C   0  0  0  0  0  0  0  0  0  0  0  0
   11.0405   37.4796    9.3812 C   0  0  0  0  0  0  0  0  0  0  0  0
   11.6283   36.3373    8.6073 C   0  0  0  0  0  0  0  0  0  0  0  0
   12.1701   35.2039    9.2492 C   0  0  0  0  0  0  0  0  0  0  0  0
   12.7201   34.1700    8.4839 C   0  0  0  0  0  0  0  0  0  0  0  0
   12.7351   34.2546    7.0894 C   0  0  0  0  0  0  0  0  0  0  0  0
   12.1975   35.3747    6.4523 C   0  0  0  0  0  0  0  0  0  0  0  0
   11.6463   36.4113    7.2093 C   0  0  0  0  0  0  0  0  0  0  0  0
   12.1625   35.0702   10.6834 C   0  0  0  0  0  0  0  0  0  0  0  0
   12.7024   39.3125    8.8798 C   0  0  0  0  0  0  0  0  0  0  0  0
   12.2860   47.1742    4.2221 C   0  0  0  0  0  0  0  0  0  0  0  0
   11.3935   48.0875    4.7901 C   0  0  0  0  0  0  0  0  0  0  0  0
   10.1986   47.6369    5.3593 C   0  0  0  0  0  0  0  0  0  0  0  0
    8.6884   45.8533    5.9457 O   0  0  0  0  0  0  0  0  0  0  0  0
   15.0325   44.8907    4.7669 O   0  0  0  0  0  0  0  0  0  0  0  0
   12.2795   39.3773    7.6932 O   0  0  0  0  0  0  0  0  0  0  0  0
   13.4928   43.3100    5.5719 N   0  0  0  0  0  0  0  0  0  0  0  0
   13.8114   40.1297    9.3105 N   0  0  0  0  0  0  0  0  0  0  0  0
   12.0815   38.4066    9.8129 N   0  0  0  0  0  0  0  0  0  0  0  0
   12.1564   34.9618   11.8355 N   0  0  0  0  0  0  0  0  0  0  0  0
  1 28  1  0
  2 28  1  0
  3  4  2  0
  5  4  1  0
  5  6  1  0
  6 31  1  0
  8  9  2  0
  9 32  1  0
 10 11  2  0
 12  7  2  0
 13 32  1  0
 13 14  1  0
 14 15  1  0
 15 33  1  0
 16 33  1  0
 16 17  1  0
 18 19  2  0
 18 23  1  0
 20 21  2  0
 22 17  2  0
 24 32  1  0
 25 26  2  0
 27  2  2  0
 31  7  1  0
 33 24  1  0
  2  3  1  0
  4 25  1  0
  6 29  2  0
  7  8  1  0
  9 10  1  0
 11 12  1  0
 17 18  1  0
 19 20  1  0
 21 22  1  0
 24 30  2  0
 26 27  1  0
 23 34  3  0
M  END
>  <rmsd>  (1) 
0.244469389

$$$$
