MolPort-002-787-956 36617993 CSSS00133001352 MCULE-7283028708 PubChem-44824205 ZINC000036617993
     RDKit          3D

 30 33  0  0  0  0  0  0  0  0999 V2000
   12.0695   46.5428    2.1633 C   0  0  0  0  0  0  0  0  0  0  0  0
   13.6998   47.3439    3.3293 C   0  0  0  0  0  0  0  0  0  0  0  0
   14.7664   47.6004    4.3342 C   0  0  0  0  0  0  0  0  0  0  0  0
   12.9640   46.1826    3.1331 C   0  0  0  0  0  0  0  0  0  0  0  0
   12.9331   44.8926    3.6951 C   0  0  0  0  0  0  0  0  0  0  0  0
   13.8812   44.3957    4.7120 C   0  0  0  0  0  0  0  0  0  0  0  0
   14.2996   42.7117    6.5827 C   0  0  0  0  0  0  0  0  0  0  0  0
   14.7634   40.3464    9.1821 C   0  0  0  0  0  0  0  0  0  0  0  0
   14.1093   40.8996   10.4371 C   0  0  0  0  0  0  0  0  0  0  0  0
   14.0059   39.8211   11.5002 C   0  0  0  0  0  0  0  0  0  0  0  0
   12.8868   38.8529   11.1654 C   0  0  0  0  0  0  0  0  0  0  0  0
   15.8853   42.2214    7.9617 C   0  0  0  0  0  0  0  0  0  0  0  0
   15.5854   43.1024    6.9399 C   0  0  0  0  0  0  0  0  0  0  0  0
   17.1640   42.2001    8.7263 C   0  0  0  0  0  0  0  0  0  0  0  0
   11.9326   44.0235    3.2153 C   0  0  0  0  0  0  0  0  0  0  0  0
   11.0282   44.4409    2.2107 C   0  0  0  0  0  0  0  0  0  0  0  0
    9.9921   43.5231    1.7149 C   0  0  0  0  0  0  0  0  0  0  0  0
    9.7851   42.2201    2.1461 C   0  0  0  0  0  0  0  0  0  0  0  0
    8.7077   41.7869    1.3900 C   0  0  0  0  0  0  0  0  0  0  0  0
    7.2233   42.7514   -0.3541 C   0  0  0  0  0  0  0  0  0  0  0  0
    5.9787   43.3136    0.3052 C   0  0  0  0  0  0  0  0  0  0  0  0
   12.2603   47.7838    1.7999 O   0  0  0  0  0  0  0  0  0  0  0  0
   15.0372   44.8862    4.8007 O   0  0  0  0  0  0  0  0  0  0  0  0
   13.2398   48.3015    2.4895 N   0  0  0  0  0  0  0  0  0  0  0  0
   13.4926   43.3053    5.5592 N   0  0  0  0  0  0  0  0  0  0  0  0
   13.8701   41.6821    7.3360 N   0  0  0  0  0  0  0  0  0  0  0  0
   14.8502   41.3872    8.1694 N   0  0  0  0  0  0  0  0  0  0  0  0
   11.1155   45.7034    1.6950 N   0  0  0  0  0  0  0  0  0  0  0  0
    8.3378   42.7921    0.5766 N   0  0  0  0  0  0  0  0  0  0  0  0
    9.1001   43.8526    0.7646 N   0  0  0  0  0  0  0  0  0  0  0  0
  1 22  1  0
  1 28  2  0
  2  4  1  0
  3  2  1  0
  4  5  2  0
  5  6  1  0
  6 25  1  0
  8 27  1  0
  8  9  1  0
  9 10  1  0
 10 11  1  0
 13  7  1  0
 14 12  1  0
 15 16  2  0
 16 17  1  0
 17 18  1  0
 19 29  1  0
 20 29  1  0
 20 21  1  0
 22 24  1  0
 25  7  1  0
 27 26  1  0
 27 12  1  0
 29 30  1  0
  2 24  2  0
  4  1  1  0
  5 15  1  0
  6 23  2  0
  7 26  2  0
 12 13  2  0
 16 28  1  0
 17 30  2  0
 18 19  2  0
M  END
>  <rmsd>  (1) 
0.150939867

$$$$
