MolPort-003-082-986 CSSS03437203362 MCULE-5949923303 PubChem-16817414
     RDKit          3D

 27 29  0  0  0  0  0  0  0  0999 V2000
   13.7211   38.6774   11.3348 C   0  0  0  0  0  0  0  0  0  0  0  0
   13.1464   40.0513   11.6089 C   0  0  0  0  0  0  0  0  0  0  0  0
   10.7039   40.5099   11.2630 C   0  0  0  0  0  0  0  0  0  0  0  0
    9.4319   40.3665   11.8304 C   0  0  0  0  0  0  0  0  0  0  0  0
    8.3037   40.9072   11.2130 C   0  0  0  0  0  0  0  0  0  0  0  0
    8.4342   41.6009   10.0120 C   0  0  0  0  0  0  0  0  0  0  0  0
    9.6924   41.7506    9.4291 C   0  0  0  0  0  0  0  0  0  0  0  0
   10.8393   41.2132   10.0358 C   0  0  0  0  0  0  0  0  0  0  0  0
   12.4295   42.0391    8.1877 C   0  0  0  0  0  0  0  0  0  0  0  0
   13.8203   42.0621    7.7143 C   0  0  0  0  0  0  0  0  0  0  0  0
   14.2961   42.6624    6.5512 C   0  0  0  0  0  0  0  0  0  0  0  0
   15.6501   42.3933    6.5252 C   0  0  0  0  0  0  0  0  0  0  0  0
   16.6434   42.6670    5.5859 C   0  0  0  0  0  0  0  0  0  0  0  0
   17.9457   42.2147    5.8633 C   0  0  0  0  0  0  0  0  0  0  0  0
   18.2196   41.4988    7.0486 C   0  0  0  0  0  0  0  0  0  0  0  0
   17.1932   41.2175    7.9680 C   0  0  0  0  0  0  0  0  0  0  0  0
   15.9130   41.6767    7.6671 C   0  0  0  0  0  0  0  0  0  0  0  0
   13.9502   44.2928    4.6179 C   0  0  0  0  0  0  0  0  0  0  0  0
   13.1004   44.6616    3.4492 C   0  0  2  0  0  0  0  0  0  0  0  0
   11.8000   45.2854    3.9172 C   0  0  0  0  0  0  0  0  0  0  0  0
   11.7757   39.9314   11.9626 O   0  0  0  0  0  0  0  0  0  0  0  0
   11.5253   42.6103    7.5209 O   0  0  0  0  0  0  0  0  0  0  0  0
   14.8176   41.4900    8.3658 O   0  0  0  0  0  0  0  0  0  0  0  0
   15.0359   44.9028    4.8026 O   0  0  0  0  0  0  0  0  0  0  0  0
   12.1253   41.3614    9.4142 N   0  0  0  0  0  0  0  0  0  0  0  0
   13.4954   43.3055    5.5508 N   0  0  0  0  0  0  0  0  0  0  0  0
   12.7594   43.2272    2.4507 Cl  0  0  0  0  0  0  0  0  0  0  0  0
  1  2  1  0
  2 21  1  0
  3 21  1  0
  4  5  2  0
  6  7  2  0
  8 25  1  0
  8  3  2  0
  9 10  1  0
 10 23  1  0
 11 12  1  0
 11 26  1  0
 13 14  2  0
 15 16  2  0
 17 23  1  0
 17 12  2  0
 19 18  1  0
 19 20  1  1
 19 27  1  0
 25  9  1  0
 26 18  1  0
  3  4  1  0
  5  6  1  0
  7  8  1  0
  9 22  2  0
 10 11  2  0
 12 13  1  0
 14 15  1  0
 16 17  1  0
 18 24  2  0
M  END
>  <rmsd>  (1) 
0.200472757

$$$$
