MolPort-007-657-051 CSSS00025804467 ChemDiv-C685-0468 MCULE-4330609593 PubChem-20875034
     RDKit          3D

 26 28  0  0  0  0  0  0  0  0999 V2000
   13.1439   37.9674    9.6765 C   0  0  0  0  0  0  0  0  0  0  0  0
   12.5762   38.4731   10.9913 C   0  0  0  0  0  0  0  0  0  0  0  0
   13.1865   39.8188   11.3445 C   0  0  0  0  0  0  0  0  0  0  0  0
   14.6232   39.6477   11.8128 C   0  0  0  0  0  0  0  0  0  0  0  0
   15.0384   41.6468   13.2548 C   0  0  0  0  0  0  0  0  0  0  0  0
   16.1921   41.4532   11.0384 C   0  0  0  0  0  0  0  0  0  0  0  0
   16.4255   40.7433    9.7411 C   0  0  0  0  0  0  0  0  0  0  0  0
   15.6705   41.4042    8.6381 C   0  0  0  0  0  0  0  0  0  0  0  0
   16.2384   42.4779    7.9452 C   0  0  0  0  0  0  0  0  0  0  0  0
   15.5237   43.1086    6.9241 C   0  0  0  0  0  0  0  0  0  0  0  0
   14.2352   42.6735    6.5859 C   0  0  0  0  0  0  0  0  0  0  0  0
   13.8691   44.4083    4.7289 C   0  0  0  0  0  0  0  0  0  0  0  0
   15.3131   45.9556    3.8116 C   0  0  1  0  0  0  0  0  0  0  0  0
   16.7162   45.8035    3.2399 C   0  0  0  0  0  0  0  0  0  0  0  0
   14.7776   44.8825    1.6034 C   0  0  0  0  0  0  0  0  0  0  0  0
   14.2626   45.8073    2.6990 C   0  0  1  0  0  0  0  0  0  0  0  0
   13.6676   41.6068    7.2898 C   0  0  0  0  0  0  0  0  0  0  0  0
   14.3791   40.9778    8.3144 C   0  0  0  0  0  0  0  0  0  0  0  0
   15.2459   40.9501   11.9956 N   0  0  0  0  0  0  0  0  0  0  0  0
   13.4700   43.3013    5.5476 N   0  0  0  0  0  0  0  0  0  0  0  0
   15.0540   44.9127    4.7844 N   0  0  0  0  0  0  0  0  0  0  0  0
   16.8182   42.5250   11.2652 O   0  0  0  0  0  0  0  0  0  0  0  0
   17.0469   43.4646    1.9236 O   0  0  0  0  0  0  0  0  0  0  0  0
   17.1799   45.5435    0.5797 O   0  0  0  0  0  0  0  0  0  0  0  0
   16.5319   44.8672    1.7577 S   0  0  0  0  0  0  0  0  0  0  0  0
   12.7964   45.0471    3.4571 S   0  0  0  0  0  0  0  0  0  0  0  0
  1  2  1  0
  2  3  1  0
  3  4  1  0
  4 19  1  0
  5 19  1  0
  7  6  1  0
  7  8  1  0
  9 10  2  0
 11 20  1  0
 11 17  2  0
 12 26  1  0
 13 21  1  0
 13 14  1  6
 14 25  1  0
 16 15  1  6
 16 26  1  0
 16 13  1  0
 18  8  2  0
 19  6  1  0
 20 12  1  0
 25 15  1  0
  6 22  2  0
  8  9  1  0
 10 11  1  0
 12 21  2  0
 17 18  1  0
 25 23  2  0
 25 24  2  0
M  END
>  <rmsd>  (1) 
0.238967761

$$$$
