Molport-046-951-093 MCULE-4515069063 MCULE-8858451238 PubChem-110089564
     RDKit          3D

 20 22  0  0  0  0  0  0  0  0999 V2000
   11.5946   44.1219    3.5329 C   0  0  0  0  0  0  0  0  0  0  0  0
   12.9435   44.7400    3.6720 C   0  0  0  0  0  0  0  0  0  0  0  0
   13.8412   44.3240    4.6696 C   0  0  0  0  0  0  0  0  0  0  0  0
   15.4479   45.9088    3.9067 C   0  0  0  0  0  0  0  0  0  0  0  0
   14.5806   46.3452    2.9050 C   0  0  0  0  0  0  0  0  0  0  0  0
   13.3224   45.7545    2.7908 C   0  0  0  0  0  0  0  0  0  0  0  0
   14.2362   42.7285    6.6543 C   0  0  0  0  0  0  0  0  0  0  0  0
   15.5310   43.1814    6.9413 C   0  0  0  0  0  0  0  0  0  0  0  0
   16.2435   42.6112    7.9961 C   0  0  0  0  0  0  0  0  0  0  0  0
   15.6635   41.5962    8.7561 C   0  0  0  0  0  0  0  0  0  0  0  0
   14.3672   41.1628    8.4465 C   0  0  0  0  0  0  0  0  0  0  0  0
   13.7057   40.0774    9.2349 C   0  0  2  0  0  0  0  0  0  0  0  0
   13.5400   40.4849   10.6988 C   0  0  0  0  0  0  0  0  0  0  0  0
   12.9431   39.3345   11.5026 C   0  0  0  0  0  0  0  0  0  0  0  0
   13.7843   38.0768   11.2976 C   0  0  0  0  0  0  0  0  0  0  0  0
   14.4920   38.7679    9.1379 C   0  0  0  0  0  0  0  0  0  0  0  0
   15.0642   44.9196    4.7572 N   0  0  0  0  0  0  0  0  0  0  0  0
   13.4603   43.2806    5.5811 N   0  0  0  0  0  0  0  0  0  0  0  0
   13.6940   41.7363    7.4121 N   0  0  0  0  0  0  0  0  0  0  0  0
   13.8044   37.7137    9.8816 N   0  0  0  0  0  0  0  0  0  0  0  0
  1  2  1  0
  3 17  2  0
  3 18  1  0
  4  5  2  0
  6  2  2  0
  7 19  2  0
  8  9  2  0
 10 11  2  0
 12 11  1  6
 12 13  1  0
 13 14  1  0
 14 15  1  0
 15 20  1  0
 16 20  1  0
 16 12  1  0
 18  7  1  0
  2  3  1  0
  4 17  1  0
  5  6  1  0
  7  8  1  0
  9 10  1  0
 11 19  1  0
M  END
>  <rmsd>  (1) 
0.246039927

$$$$
