MolPort-003-130-875 4496121 CHEMBL1334056 CSSS03437124622 ChemDiv-G856-7157 MCULE-8146897159 PubChem-7254204 ZINC000004496121
     RDKit          3D

 26 28  0  0  0  0  0  0  0  0999 V2000
   14.3710   42.6828    6.5814 C   0  0  0  0  0  0  0  0  0  0  0  0
   13.9423   44.2502    4.6206 C   0  0  0  0  0  0  0  0  0  0  0  0
   13.1291   44.4154    3.3846 C   0  0  0  0  0  0  0  0  0  0  0  0
   13.8345   41.6362    2.9235 C   0  0  0  0  0  0  0  0  0  0  0  0
   15.1191   41.1789    3.2410 C   0  0  0  0  0  0  0  0  0  0  0  0
   15.2854   39.9661    3.9156 C   0  0  0  0  0  0  0  0  0  0  0  0
   14.1672   39.2103    4.2795 C   0  0  0  0  0  0  0  0  0  0  0  0
   12.8831   39.6652    3.9650 C   0  0  0  0  0  0  0  0  0  0  0  0
   12.7165   40.8786    3.2906 C   0  0  0  0  0  0  0  0  0  0  0  0
   14.3435   37.9256    5.0049 C   0  0  0  0  0  0  0  0  0  0  0  0
   16.1637   41.7478    7.9314 C   0  0  0  0  0  0  0  0  0  0  0  0
   14.8933   41.2892    8.2482 C   0  0  0  0  0  0  0  0  0  0  0  0
   14.7125   40.3544    9.2720 C   0  0  0  0  0  0  0  0  0  0  0  0
   15.8527   39.8985    9.9669 C   0  0  0  0  0  0  0  0  0  0  0  0
   17.1350   40.3743    9.6345 C   0  0  0  0  0  0  0  0  0  0  0  0
   17.3012   41.3105    8.6032 C   0  0  0  0  0  0  0  0  0  0  0  0
   13.1569   38.9772   10.6323 C   0  0  0  0  0  0  0  0  0  0  0  0
   13.1685   39.6991   11.9667 C   0  0  0  0  0  0  0  0  0  0  0  0
   13.5261   43.2979    5.6043 N   0  0  0  0  0  0  0  0  0  0  0  0
   13.8896   41.8041    7.4923 N   0  0  0  0  0  0  0  0  0  0  0  0
   15.0056   44.9102    4.7606 O   0  0  0  0  0  0  0  0  0  0  0  0
   12.5655   43.1104    1.0998 O   0  0  0  0  0  0  0  0  0  0  0  0
   14.9120   43.6413    1.5311 O   0  0  0  0  0  0  0  0  0  0  0  0
   13.4261   39.8932    9.5768 O   0  0  0  0  0  0  0  0  0  0  0  0
   13.6204   43.2072    2.1656 S   0  0  0  0  0  0  0  0  0  0  0  0
   16.0598   42.8374    6.6609 S   0  0  0  0  0  0  0  0  0  0  0  0
  1 19  1  0
  1 26  1  0
  3  2  1  0
  3 25  1  0
  5  6  2  0
  7  8  2  0
  9  4  2  0
 10  7  1  0
 11 26  1  0
 12 13  2  0
 12 20  1  0
 13 24  1  0
 14 15  2  0
 16 11  2  0
 17 24  1  0
 17 18  1  0
 19  2  1  0
 25  4  1  0
  1 20  2  0
  2 21  2  0
  4  5  1  0
  6  7  1  0
  8  9  1  0
 11 12  1  0
 13 14  1  0
 15 16  1  0
 25 22  2  0
 25 23  2  0
M  END
>  <rmsd>  (1) 
0.244747981

$$$$
