MolPort-005-125-726 20119861 CSSS00159545606 PubChem-28642449 ZINC000020119861
     RDKit          3D

 31 34  0  0  0  0  0  0  0  0999 V2000
   17.7530   37.4550   11.0628 C   0  0  0  0  0  0  0  0  0  0  0  0
   16.7550   39.4889   12.0704 C   0  0  0  0  0  0  0  0  0  0  0  0
   15.6111   40.2839   12.3297 C   0  0  0  0  0  0  0  0  0  0  0  0
   14.2472   39.9393   11.8846 C   0  0  0  0  0  0  0  0  0  0  0  0
   13.9271   38.8268   11.2325 C   0  0  0  0  0  0  0  0  0  0  0  0
   12.5137   38.5598   10.7876 C   0  0  0  0  0  0  0  0  0  0  0  0
   13.0836   39.0197    8.4974 C   0  0  0  0  0  0  0  0  0  0  0  0
   12.6483   39.7070    7.2046 C   0  0  0  0  0  0  0  0  0  0  0  0
   12.4674   41.2114    7.4203 C   0  0  0  0  0  0  0  0  0  0  0  0
   11.5778   41.4944    8.6331 C   0  0  0  0  0  0  0  0  0  0  0  0
   12.0664   40.7230    9.8575 C   0  0  0  0  0  0  0  0  0  0  0  0
   15.7038   42.4996    8.2410 C   0  0  0  0  0  0  0  0  0  0  0  0
   15.4637   43.2637    7.1042 C   0  0  0  0  0  0  0  0  0  0  0  0
   14.2135   42.8407    6.6927 C   0  0  0  0  0  0  0  0  0  0  0  0
   13.9308   44.3185    4.6325 C   0  0  0  0  0  0  0  0  0  0  0  0
   13.0714   44.7074    3.5010 C   0  0  0  0  0  0  0  0  0  0  0  0
   13.4873   45.6868    2.5893 C   0  0  0  0  0  0  0  0  0  0  0  0
   11.4709   45.4617    1.3560 C   0  0  0  0  0  0  0  0  0  0  0  0
   11.0150   44.4812    2.2390 C   0  0  0  0  0  0  0  0  0  0  0  0
   11.8212   44.1054    3.3144 C   0  0  0  0  0  0  0  0  0  0  0  0
   15.7552   41.4826   13.0381 C   0  0  0  0  0  0  0  0  0  0  0  0
   17.0072   41.8984   13.4940 C   0  0  0  0  0  0  0  0  0  0  0  0
   18.1344   41.1170   13.2437 C   0  0  0  0  0  0  0  0  0  0  0  0
   18.0092   39.9207   12.5363 C   0  0  0  0  0  0  0  0  0  0  0  0
   16.6407   38.2896   11.3567 O   0  0  0  0  0  0  0  0  0  0  0  0
   15.0541   44.8712    4.7855 O   0  0  0  0  0  0  0  0  0  0  0  0
   12.1206   39.2866    9.5718 N   0  0  0  0  0  0  0  0  0  0  0  0
   13.7545   41.8979    7.5269 N   0  0  0  0  0  0  0  0  0  0  0  0
   14.6536   41.6838    8.4715 N   0  0  0  0  0  0  0  0  0  0  0  0
   13.4838   43.3136    5.5530 N   0  0  0  0  0  0  0  0  0  0  0  0
   12.6870   46.0394    1.5473 N   0  0  0  0  0  0  0  0  0  0  0  0
  1 25  1  0
  2 25  1  0
  3  4  1  0
  3 21  2  0
  6  5  1  0
  6 27  1  0
  7 27  1  0
  7  8  1  0
  8  9  1  0
  9 10  1  0
  9 28  1  0
 10 11  1  0
 11 27  1  0
 12 13  1  0
 14 30  1  0
 14 28  1  0
 15 16  1  0
 17 31  2  0
 18 19  2  0
 20 16  2  0
 22 23  2  0
 24  2  2  0
 28 29  1  0
 30 15  1  0
  2  3  1  0
  4  5  2  0
 12 29  2  0
 13 14  2  0
 15 26  2  0
 16 17  1  0
 18 31  1  0
 19 20  1  0
 21 22  1  0
 23 24  1  0
M  END
>  <rmsd>  (1) 
0.219435647

$$$$
