MolPort-003-001-172 6890889 CSSS00121593491 MCULE-1736763965 PubChem-3406918 ZINC000006890889 ZINC06890889
     RDKit          3D

 21 22  0  0  0  0  0  0  0  0999 V2000
   13.1871   38.6374   11.0283 C   0  0  0  0  0  0  0  0  0  0  0  0
   13.8286   39.9311   11.4938 C   0  0  0  0  0  0  0  0  0  0  0  0
   13.8154   40.9607   10.3782 C   0  0  0  0  0  0  0  0  0  0  0  0
   14.8783   40.6343    9.3423 C   0  0  0  0  0  0  0  0  0  0  0  0
   14.2657   42.7731    6.6311 C   0  0  0  0  0  0  0  0  0  0  0  0
   13.9075   44.3488    4.6705 C   0  0  0  0  0  0  0  0  0  0  0  0
   13.0072   44.8106    3.5993 C   0  0  0  0  0  0  0  0  0  0  0  0
   13.4086   45.8304    2.7255 C   0  0  0  0  0  0  0  0  0  0  0  0
   12.5578   46.2718    1.7078 C   0  0  0  0  0  0  0  0  0  0  0  0
   11.2880   45.6949    1.5513 C   0  0  0  0  0  0  0  0  0  0  0  0
    9.1481   45.6108    0.3084 C   0  0  0  0  0  0  0  0  0  0  0  0
   10.8862   44.6733    2.4270 C   0  0  0  0  0  0  0  0  0  0  0  0
   11.7397   44.2355    3.4424 C   0  0  0  0  0  0  0  0  0  0  0  0
   14.8492   41.6166    8.2723 N   0  0  0  0  0  0  0  0  0  0  0  0
   15.8498   42.4325    7.9887 N   0  0  0  0  0  0  0  0  0  0  0  0
   15.5103   43.1823    6.9524 N   0  0  0  0  0  0  0  0  0  0  0  0
   13.4839   43.3048    5.5573 N   0  0  0  0  0  0  0  0  0  0  0  0
   13.8342   41.7915    7.4433 N   0  0  0  0  0  0  0  0  0  0  0  0
   15.0467   44.8741    4.8025 O   0  0  0  0  0  0  0  0  0  0  0  0
   10.4461   46.1458    0.5286 O   0  0  0  0  0  0  0  0  0  0  0  0
   13.1032   47.5509    0.6380 Cl  0  0  0  0  0  0  0  0  0  0  0  0
  1  2  1  0
  2  3  1  0
  3  4  1  0
  4 14  1  0
  5 16  1  0
  5 17  1  0
  6  7  1  0
  8  9  2  0
  9 21  1  0
 10 20  1  0
 10 12  2  0
 11 20  1  0
 13  7  2  0
 14 15  1  0
 14 18  1  0
 17  6  1  0
  5 18  2  0
  6 19  2  0
  7  8  1  0
  9 10  1  0
 12 13  1  0
 15 16  2  0
M  END
>  <rmsd>  (1) 
0.164209768

$$$$
