MolPort-005-137-957 11949142 CHEMBL1879493 CSSS00159792005 PubChem-24793839 ZINC000011949142
     RDKit          3D

 31 34  0  0  0  0  0  0  0  0999 V2000
   15.1223   47.4784    1.8737 C   0  0  0  0  0  0  0  0  0  0  0  0
   13.4335   45.8273    2.6293 C   0  0  0  0  0  0  0  0  0  0  0  0
   13.0503   44.8093    3.5363 C   0  0  0  0  0  0  0  0  0  0  0  0
   11.7929   44.2028    3.3872 C   0  0  0  0  0  0  0  0  0  0  0  0
   10.9256   44.5889    2.3645 C   0  0  0  0  0  0  0  0  0  0  0  0
   11.3038   45.5907    1.4725 C   0  0  0  0  0  0  0  0  0  0  0  0
   12.5491   46.2056    1.6041 C   0  0  0  0  0  0  0  0  0  0  0  0
   13.9262   44.3549    4.6430 C   0  0  0  0  0  0  0  0  0  0  0  0
   14.2016   42.7790    6.6324 C   0  0  0  0  0  0  0  0  0  0  0  0
   15.4625   43.1603    7.0515 C   0  0  0  0  0  0  0  0  0  0  0  0
   15.6942   42.3468    8.1552 C   0  0  0  0  0  0  0  0  0  0  0  0
   12.4196   41.1746    7.3233 C   0  0  0  0  0  0  0  0  0  0  0  0
   11.4596   41.7104    8.3954 C   0  0  0  0  0  0  0  0  0  0  0  0
   11.6242   41.0381    9.7711 C   0  0  0  0  0  0  0  0  0  0  0  0
   12.4436   39.2234   11.0108 C   0  0  0  0  0  0  0  0  0  0  0  0
   13.7741   38.7470   11.4888 C   0  0  0  0  0  0  0  0  0  0  0  0
   14.7278   39.6143   11.8158 C   0  0  0  0  0  0  0  0  0  0  0  0
   16.0559   39.1970   12.2846 C   0  0  0  0  0  0  0  0  0  0  0  0
   16.4004   37.8422   12.4195 C   0  0  0  0  0  0  0  0  0  0  0  0
   17.6749   37.4812   12.8664 C   0  0  0  0  0  0  0  0  0  0  0  0
   18.6112   38.4703   13.1803 C   0  0  0  0  0  0  0  0  0  0  0  0
   18.2733   39.8201   13.0473 C   0  0  0  0  0  0  0  0  0  0  0  0
   16.9986   40.1814   12.6004 C   0  0  0  0  0  0  0  0  0  0  0  0
   12.2180   39.0197    8.6821 C   0  0  0  0  0  0  0  0  0  0  0  0
   12.5406   39.6422    7.3218 C   0  0  0  0  0  0  0  0  0  0  0  0
   14.6813   46.4515    2.7519 O   0  0  0  0  0  0  0  0  0  0  0  0
   15.0629   44.8728    4.8139 O   0  0  0  0  0  0  0  0  0  0  0  0
   13.4704   43.3173    5.5229 N   0  0  0  0  0  0  0  0  0  0  0  0
   14.6289   41.5439    8.3610 N   0  0  0  0  0  0  0  0  0  0  0  0
   13.7311   41.8096    7.4290 N   0  0  0  0  0  0  0  0  0  0  0  0
   12.5895   39.9381    9.7530 N   0  0  0  0  0  0  0  0  0  0  0  0
  1 26  1  0
  2 26  1  0
  3  4  2  0
  3  8  1  0
  5  6  2  0
  7  2  2  0
  8 28  1  0
 10 11  1  0
 12 30  1  0
 12 13  1  0
 13 14  1  0
 14 31  1  0
 15 31  1  0
 15 16  1  0
 17 18  1  0
 19 20  2  0
 21 22  2  0
 23 18  2  0
 24 31  1  0
 24 25  1  0
 25 12  1  0
 28  9  1  0
 30 29  1  0
 30  9  1  0
  2  3  1  0
  4  5  1  0
  6  7  1  0
  8 27  2  0
  9 10  2  0
 11 29  2  0
 16 17  2  0
 18 19  1  0
 20 21  1  0
 22 23  1  0
M  END
>  <rmsd>  (1) 
0.217693284

$$$$
