MolPort-006-609-941 ChemDiv-V028-4791 MCULE-8657905711 PubChem-46070025 ZINC000034735430 ZINC34735430
     RDKit          3D

 29 32  0  0  0  0  0  0  0  0999 V2000
   13.6959   34.4332    6.8142 F   0  0  0  0  0  0  0  0  0  0  0  0
   11.0891   35.6319   11.5174 F   0  0  0  0  0  0  0  0  0  0  0  0
   13.0505   34.7302    7.9674 C   0  0  0  0  0  0  0  0  0  0  0  0
   12.3715   35.9450    8.0950 C   0  0  0  0  0  0  0  0  0  0  0  0
   11.7050   36.2564    9.2851 C   0  0  0  0  0  0  0  0  0  0  0  0
   11.0021   37.5686    9.4136 C   0  0  0  0  0  0  0  0  0  0  0  0
   12.2079   38.7542   11.2728 C   0  0  0  0  0  0  0  0  0  0  0  0
   13.7085   38.8500   11.4787 C   0  0  0  0  0  0  0  0  0  0  0  0
   14.2469   40.0881   10.7607 C   0  0  0  0  0  0  0  0  0  0  0  0
   12.6841   39.3750    8.9061 C   0  0  0  0  0  0  0  0  0  0  0  0
   14.3823   41.2105    8.5300 C   0  0  0  0  0  0  0  0  0  0  0  0
   15.6857   41.6627    8.7955 C   0  0  0  0  0  0  0  0  0  0  0  0
   16.2726   42.6505    8.0014 C   0  0  0  0  0  0  0  0  0  0  0  0
   15.5609   43.2016    6.9344 C   0  0  0  0  0  0  0  0  0  0  0  0
   14.2566   42.7707    6.6557 C   0  0  0  0  0  0  0  0  0  0  0  0
   13.9058   44.3411    4.6553 C   0  0  0  0  0  0  0  0  0  0  0  0
   12.9905   44.7937    3.5586 C   0  0  0  0  0  0  0  0  0  0  0  0
   11.6245   45.1633    4.1050 C   0  0  0  0  0  0  0  0  0  0  0  0
   11.0107   43.9890    3.3679 C   0  0  0  0  0  0  0  0  0  0  0  0
   12.3774   43.6134    2.8286 C   0  0  0  0  0  0  0  0  0  0  0  0
   13.6775   41.7813    7.4565 C   0  0  0  0  0  0  0  0  0  0  0  0
   11.7265   35.3472   10.3543 C   0  0  0  0  0  0  0  0  0  0  0  0
   12.4054   34.1320   10.2226 C   0  0  0  0  0  0  0  0  0  0  0  0
   13.0673   33.8238    9.0308 C   0  0  0  0  0  0  0  0  0  0  0  0
   11.9316   38.6021    9.8521 N   0  0  0  0  0  0  0  0  0  0  0  0
   13.7753   40.2039    9.3701 N   0  0  0  0  0  0  0  0  0  0  0  0
   13.4927   43.3129    5.5703 N   0  0  0  0  0  0  0  0  0  0  0  0
   12.4137   39.2957    7.6762 O   0  0  0  0  0  0  0  0  0  0  0  0
   15.0346   44.8885    4.7644 O   0  0  0  0  0  0  0  0  0  0  0  0
  3  1  1  0
  4  5  2  0
  6  5  1  0
  6 25  1  0
  7 25  1  0
  7  8  1  0
  8  9  1  0
  9 26  1  0
 10 25  1  0
 12 13  2  0
 14 15  2  0
 15 27  1  0
 17 16  1  0
 17 18  1  0
 18 19  1  0
 19 20  1  0
 20 17  1  0
 21 11  2  0
 22  2  1  0
 22 23  2  0
 24  3  2  0
 26 10  1  0
 26 11  1  0
 27 16  1  0
  3  4  1  0
  5 22  1  0
 10 28  2  0
 11 12  1  0
 13 14  1  0
 15 21  1  0
 16 29  2  0
 23 24  1  0
M  END
>  <rmsd>  (1) 
0.246926531

$$$$
