MolPort-047-152-205 1772718345 CSSS02495358449 MCULE-4541011171 PubChem-138106020
     RDKit          3D

 19 21  0  0  0  0  0  0  0  0999 V2000
   17.1088   42.5741    8.7178 C   0  0  0  0  0  0  0  0  0  0  0  0
   14.8348   41.6059    8.3402 C   0  0  0  0  0  0  0  0  0  0  0  0
   13.6815   39.9176    9.4971 C   0  0  0  0  0  0  0  0  0  0  0  0
   12.5839   40.0638    8.5960 C   0  0  0  0  0  0  0  0  0  0  0  0
   12.6434   41.0202    7.5646 C   0  0  0  0  0  0  0  0  0  0  0  0
   13.8006   41.7800    7.4769 C   0  0  0  0  0  0  0  0  0  0  0  0
   14.2227   42.7788    6.6275 C   0  0  0  0  0  0  0  0  0  0  0  0
   13.9233   44.3519    4.6575 C   0  0  0  0  0  0  0  0  0  0  0  0
   13.0696   44.8268    3.5648 C   0  0  0  0  0  0  0  0  0  0  0  0
   11.8626   44.3210    3.3483 C   0  0  0  0  0  0  0  0  0  0  0  0
   13.6474   38.8790   10.5815 C   0  0  0  0  0  0  0  0  0  0  0  0
   12.7963   39.3753   11.7376 C   0  0  0  0  0  0  0  0  0  0  0  0
   14.3021   39.3920   11.8543 C   0  0  0  0  0  0  0  0  0  0  0  0
   15.8329   42.4503    8.0357 N   0  0  0  0  0  0  0  0  0  0  0  0
   14.8031   40.6913    9.3395 N   0  0  0  0  0  0  0  0  0  0  0  0
   15.4706   43.1783    6.9844 N   0  0  0  0  0  0  0  0  0  0  0  0
   13.4690   43.3126    5.5343 N   0  0  0  0  0  0  0  0  0  0  0  0
   15.0599   44.8721    4.8119 O   0  0  0  0  0  0  0  0  0  0  0  0
   11.0129   38.9773    8.7262 Br  0  0  0  0  0  0  0  0  0  0  0  0
  1 14  1  0
  3 15  2  0
  4  5  2  0
  4 19  1  0
  6  7  1  0
  6  2  2  0
  7 17  1  0
  8  9  1  0
 11  3  1  0
 11 12  1  0
 12 13  1  0
 13 11  1  0
 14  2  1  0
 14 16  1  0
 17  8  1  0
  2 15  1  0
  3  4  1  0
  5  6  1  0
  7 16  2  0
  8 18  2  0
  9 10  2  0
M  END
>  <rmsd>  (1) 
0.197188407

$$$$
