MolPort-035-706-963 CSSS03437789217 MCULE-9970766562 PubChem-91938288
     RDKit          3D

 29 31  0  0  0  0  0  0  0  0999 V2000
   15.9253   36.1927    6.8916 C   0  0  0  0  0  0  0  0  0  0  0  0
   14.6923   36.2478    7.7691 C   0  0  0  0  0  0  0  0  0  0  0  0
   14.5198   37.8312    9.6479 C   0  0  0  0  0  0  0  0  0  0  0  0
   14.3863   39.2522   10.1239 C   0  0  1  0  0  0  0  0  0  0  0  0
   13.4974   39.3049   11.3584 C   0  0  0  0  0  0  0  0  0  0  0  0
   14.3454   41.0556    8.3700 C   0  0  0  0  0  0  0  0  0  0  0  0
   13.6418   41.6749    7.3326 C   0  0  0  0  0  0  0  0  0  0  0  0
   14.2291   42.7085    6.5944 C   0  0  0  0  0  0  0  0  0  0  0  0
   13.9044   44.3788    4.6772 C   0  0  0  0  0  0  0  0  0  0  0  0
   12.9922   44.8626    3.6026 C   0  0  0  0  0  0  0  0  0  0  0  0
   13.1220   44.0108    2.3858 C   0  0  0  0  0  0  0  0  0  0  0  0
   12.3093   42.8828    2.2308 C   0  0  0  0  0  0  0  0  0  0  0  0
   12.4440   42.0722    1.0997 C   0  0  0  0  0  0  0  0  0  0  0  0
   13.3927   42.3801    0.1185 C   0  0  0  0  0  0  0  0  0  0  0  0
   14.4366   41.7886   -2.0444 C   0  0  0  0  0  0  0  0  0  0  0  0
   14.2107   43.5107    0.2807 C   0  0  0  0  0  0  0  0  0  0  0  0
   14.0763   44.3213    1.4114 C   0  0  0  0  0  0  0  0  0  0  0  0
   15.5339   43.1206    6.9074 C   0  0  0  0  0  0  0  0  0  0  0  0
   16.2392   42.5059    7.9458 C   0  0  0  0  0  0  0  0  0  0  0  0
   15.6441   41.4740    8.6752 C   0  0  0  0  0  0  0  0  0  0  0  0
   15.7589   39.7848   10.4845 C   0  0  0  0  0  0  0  0  0  0  0  0
   14.5308   37.5636    8.2767 O   0  0  0  0  0  0  0  0  0  0  0  0
   14.6783   36.8940   10.4799 O   0  0  0  0  0  0  0  0  0  0  0  0
   13.7420   40.0243    9.0978 O   0  0  0  0  0  0  0  0  0  0  0  0
   15.0479   44.8938    4.7951 O   0  0  0  0  0  0  0  0  0  0  0  0
   13.5021   41.5503   -1.0007 O   0  0  0  0  0  0  0  0  0  0  0  0
   16.4050   39.2714   11.4373 O   0  0  0  0  0  0  0  0  0  0  0  0
   13.4748   43.3145    5.5362 N   0  0  0  0  0  0  0  0  0  0  0  0
   16.3495   40.8513    9.7420 N   0  0  0  0  0  0  0  0  0  0  0  0
  1  2  1  0
  2 22  1  0
  3 22  1  0
  4  3  1  0
  4  5  1  1
  4 24  1  0
  4 21  1  0
  6 24  1  0
  7  8  2  0
  8 28  1  0
 10  9  1  0
 10 11  1  0
 12 13  2  0
 14 26  1  0
 14 16  2  0
 15 26  1  0
 17 11  2  0
 18 19  2  0
 20 29  1  0
 20  6  2  0
 28  9  1  0
 29 21  1  0
  3 23  2  0
  6  7  1  0
  8 18  1  0
  9 25  2  0
 11 12  1  0
 13 14  1  0
 16 17  1  0
 19 20  1  0
 21 27  2  0
M  END
>  <rmsd>  (1) 
0.233184576

$$$$
