MolPort-020-293-082 MCULE-3613256932 PubChem-110265549
     RDKit          3D

 32 35  0  0  0  0  0  0  0  0999 V2000
   10.1127   29.9809    9.8268 C   0  0  0  0  0  0  0  0  0  0  0  0
   10.9972   31.1074   10.3173 C   0  0  0  0  0  0  0  0  0  0  0  0
   12.2025   33.0462    9.3571 C   0  0  0  0  0  0  0  0  0  0  0  0
   12.5474   33.8009    8.2221 C   0  0  0  0  0  0  0  0  0  0  0  0
   13.3598   34.9324    8.3538 C   0  0  0  0  0  0  0  0  0  0  0  0
   13.8474   35.3084    9.6086 C   0  0  0  0  0  0  0  0  0  0  0  0
   13.5080   34.5625   10.7402 C   0  0  0  0  0  0  0  0  0  0  0  0
   12.6914   33.4361   10.6156 C   0  0  0  0  0  0  0  0  0  0  0  0
   14.6948   36.5265    9.7450 C   0  0  0  0  0  0  0  0  0  0  0  0
   13.8159   38.0644   11.2839 C   0  0  0  0  0  0  0  0  0  0  0  0
   12.9426   39.3003   11.4852 C   0  0  0  0  0  0  0  0  0  0  0  0
   13.5206   40.4675   10.6913 C   0  0  0  0  0  0  0  0  0  0  0  0
   13.7146   40.0698    9.2275 C   0  0  2  0  0  0  0  0  0  0  0  0
   14.5317   38.7789    9.1374 C   0  0  0  0  0  0  0  0  0  0  0  0
   14.3656   41.1720    8.4538 C   0  0  0  0  0  0  0  0  0  0  0  0
   14.2316   42.7399    6.6636 C   0  0  0  0  0  0  0  0  0  0  0  0
   15.5119   43.2186    6.9730 C   0  0  0  0  0  0  0  0  0  0  0  0
   16.2188   42.6597    8.0377 C   0  0  0  0  0  0  0  0  0  0  0  0
   15.6476   41.6308    8.7854 C   0  0  0  0  0  0  0  0  0  0  0  0
   13.8401   44.3250    4.6700 C   0  0  0  0  0  0  0  0  0  0  0  0
   12.9406   44.7422    3.6747 C   0  0  0  0  0  0  0  0  0  0  0  0
   13.3187   45.7561    2.7925 C   0  0  0  0  0  0  0  0  0  0  0  0
   14.5781   46.3446    2.9030 C   0  0  0  0  0  0  0  0  0  0  0  0
   15.4477   45.9065    3.9020 C   0  0  0  0  0  0  0  0  0  0  0  0
   11.5901   44.1266    3.5397 C   0  0  0  0  0  0  0  0  0  0  0  0
   12.0259   33.4366    6.8732 C   0  0  0  0  0  0  0  0  0  0  0  0
   11.3810   31.9213    9.2173 O   0  0  0  0  0  0  0  0  0  0  0  0
   10.7929   34.0541    6.6627 O   0  0  0  0  0  0  0  0  0  0  0  0
   13.8549   37.7072    9.8654 N   0  0  0  0  0  0  0  0  0  0  0  0
   13.6977   41.7346    7.4101 N   0  0  0  0  0  0  0  0  0  0  0  0
   13.4607   43.2812    5.5815 N   0  0  0  0  0  0  0  0  0  0  0  0
   15.0647   44.9180    4.7535 N   0  0  0  0  0  0  0  0  0  0  0  0
  1  2  1  0
  2 27  1  0
  3 27  1  0
  4  5  2  0
  6  7  2  0
  8  3  2  0
  9  6  1  0
  9 29  1  0
 10 29  1  0
 10 11  1  0
 11 12  1  0
 12 13  1  0
 13 14  1  0
 13 15  1  6
 14 29  1  0
 16 30  2  0
 16 31  1  0
 17 18  2  0
 19 15  2  0
 20 32  2  0
 21 22  2  0
 23 24  2  0
 25 21  1  0
 26  4  1  0
 26 28  1  0
 31 20  1  0
  3  4  1  0
  5  6  1  0
  7  8  1  0
 15 30  1  0
 16 17  1  0
 18 19  1  0
 20 21  1  0
 22 23  1  0
 24 32  1  0
M  END
>  <rmsd>  (1) 
0.249423519

$$$$
