Molport-047-073-863 MCULE-7053319457 PubChem-132771926
     RDKit          3D

 29 32  0  0  0  0  0  0  0  0999 V2000
   15.2253   45.8725    3.8042 C   0  0  0  0  0  0  0  0  0  0  0  0
   14.1464   46.0021    2.9182 C   0  0  0  0  0  0  0  0  0  0  0  0
   13.8871   44.3009    4.6817 C   0  0  0  0  0  0  0  0  0  0  0  0
   14.2306   42.6921    6.6188 C   0  0  0  0  0  0  0  0  0  0  0  0
   16.2927   42.4549    7.7531 C   0  0  0  0  0  0  0  0  0  0  0  0
   15.7235   41.5183    8.6131 C   0  0  0  0  0  0  0  0  0  0  0  0
   14.3769   41.1862    8.4402 C   0  0  0  0  0  0  0  0  0  0  0  0
   13.7094   40.1758    9.3173 C   0  0  2  0  0  0  0  0  0  0  0  0
   13.7707   40.5860   10.7941 C   0  0  0  0  0  0  0  0  0  0  0  0
   13.6873   39.3874   11.7414 C   0  0  0  0  0  0  0  0  0  0  0  0
   12.9263   38.2383   11.0855 C   0  0  0  0  0  0  0  0  0  0  0  0
   12.5969   37.1333    9.0399 C   0  0  0  0  0  0  0  0  0  0  0  0
   13.1518   35.9930    8.3021 C   0  0  0  0  0  0  0  0  0  0  0  0
   14.2995   38.7782    9.1033 C   0  0  0  0  0  0  0  0  0  0  0  0
   16.4454   46.6964    3.6819 C   0  0  0  0  0  0  0  0  0  0  0  0
   18.7013   47.4526    4.4670 C   0  0  0  0  0  0  0  0  0  0  0  0
   19.7991   46.8949    5.3802 C   0  0  0  0  0  0  0  0  0  0  0  0
   18.3658   45.9623    6.8458 C   0  0  0  0  0  0  0  0  0  0  0  0
   17.1075   46.4234    6.1081 C   0  0  0  0  0  0  0  0  0  0  0  0
   12.9802   44.8862    3.4017 S   0  0  0  0  0  0  0  0  0  0  0  0
   13.4454   43.2718    5.5721 N   0  0  0  0  0  0  0  0  0  0  0  0
   15.5432   43.0207    6.7756 N   0  0  0  0  0  0  0  0  0  0  0  0
   13.6184   37.7299    9.8896 N   0  0  0  0  0  0  0  0  0  0  0  0
   13.5891   35.0934    7.7196 N   0  0  0  0  0  0  0  0  0  0  0  0
   13.6638   41.7747    7.4457 N   0  0  0  0  0  0  0  0  0  0  0  0
   15.0755   44.9283    4.7740 N   0  0  0  0  0  0  0  0  0  0  0  0
   17.4458   46.7436    4.7200 N   0  0  0  0  0  0  0  0  0  0  0  0
   16.6167   47.3663    2.6253 O   0  0  0  0  0  0  0  0  0  0  0  0
   19.3737   46.9367    6.7212 O   0  0  0  0  0  0  0  0  0  0  0  0
  1 15  1  0
  1 26  1  0
  2 20  1  0
  3 20  1  0
  3 21  1  0
  4 25  2  0
  5 22  2  0
  6  7  2  0
  8  7  1  6
  8  9  1  0
  9 10  1  0
 10 11  1  0
 11 23  1  0
 12 23  1  0
 12 13  1  0
 14 23  1  0
 14  8  1  0
 15 27  1  0
 16 27  1  0
 16 17  1  0
 17 29  1  0
 18 29  1  0
 18 19  1  0
 19 27  1  0
 21  4  1  0
  1  2  2  0
  3 26  2  0
  4 22  1  0
  5  6  1  0
  7 25  1  0
 15 28  2  0
 13 24  3  0
M  END
>  <rmsd>  (1) 
0.245265782

$$$$
