Molport-047-859-626 PubChem-165938361
     RDKit          3D

 18 18  0  0  0  0  0  0  0  0999 V2000
   13.4536   39.5171   11.1241 C   0  0  0  0  0  0  0  0  0  0  0  0
   14.5306   40.1591    9.3098 C   0  0  0  0  0  0  0  0  0  0  0  0
   14.7979   41.2474    8.3238 C   0  0  0  0  0  0  0  0  0  0  0  0
   16.0205   41.9159    8.2020 C   0  0  0  0  0  0  0  0  0  0  0  0
   14.2828   42.6883    6.5844 C   0  0  0  0  0  0  0  0  0  0  0  0
   13.8212   41.6773    7.4133 C   0  0  0  0  0  0  0  0  0  0  0  0
   13.8978   44.3586    4.6874 C   0  0  0  0  0  0  0  0  0  0  0  0
   12.9366   44.8857    3.6703 C   0  0  0  0  0  0  0  0  0  0  0  0
   17.2422   41.7041    8.9964 C   0  0  0  0  0  0  0  0  0  0  0  0
   13.5371   40.5602   10.2033 O   0  0  0  0  0  0  0  0  0  0  0  0
   15.0355   44.8884    4.8020 O   0  0  0  0  0  0  0  0  0  0  0  0
   17.2741   40.8426    9.9138 O   0  0  0  0  0  0  0  0  0  0  0  0
   18.3770   42.4618    8.7356 O   0  0  0  0  0  0  0  0  0  0  0  0
   15.8843   43.0471    6.9634 S   0  0  0  0  0  0  0  0  0  0  0  0
   13.4871   43.3005    5.5628 N   0  0  0  0  0  0  0  0  0  0  0  0
   13.6243   45.4277    2.5991 F   0  0  0  0  0  0  0  0  0  0  0  0
   12.1263   43.8632    3.2113 F   0  0  0  0  0  0  0  0  0  0  0  0
   12.1503   45.8644    4.2480 F   0  0  0  0  0  0  0  0  0  0  0  0
  1 10  1  0
  2 10  1  0
  2  3  1  0
  4 14  1  0
  4  9  1  0
  5 14  1  0
  5 15  1  0
  6  3  1  0
  8  7  1  0
  8 16  1  0
  8 17  1  0
  8 18  1  0
  9 13  1  0
 15  7  1  0
  3  4  2  0
  5  6  2  0
  7 11  2  0
  9 12  2  0
M  END
>  <rmsd>  (1) 
0.242231578

$$$$
