Molport-020-275-217 MCULE-2354780275 PubChem-110252894
     RDKit          3D

 22 24  0  0  0  0  0  0  0  0999 V2000
   11.5646   37.7958    9.2437 C   0  0  0  0  0  0  0  0  0  0  0  0
   12.8729   37.0145    9.2344 C   0  0  0  0  0  0  0  0  0  0  0  0
   12.6553   35.6208    9.7946 C   0  0  0  0  0  0  0  0  0  0  0  0
   13.7051   38.0648   11.3313 C   0  0  0  0  0  0  0  0  0  0  0  0
   12.9160   39.3700   11.4575 C   0  0  0  0  0  0  0  0  0  0  0  0
   13.6175   40.4826   10.6985 C   0  0  0  0  0  0  0  0  0  0  0  0
   13.7602   40.0764    9.2389 C   0  0  2  0  0  0  0  0  0  0  0  0
   14.5606   38.7759    9.1292 C   0  0  0  0  0  0  0  0  0  0  0  0
   14.3972   41.1662    8.4372 C   0  0  0  0  0  0  0  0  0  0  0  0
   15.6922   41.6192    8.7184 C   0  0  0  0  0  0  0  0  0  0  0  0
   15.5368   43.1719    6.9394 C   0  0  0  0  0  0  0  0  0  0  0  0
   14.2412   42.7243    6.6515 C   0  0  0  0  0  0  0  0  0  0  0  0
   13.8419   44.3231    4.6761 C   0  0  0  0  0  0  0  0  0  0  0  0
   15.4182   45.9084    3.8951 C   0  0  0  0  0  0  0  0  0  0  0  0
   14.5269   46.3263    2.9088 C   0  0  0  0  0  0  0  0  0  0  0  0
   13.2812   45.7059    2.8390 C   0  0  0  0  0  0  0  0  0  0  0  0
   13.9818   37.6882    9.9310 N   0  0  0  0  0  0  0  0  0  0  0  0
   16.2315   42.6110    7.9635 N   0  0  0  0  0  0  0  0  0  0  0  0
   13.7069   41.7310    7.4112 N   0  0  0  0  0  0  0  0  0  0  0  0
   13.4613   43.2793    5.5828 N   0  0  0  0  0  0  0  0  0  0  0  0
   15.0628   44.9201    4.7566 N   0  0  0  0  0  0  0  0  0  0  0  0
   12.9624   44.7208    3.7188 N   0  0  0  0  0  0  0  0  0  0  0  0
  1  2  1  0
  2  3  1  0
  2 17  1  0
  4 17  1  0
  4  5  1  0
  5  6  1  0
  6  7  1  0
  7  8  1  0
  7  9  1  6
  8 17  1  0
  9 19  2  0
 10 18  2  0
 11 12  2  0
 12 20  1  0
 13 22  2  0
 14 21  2  0
 15 16  2  0
 20 13  1  0
  9 10  1  0
 11 18  1  0
 12 19  1  0
 13 21  1  0
 14 15  1  0
 16 22  1  0
M  END
>  <rmsd>  (1) 
0.244591266

$$$$
