MolPort-051-561-905 CHEMBL5994056 CSSS06454646771 MCULE-8069612432 PubChem-135378781
     RDKit          3D

 34 37  0  0  0  0  0  0  0  0999 V2000
   16.5186   41.5095   11.4398 C   0  0  0  0  0  0  0  0  0  0  0  0
   16.4767   43.8175   12.3852 C   0  0  0  0  0  0  0  0  0  0  0  0
   17.0542   43.4806    9.9671 C   0  0  0  0  0  0  0  0  0  0  0  0
   17.2265   42.5927    8.7763 C   0  0  0  0  0  0  0  0  0  0  0  0
   15.6025   43.2107    7.0008 C   0  0  0  0  0  0  0  0  0  0  0  0
   14.3274   42.8000    6.6635 C   0  0  0  0  0  0  0  0  0  0  0  0
   13.9727   41.8100    7.5682 C   0  0  0  0  0  0  0  0  0  0  0  0
   12.6924   41.0572    7.6347 C   0  0  0  0  0  0  0  0  0  0  0  0
   12.4296   40.1180    8.6609 C   0  0  0  0  0  0  0  0  0  0  0  0
   11.2019   39.4332    8.6732 C   0  0  0  0  0  0  0  0  0  0  0  0
   10.2420   39.6709    7.6894 C   0  0  0  0  0  0  0  0  0  0  0  0
   10.4980   40.5965    6.6799 C   0  0  0  0  0  0  0  0  0  0  0  0
   11.7125   41.2815    6.6550 C   0  0  0  0  0  0  0  0  0  0  0  0
   13.1752   38.9786   10.7414 C   0  0  0  0  0  0  0  0  0  0  0  0
   13.8910   44.3344    4.6757 C   0  0  0  0  0  0  0  0  0  0  0  0
   12.9439   44.7478    3.6322 C   0  0  0  0  0  0  0  0  0  0  0  0
   13.1055   45.7043    2.6591 C   0  0  0  0  0  0  0  0  0  0  0  0
   14.0986   47.3897    1.3781 C   0  0  0  0  0  0  0  0  0  0  0  0
   12.9384   47.4663    0.5816 C   0  0  0  0  0  0  0  0  0  0  0  0
   11.8618   46.6172    0.8739 C   0  0  0  0  0  0  0  0  0  0  0  0
   11.6610   44.2432    3.4119 C   0  0  0  0  0  0  0  0  0  0  0  0
   16.6852   42.9408   11.2450 N   0  0  0  0  0  0  0  0  0  0  0  0
   15.9668   42.4673    8.0626 N   0  0  0  0  0  0  0  0  0  0  0  0
   15.0032   41.6318    8.4172 N   0  0  0  0  0  0  0  0  0  0  0  0
   13.5137   43.3059    5.5982 N   0  0  0  0  0  0  0  0  0  0  0  0
   14.1723   46.5048    2.4153 N   0  0  0  0  0  0  0  0  0  0  0  0
   11.9991   45.7629    1.9155 N   0  0  0  0  0  0  0  0  0  0  0  0
   11.1095   44.8884    2.3509 N   0  0  0  0  0  0  0  0  0  0  0  0
   17.2067   44.7235    9.8244 O   0  0  0  0  0  0  0  0  0  0  0  0
   13.3866   39.8721    9.6547 O   0  0  0  0  0  0  0  0  0  0  0  0
   15.0226   44.8841    4.7517 O   0  0  0  0  0  0  0  0  0  0  0  0
    9.2981   40.9007    5.4429 Cl  0  0  0  0  0  0  0  0  0  0  0  0
   14.3686   38.7769   11.4069 F   0  0  0  0  0  0  0  0  0  0  0  0
   12.2505   39.5177   11.6170 F   0  0  0  0  0  0  0  0  0  0  0  0
  1 22  1  0
  2 22  1  0
  4  3  1  0
  4 23  1  0
  6  7  1  0
  6 25  1  0
  7  8  1  0
  9 10  2  0
  9 30  1  0
 11 12  2  0
 12 32  1  0
 13  8  2  0
 14 30  1  0
 14 33  1  0
 14 34  1  0
 15 16  1  0
 17 26  1  0
 18 19  1  0
 20 27  1  0
 21 16  1  0
 22  3  1  0
 23  5  1  0
 23 24  1  0
 25 15  1  0
 27 28  1  0
 27 17  1  0
  3 29  2  0
  5  6  2  0
  7 24  2  0
  8  9  1  0
 10 11  1  0
 12 13  1  0
 15 31  2  0
 16 17  2  0
 18 26  2  0
 19 20  2  0
 21 28  2  0
M  END
>  <rmsd>  (1) 
0.216191873

$$$$
