MolPort-039-210-479 CSSS03437018559 MCULE-2838403596 PubChem-119099794
     RDKit          3D

 24 26  0  0  0  0  0  0  0  0999 V2000
    9.8508   46.4448    1.0293 F   0  0  0  0  0  0  0  0  0  0  0  0
   10.7297   46.0726    1.9922 C   0  0  0  0  0  0  0  0  0  0  0  0
   10.4500   44.9843    2.8302 C   0  0  0  0  0  0  0  0  0  0  0  0
   11.3662   44.6129    3.8187 C   0  0  0  0  0  0  0  0  0  0  0  0
   12.5622   45.3222    3.9724 C   0  0  0  0  0  0  0  0  0  0  0  0
   12.8379   46.4100    3.1372 C   0  0  0  0  0  0  0  0  0  0  0  0
   11.9234   46.7837    2.1482 C   0  0  0  0  0  0  0  0  0  0  0  0
   14.2169   42.5404    6.6522 C   0  0  0  0  0  0  0  0  0  0  0  0
   14.0555   41.2306    7.0401 C   0  0  0  0  0  0  0  0  0  0  0  0
   15.1601   39.7730    8.7205 C   0  0  0  0  0  0  0  0  0  0  0  0
   14.5423   39.8634   10.1069 C   0  0  1  0  0  0  0  0  0  0  0  0
   13.0060   39.8629   10.0126 C   0  0  0  0  0  0  0  0  0  0  0  0
   12.3751   38.9477   11.0651 C   0  0  0  0  0  0  0  0  0  0  0  0
   13.1054   39.0443   12.4070 C   0  0  0  0  0  0  0  0  0  0  0  0
   14.6305   39.1063   12.2217 C   0  0  0  0  0  0  0  0  0  0  0  0
   15.2410   43.0859    7.4033 C   0  0  0  0  0  0  0  0  0  0  0  0
    8.9588   44.0790    2.6550 Cl  0  0  0  0  0  0  0  0  0  0  0  0
   13.7053   44.8603    5.2192 S   0  0  0  0  0  0  0  0  0  0  0  0
   15.1051   45.0209    4.6959 O   0  0  0  0  0  0  0  0  0  0  0  0
   13.5034   45.7349    6.4243 O   0  0  0  0  0  0  0  0  0  0  0  0
   15.0034   38.7974   10.9004 O   0  0  0  0  0  0  0  0  0  0  0  0
   13.4463   43.2028    5.6496 N   0  0  0  0  0  0  0  0  0  0  0  0
   14.9756   41.0214    7.9980 N   0  0  0  0  0  0  0  0  0  0  0  0
   15.6849   42.1160    8.2266 N   0  0  0  0  0  0  0  0  0  0  0  0
  2  1  1  0
  3 17  1  0
  3  4  2  0
  5  6  2  0
  7  2  2  0
  9 23  1  0
 10 23  1  0
 11 10  1  6
 11 12  1  0
 11 21  1  0
 12 13  1  0
 13 14  1  0
 14 15  1  0
 15 21  1  0
 16  8  1  0
 18  5  1  0
 18 22  1  0
 22  8  1  0
 23 24  1  0
  2  3  1  0
  4  5  1  0
  6  7  1  0
  8  9  2  0
 16 24  2  0
 18 19  2  0
 18 20  2  0
M  END
>  <rmsd>  (1) 
0.226950809

$$$$
