MolPort-000-016-465 892171 CHEMBL1300667 MCULE-5639757617 PubChem-1147161 ZINC000000892171 ZINC00892171
     RDKit          3D

 29 31  0  0  0  0  0  0  0  0999 V2000
   13.4849   44.6786    2.2748 C   0  0  0  0  0  0  0  0  0  0  0  0
   12.9576   44.9465    3.6721 C   0  0  0  0  0  0  0  0  0  0  0  0
   13.8988   44.3997    4.6900 C   0  0  0  0  0  0  0  0  0  0  0  0
   14.2253   42.6840    6.5683 C   0  0  0  0  0  0  0  0  0  0  0  0
   13.6546   41.6054    7.2554 C   0  0  0  0  0  0  0  0  0  0  0  0
   14.3642   40.9602    8.2709 C   0  0  0  0  0  0  0  0  0  0  0  0
   15.6564   41.3832    8.6150 C   0  0  0  0  0  0  0  0  0  0  0  0
   16.0622   39.6037   10.4446 C   0  0  0  0  0  0  0  0  0  0  0  0
   14.8010   38.8405   10.2178 C   0  0  0  0  0  0  0  0  0  0  0  0
   12.2759   38.3930   10.5627 C   0  0  0  0  0  0  0  0  0  0  0  0
   12.6168   36.1244   11.6408 C   0  0  0  0  0  0  0  0  0  0  0  0
   13.4802   36.5304   12.6690 C   0  0  0  0  0  0  0  0  0  0  0  0
   14.0359   35.5906   13.5430 C   0  0  0  0  0  0  0  0  0  0  0  0
   13.7318   34.2302   13.4072 C   0  0  0  0  0  0  0  0  0  0  0  0
   14.0185   31.9156   14.2507 C   0  0  0  0  0  0  0  0  0  0  0  0
   12.8638   33.8181   12.3843 C   0  0  0  0  0  0  0  0  0  0  0  0
   12.3115   34.7594   11.5108 C   0  0  0  0  0  0  0  0  0  0  0  0
   16.2231   42.4664    7.9326 C   0  0  0  0  0  0  0  0  0  0  0  0
   15.5153   43.1123    6.9149 C   0  0  0  0  0  0  0  0  0  0  0  0
   15.0511   44.8964    4.8074 O   0  0  0  0  0  0  0  0  0  0  0  0
   16.8512   39.2127   11.3449 O   0  0  0  0  0  0  0  0  0  0  0  0
   14.2960   33.3131   14.3005 O   0  0  0  0  0  0  0  0  0  0  0  0
   13.4697   43.3156    5.5252 N   0  0  0  0  0  0  0  0  0  0  0  0
   16.4153   40.7539    9.6592 N   0  0  0  0  0  0  0  0  0  0  0  0
   11.4923   38.8901    9.5885 N   0  0  0  0  0  0  0  0  0  0  0  0
   10.7626   37.8636    9.1750 N   0  0  0  0  0  0  0  0  0  0  0  0
   11.0836   36.7748    9.8586 N   0  0  0  0  0  0  0  0  0  0  0  0
   12.0233   37.0770   10.7381 N   0  0  0  0  0  0  0  0  0  0  0  0
   13.5295   39.3639   11.3988 S   0  0  0  0  0  0  0  0  0  0  0  0
  1  2  1  0
  2  3  1  0
  3 23  1  0
  5  6  2  0
  7 24  1  0
  7 18  2  0
  9  8  1  0
  9 29  1  0
 10 29  1  0
 12 13  2  0
 14 22  1  0
 14 16  2  0
 15 22  1  0
 17 11  2  0
 19  4  2  0
 23  4  1  0
 24  8  1  0
 25 26  1  0
 28 27  1  0
 28 11  1  0
 28 10  1  0
  3 20  2  0
  4  5  1  0
  6  7  1  0
  8 21  2  0
 10 25  2  0
 11 12  1  0
 13 14  1  0
 16 17  1  0
 18 19  1  0
 26 27  2  0
M  END
>  <rmsd>  (1) 
0.248917341

$$$$
