MolPort-007-723-351 6818230 ChemDiv-E157-4633 MCULE-6806045684 PubChem-22517937 ZINC000006818230 ZINC06818230
     RDKit          3D

 24 26  0  0  0  0  0  0  0  0999 V2000
   14.0548   39.0195   11.9588 C   0  0  0  0  0  0  0  0  0  0  0  0
   13.1121   39.6102   10.9274 C   0  0  0  0  0  0  0  0  0  0  0  0
   13.6491   39.3852    9.5233 C   0  0  0  0  0  0  0  0  0  0  0  0
   14.7012   40.3891    9.1829 C   0  0  0  0  0  0  0  0  0  0  0  0
   15.7426   41.9533    8.2451 C   0  0  0  0  0  0  0  0  0  0  0  0
   14.2239   42.6975    6.5836 C   0  0  0  0  0  0  0  0  0  0  0  0
   13.9063   44.3910    4.6942 C   0  0  0  0  0  0  0  0  0  0  0  0
   12.9665   44.9516    3.6829 C   0  0  0  0  0  0  0  0  0  0  0  0
   11.3562   46.2359    5.0739 C   0  0  0  0  0  0  0  0  0  0  0  0
   10.7196   45.0767    5.5454 C   0  0  0  0  0  0  0  0  0  0  0  0
    9.6721   45.1727    6.4648 C   0  0  0  0  0  0  0  0  0  0  0  0
    9.2465   46.4297    6.9233 C   0  0  0  0  0  0  0  0  0  0  0  0
    7.5050   45.4426    8.3760 C   0  0  0  0  0  0  0  0  0  0  0  0
    9.8800   47.5831    6.4497 C   0  0  0  0  0  0  0  0  0  0  0  0
   10.9284   47.4866    5.5299 C   0  0  0  0  0  0  0  0  0  0  0  0
   15.9142   40.5037    9.7894 N   0  0  0  0  0  0  0  0  0  0  0  0
   16.5799   41.5022    9.1944 N   0  0  0  0  0  0  0  0  0  0  0  0
   13.4738   43.3112    5.5290 N   0  0  0  0  0  0  0  0  0  0  0  0
   13.7166   41.6640    7.3138 N   0  0  0  0  0  0  0  0  0  0  0  0
   14.6129   41.3020    8.2165 N   0  0  0  0  0  0  0  0  0  0  0  0
   15.8177   43.1576    7.0847 S   0  0  0  0  0  0  0  0  0  0  0  0
   15.0561   44.8902    4.8127 O   0  0  0  0  0  0  0  0  0  0  0  0
   12.4079   46.1746    4.1527 O   0  0  0  0  0  0  0  0  0  0  0  0
    8.2026   46.5602    7.8431 O   0  0  0  0  0  0  0  0  0  0  0  0
  1  2  1  0
  2  3  1  0
  3  4  1  0
  5 21  1  0
  6 21  1  0
  6 18  1  0
  8  7  1  0
  8 23  1  0
  9 23  1  0
 10 11  2  0
 12 24  1  0
 12 14  2  0
 13 24  1  0
 15  9  2  0
 16 17  1  0
 18  7  1  0
 20 19  1  0
 20  4  1  0
 20  5  1  0
  4 16  2  0
  5 17  2  0
  6 19  2  0
  7 22  2  0
  9 10  1  0
 11 12  1  0
 14 15  1  0
M  END
>  <rmsd>  (1) 
0.198953524

$$$$
