MolPort-035-706-975 CSSS03437789230 MCULE-7007076804 PubChem-91938300
     RDKit          3D

 26 28  0  0  0  0  0  0  0  0999 V2000
   16.1128   36.4054    6.8092 C   0  0  0  0  0  0  0  0  0  0  0  0
   14.8952   36.3533    7.7080 C   0  0  0  0  0  0  0  0  0  0  0  0
   14.6420   37.8786    9.6254 C   0  0  0  0  0  0  0  0  0  0  0  0
   14.4178   39.2753   10.1372 C   0  0  1  0  0  0  0  0  0  0  0  0
   13.4934   39.2415   11.3458 C   0  0  0  0  0  0  0  0  0  0  0  0
   14.3487   41.0926    8.4001 C   0  0  0  0  0  0  0  0  0  0  0  0
   13.6517   41.6868    7.3438 C   0  0  0  0  0  0  0  0  0  0  0  0
   14.2244   42.7364    6.6167 C   0  0  0  0  0  0  0  0  0  0  0  0
   13.9038   44.3745    4.6697 C   0  0  0  0  0  0  0  0  0  0  0  0
   12.9933   44.8551    3.6254 C   0  0  0  0  0  0  0  0  0  0  0  0
   13.2743   45.8544    2.7108 C   0  0  0  0  0  0  0  0  0  0  0  0
   12.1349   45.9667    1.9302 C   0  0  0  0  0  0  0  0  0  0  0  0
   11.2542   45.0288    2.4322 C   0  0  0  0  0  0  0  0  0  0  0  0
   15.5066   43.1915    6.9619 C   0  0  0  0  0  0  0  0  0  0  0  0
   16.2043   42.6031    8.0204 C   0  0  0  0  0  0  0  0  0  0  0  0
   15.6248   41.5539    8.7373 C   0  0  0  0  0  0  0  0  0  0  0  0
   15.7487   39.8709   10.5516 C   0  0  0  0  0  0  0  0  0  0  0  0
   14.6499   37.6427    8.2483 O   0  0  0  0  0  0  0  0  0  0  0  0
   14.8735   36.9357   10.4333 O   0  0  0  0  0  0  0  0  0  0  0  0
   13.7613   40.0440    9.1163 O   0  0  0  0  0  0  0  0  0  0  0  0
   15.0476   44.8907    4.7883 O   0  0  0  0  0  0  0  0  0  0  0  0
   11.7872   44.3825    3.4373 O   0  0  0  0  0  0  0  0  0  0  0  0
   16.3806   39.3878   11.5294 O   0  0  0  0  0  0  0  0  0  0  0  0
   13.4769   43.3172    5.5394 N   0  0  0  0  0  0  0  0  0  0  0  0
   16.3203   40.9598    9.8268 N   0  0  0  0  0  0  0  0  0  0  0  0
    9.4989   44.7039    1.7653 Br  0  0  0  0  0  0  0  0  0  0  0  0
  1  2  1  0
  2 18  1  0
  3 18  1  0
  4  3  1  0
  4  5  1  1
  4 20  1  0
  4 17  1  0
  6 20  1  0
  7  8  2  0
  8 24  1  0
  9 10  1  0
 10 22  1  0
 11 12  1  0
 13 26  1  0
 13 22  1  0
 14 15  2  0
 16 25  1  0
 16  6  2  0
 24  9  1  0
 25 17  1  0
  3 19  2  0
  6  7  1  0
  8 14  1  0
  9 21  2  0
 10 11  2  0
 12 13  2  0
 15 16  1  0
 17 23  2  0
M  END
>  <rmsd>  (1) 
0.231850743

$$$$
