Molport-047-071-896 PubChem-132766477
     RDKit          3D

 31 34  0  0  0  0  0  0  0  0999 V2000
   16.7870   46.5364    4.0492 C   0  0  0  0  0  0  0  0  0  0  0  0
   15.4460   45.9097    3.9173 C   0  0  0  0  0  0  0  0  0  0  0  0
   14.5712   46.3378    2.9208 C   0  0  0  0  0  0  0  0  0  0  0  0
   13.3229   45.7249    2.8303 C   0  0  0  0  0  0  0  0  0  0  0  0
   12.3601   46.1515    1.7819 C   0  0  0  0  0  0  0  0  0  0  0  0
   13.8499   44.3297    4.6680 C   0  0  0  0  0  0  0  0  0  0  0  0
   14.2148   42.7205    6.6403 C   0  0  0  0  0  0  0  0  0  0  0  0
   15.5089   43.1610    6.9470 C   0  0  0  0  0  0  0  0  0  0  0  0
   16.2044   42.5753    8.0060 C   0  0  0  0  0  0  0  0  0  0  0  0
   17.5774   43.0366    8.3373 C   0  0  0  0  0  0  0  0  0  0  0  0
   14.3696   41.1355    8.4584 C   0  0  0  0  0  0  0  0  0  0  0  0
   13.6453   41.6995    7.4050 C   0  0  0  0  0  0  0  0  0  0  0  0
   13.7556   40.0440    9.2704 C   0  0  2  0  0  0  0  0  0  0  0  0
   13.6288   40.4658   10.7359 C   0  0  0  0  0  0  0  0  0  0  0  0
   12.9976   39.3453   11.5595 C   0  0  0  0  0  0  0  0  0  0  0  0
   13.8371   38.0769   11.4427 C   0  0  0  0  0  0  0  0  0  0  0  0
   14.5744   38.7586    9.1495 C   0  0  0  0  0  0  0  0  0  0  0  0
   13.6275   36.4569    9.5154 C   0  0  0  0  0  0  0  0  0  0  0  0
   13.0463   35.4396   10.4060 C   0  0  0  0  0  0  0  0  0  0  0  0
   12.6750   34.2423    9.9619 C   0  0  0  0  0  0  0  0  0  0  0  0
   12.0957   33.2305   10.8519 C   0  0  0  0  0  0  0  0  0  0  0  0
   11.8634   33.3632   12.2033 C   0  0  0  0  0  0  0  0  0  0  0  0
   11.2461   31.4156   11.5452 C   0  0  0  0  0  0  0  0  0  0  0  0
   12.9861   44.7373    3.7004 N   0  0  0  0  0  0  0  0  0  0  0  0
   13.4513   43.2836    5.5642 N   0  0  0  0  0  0  0  0  0  0  0  0
   15.6267   41.5833    8.7341 N   0  0  0  0  0  0  0  0  0  0  0  0
   14.0142   37.7392   10.0322 N   0  0  0  0  0  0  0  0  0  0  0  0
   11.3249   32.2083   12.6345 N   0  0  0  0  0  0  0  0  0  0  0  0
   11.7124   32.0148   10.4316 N   0  0  0  0  0  0  0  0  0  0  0  0
   15.0728   44.9193    4.7685 N   0  0  0  0  0  0  0  0  0  0  0  0
   13.7858   36.2005    8.2898 O   0  0  0  0  0  0  0  0  0  0  0  0
  1  2  1  0
  2 30  2  0
  3  4  2  0
  5  4  1  0
  6 24  2  0
  6 25  1  0
  8  9  2  0
 10  9  1  0
 11 26  2  0
 12  7  2  0
 13 11  1  6
 13 14  1  0
 14 15  1  0
 15 16  1  0
 16 27  1  0
 17 27  1  0
 17 13  1  0
 18 19  1  0
 20 21  1  0
 22 28  1  0
 23 29  1  0
 25  7  1  0
 27 18  1  0
 29 21  1  0
  2  3  1  0
  4 24  1  0
  6 30  1  0
  7  8  1  0
  9 26  1  0
 11 12  1  0
 18 31  2  0
 19 20  2  0
 21 22  2  0
 23 28  2  0
M  END
>  <rmsd>  (1) 
0.243149057

$$$$
