MolPort-005-062-829 12580336 CSCCCN1CCC(CC1)n1nccc1NC(=O)Nc1ccccc1C CSSS00159485000 MCULE-4715176907 PubChem-25371691 ZINC000012580336
     RDKit          3D

 27 29  0  0  0  0  0  0  0  0999 V2000
   15.7711   38.5037   13.9823 C   0  0  0  0  0  0  0  0  0  0  0  0
   14.8885   39.3587   11.6592 C   0  0  0  0  0  0  0  0  0  0  0  0
   13.3921   39.2713   11.9011 C   0  0  0  0  0  0  0  0  0  0  0  0
   12.6948   38.6917   10.6814 C   0  0  0  0  0  0  0  0  0  0  0  0
   12.8330   38.8614    8.3479 C   0  0  0  0  0  0  0  0  0  0  0  0
   12.5894   39.7064    7.0835 C   0  0  0  0  0  0  0  0  0  0  0  0
   12.4083   41.2067    7.3596 C   0  0  0  0  0  0  0  0  0  0  0  0
   11.5068   41.5033    8.5684 C   0  0  0  0  0  0  0  0  0  0  0  0
   11.4585   40.3505    9.5729 C   0  0  0  0  0  0  0  0  0  0  0  0
   15.6404   42.4556    8.2427 C   0  0  0  0  0  0  0  0  0  0  0  0
   15.4255   43.2337    7.1104 C   0  0  0  0  0  0  0  0  0  0  0  0
   14.1784   42.8264    6.6744 C   0  0  0  0  0  0  0  0  0  0  0  0
   13.9411   44.3269    4.6279 C   0  0  0  0  0  0  0  0  0  0  0  0
   13.4005   45.6928    2.5196 C   0  0  0  0  0  0  0  0  0  0  0  0
   12.4634   45.9436    1.4996 C   0  0  0  0  0  0  0  0  0  0  0  0
   11.1704   45.2043    1.4428 C   0  0  0  0  0  0  0  0  0  0  0  0
   12.7360   46.8997    0.5157 C   0  0  0  0  0  0  0  0  0  0  0  0
   13.9378   47.6111    0.5383 C   0  0  0  0  0  0  0  0  0  0  0  0
   14.8724   47.3684    1.5463 C   0  0  0  0  0  0  0  0  0  0  0  0
   14.6048   46.4146    2.5312 C   0  0  0  0  0  0  0  0  0  0  0  0
   15.7050   40.0919   13.1053 S   0  0  0  0  0  0  0  0  0  0  0  0
   12.7335   39.6422    9.5817 N   0  0  0  0  0  0  0  0  0  0  0  0
   13.6983   41.8788    7.4913 N   0  0  0  0  0  0  0  0  0  0  0  0
   14.5793   41.6469    8.4479 N   0  0  0  0  0  0  0  0  0  0  0  0
   13.4710   43.3180    5.5282 N   0  0  0  0  0  0  0  0  0  0  0  0
   13.1088   44.7079    3.5250 N   0  0  0  0  0  0  0  0  0  0  0  0
   15.0657   44.8680    4.8041 O   0  0  0  0  0  0  0  0  0  0  0  0
  1 21  1  0
  2 21  1  0
  2  3  1  0
  3  4  1  0
  4 22  1  0
  5 22  1  0
  5  6  1  0
  6  7  1  0
  7  8  1  0
  7 23  1  0
  8  9  1  0
  9 22  1  0
 10 11  1  0
 12 25  1  0
 12 23  1  0
 13 26  1  0
 15 17  2  0
 16 15  1  0
 18 19  2  0
 20 14  2  0
 23 24  1  0
 25 13  1  0
 26 14  1  0
 10 24  2  0
 11 12  2  0
 13 27  2  0
 14 15  1  0
 17 18  1  0
 19 20  1  0
M  END
>  <rmsd>  (1) 
0.248826772

$$$$
