MolPort-020-275-093 MCULE-9391947668 PubChem-110252777
     RDKit          3D

 23 25  0  0  0  0  0  0  0  0999 V2000
   17.5764   43.0356    8.3397 C   0  0  0  0  0  0  0  0  0  0  0  0
   16.2035   42.5746    8.0074 C   0  0  0  0  0  0  0  0  0  0  0  0
   15.5086   43.1604    6.9481 C   0  0  0  0  0  0  0  0  0  0  0  0
   14.2146   42.7202    6.6408 C   0  0  0  0  0  0  0  0  0  0  0  0
   13.6446   41.6991    7.4050 C   0  0  0  0  0  0  0  0  0  0  0  0
   14.3684   41.1349    8.4587 C   0  0  0  0  0  0  0  0  0  0  0  0
   13.7537   40.0431    9.2701 C   0  0  2  0  0  0  0  0  0  0  0  0
   13.6273   40.4639   10.7358 C   0  0  0  0  0  0  0  0  0  0  0  0
   12.9950   39.3431   11.5584 C   0  0  0  0  0  0  0  0  0  0  0  0
   13.8337   38.0741   11.4413 C   0  0  0  0  0  0  0  0  0  0  0  0
   14.5719   38.7575    9.1482 C   0  0  0  0  0  0  0  0  0  0  0  0
   13.6254   36.4499    9.5310 C   0  0  0  0  0  0  0  0  0  0  0  0
   13.7910   36.1055    8.0893 C   0  0  0  0  0  0  0  0  0  0  0  0
   13.8496   44.3297    4.6679 C   0  0  0  0  0  0  0  0  0  0  0  0
   15.4444   45.9107    3.9163 C   0  0  0  0  0  0  0  0  0  0  0  0
   14.5690   46.3377    2.9200 C   0  0  0  0  0  0  0  0  0  0  0  0
   13.3211   45.7240    2.8299 C   0  0  0  0  0  0  0  0  0  0  0  0
   15.6253   41.5825    8.7351 N   0  0  0  0  0  0  0  0  0  0  0  0
   14.0122   37.7378   10.0314 N   0  0  0  0  0  0  0  0  0  0  0  0
   13.4515   43.2834    5.5644 N   0  0  0  0  0  0  0  0  0  0  0  0
   15.0723   44.9201    4.7680 N   0  0  0  0  0  0  0  0  0  0  0  0
   12.9854   44.7364    3.7006 N   0  0  0  0  0  0  0  0  0  0  0  0
   13.1370   35.5876   10.3090 O   0  0  0  0  0  0  0  0  0  0  0  0
  1  2  1  0
  2 18  2  0
  3  4  2  0
  4 20  1  0
  5  6  2  0
  7  6  1  6
  7  8  1  0
  8  9  1  0
  9 10  1  0
 10 19  1  0
 11 19  1  0
 11  7  1  0
 13 12  1  0
 14 22  2  0
 15 21  2  0
 16 17  2  0
 19 12  1  0
 20 14  1  0
  2  3  1  0
  4  5  1  0
  6 18  1  0
 12 23  2  0
 14 21  1  0
 15 16  1  0
 17 22  1  0
M  END
>  <rmsd>  (1) 
0.242638707

$$$$
