MolPort-020-292-478 MCULE-2904049977 PubChem-110264946
     RDKit          3D

 28 30  0  0  0  0  0  0  0  0999 V2000
   12.3805   46.0929    1.7381 C   0  0  0  0  0  0  0  0  0  0  0  0
   13.3335   45.6897    2.8047 C   0  0  0  0  0  0  0  0  0  0  0  0
   14.5741   46.3170    2.9041 C   0  0  0  0  0  0  0  0  0  0  0  0
   15.4408   45.9093    3.9160 C   0  0  0  0  0  0  0  0  0  0  0  0
   13.8536   44.3177    4.6616 C   0  0  0  0  0  0  0  0  0  0  0  0
   14.2342   42.6957    6.6191 C   0  0  0  0  0  0  0  0  0  0  0  0
   13.6433   41.7286    7.4360 C   0  0  0  0  0  0  0  0  0  0  0  0
   14.3862   41.1415    8.4637 C   0  0  0  0  0  0  0  0  0  0  0  0
   16.2826   42.4468    7.8787 C   0  0  0  0  0  0  0  0  0  0  0  0
   15.5693   43.0548    6.8443 C   0  0  0  0  0  0  0  0  0  0  0  0
   17.6992   42.8219    8.1237 C   0  0  0  0  0  0  0  0  0  0  0  0
   13.7505   40.1066    9.3303 C   0  0  2  0  0  0  0  0  0  0  0  0
   13.7279   40.5594   10.7936 C   0  0  0  0  0  0  0  0  0  0  0  0
   13.6380   39.3848   11.7709 C   0  0  0  0  0  0  0  0  0  0  0  0
   13.0130   38.1667   11.0959 C   0  0  0  0  0  0  0  0  0  0  0  0
   14.4597   38.7563    9.1806 C   0  0  0  0  0  0  0  0  0  0  0  0
   13.5717   34.6709   10.2929 C   0  0  0  0  0  0  0  0  0  0  0  0
   11.4314   35.5005   10.7256 C   0  0  0  0  0  0  0  0  0  0  0  0
   16.7729   46.5524    4.0583 C   0  0  0  0  0  0  0  0  0  0  0  0
   15.0680   44.9230    4.7724 N   0  0  0  0  0  0  0  0  0  0  0  0
   12.9967   44.7073    3.6806 N   0  0  0  0  0  0  0  0  0  0  0  0
   13.4534   43.2805    5.5674 N   0  0  0  0  0  0  0  0  0  0  0  0
   15.6825   41.5110    8.6611 N   0  0  0  0  0  0  0  0  0  0  0  0
   13.8421   37.6795    9.9806 N   0  0  0  0  0  0  0  0  0  0  0  0
   12.3861   35.2277    9.6648 N   0  0  0  0  0  0  0  0  0  0  0  0
   12.8348   36.7335    8.9210 S   0  0  0  0  0  0  0  0  0  0  0  0
   13.5915   36.4282    7.6574 O   0  0  0  0  0  0  0  0  0  0  0  0
   11.5968   37.5103    8.5624 O   0  0  0  0  0  0  0  0  0  0  0  0
  1  2  1  0
  2 21  2  0
  3  4  2  0
  5 20  2  0
  5 22  1  0
  7  8  2  0
  9 23  2  0
 10  6  2  0
 11  9  1  0
 12  8  1  6
 12 13  1  0
 13 14  1  0
 14 15  1  0
 15 24  1  0
 16 24  1  0
 16 12  1  0
 17 25  1  0
 18 25  1  0
 19  4  1  0
 22  6  1  0
 26 24  1  0
 26 25  1  0
  2  3  1  0
  4 20  1  0
  5 21  1  0
  6  7  1  0
  8 23  1  0
  9 10  1  0
 26 27  2  0
 26 28  2  0
M  END
>  <rmsd>  (1) 
0.247745097

$$$$
