MolPort-001-980-042 350815 CHEMBL1365918 MCULE-1846993666 PubChem-829078 ZINC000000350815
     RDKit          3D

 24 26  0  0  0  0  0  0  0  0999 V2000
   14.3215   42.6777    6.5366 C   0  0  0  0  0  0  0  0  0  0  0  0
   13.9384   44.2999    4.6156 C   0  0  0  0  0  0  0  0  0  0  0  0
   13.0927   44.6530    3.4714 C   0  0  0  0  0  0  0  0  0  0  0  0
   11.8707   44.0878    3.1740 C   0  0  0  0  0  0  0  0  0  0  0  0
   11.4563   44.7293    2.0198 C   0  0  0  0  0  0  0  0  0  0  0  0
   12.4491   45.6376    1.6934 C   0  0  0  0  0  0  0  0  0  0  0  0
   15.1935   41.4765    8.5597 C   0  0  0  0  0  0  0  0  0  0  0  0
   16.1351   41.5919    7.5298 C   0  0  0  0  0  0  0  0  0  0  0  0
   17.5151   41.0222    7.6050 C   0  0  0  0  0  0  0  0  0  0  0  0
   15.6412   42.2486    6.3869 C   0  0  0  0  0  0  0  0  0  0  0  0
   16.3927   42.3591    5.1607 C   0  0  0  0  0  0  0  0  0  0  0  0
   15.4174   40.8800    9.8977 C   0  0  0  0  0  0  0  0  0  0  0  0
   13.0994   39.8923   10.0762 C   0  0  0  0  0  0  0  0  0  0  0  0
   12.7888   38.4691   10.5444 C   0  0  0  0  0  0  0  0  0  0  0  0
   12.9871   38.2650   12.0551 C   0  0  0  0  0  0  0  0  0  0  0  0
   13.3183   39.5573   12.7998 C   0  0  0  0  0  0  0  0  0  0  0  0
   14.5173   40.2423   12.1468 C   0  0  0  0  0  0  0  0  0  0  0  0
   13.4961   43.3110    5.5517 N   0  0  0  0  0  0  0  0  0  0  0  0
   16.9965   42.4452    4.1771 N   0  0  0  0  0  0  0  0  0  0  0  0
   14.3334   40.3761   10.6975 N   0  0  0  0  0  0  0  0  0  0  0  0
   15.0291   44.9059    4.7922 O   0  0  0  0  0  0  0  0  0  0  0  0
   13.4084   45.5614    2.5839 O   0  0  0  0  0  0  0  0  0  0  0  0
   16.5921   40.8294   10.3535 O   0  0  0  0  0  0  0  0  0  0  0  0
   13.7617   42.2054    8.0448 S   0  0  0  0  0  0  0  0  0  0  0  0
  1 18  1  0
  1 24  1  0
  2  3  1  0
  3 22  1  0
  4  5  1  0
  6 22  1  0
  7 24  1  0
  7 12  1  0
  8 10  1  0
  9  8  1  0
 10 11  1  0
 12 20  1  0
 13 20  1  0
 13 14  1  0
 14 15  1  0
 15 16  1  0
 16 17  1  0
 17 20  1  0
 18  2  1  0
  2 21  2  0
  3  4  2  0
  5  6  2  0
  7  8  2  0
 10  1  2  0
 12 23  2  0
 11 19  3  0
M  END
>  <rmsd>  (1) 
0.242171869

$$$$
