MolPort-001-939-484 100542660 MCULE-9037895478 PubChem-3112361 ZINC000100542660
     RDKit          3D

 21 22  0  0  0  0  0  0  0  0999 V2000
   10.6064   38.9265   10.6483 C   0  0  0  0  0  0  0  0  0  0  0  0
   12.1095   39.0080   10.4898 C   0  0  0  0  0  0  0  0  0  0  0  0
   12.7785   38.5892   11.7851 C   0  0  0  0  0  0  0  0  0  0  0  0
   14.2912   38.6812   11.6578 C   0  0  0  0  0  0  0  0  0  0  0  0
   14.7929   40.0846   11.9799 C   0  0  0  0  0  0  0  0  0  0  0  0
   14.5399   41.0519   10.8338 C   0  0  0  0  0  0  0  0  0  0  0  0
   15.4725   40.7567    9.6719 C   0  0  0  0  0  0  0  0  0  0  0  0
   15.1350   41.6254    8.5113 C   0  0  0  0  0  0  0  0  0  0  0  0
   14.2363   42.7864    6.6237 C   0  0  0  0  0  0  0  0  0  0  0  0
   13.9134   44.3554    4.6504 C   0  0  0  0  0  0  0  0  0  0  0  0
   13.0298   44.8152    3.5645 C   0  0  0  0  0  0  0  0  0  0  0  0
   13.4472   45.8302    2.6903 C   0  0  0  0  0  0  0  0  0  0  0  0
   12.6081   46.2657    1.6604 C   0  0  0  0  0  0  0  0  0  0  0  0
   11.3455   45.6896    1.4969 C   0  0  0  0  0  0  0  0  0  0  0  0
   10.9218   44.6781    2.3630 C   0  0  0  0  0  0  0  0  0  0  0  0
   11.7608   44.2426    3.3929 C   0  0  0  0  0  0  0  0  0  0  0  0
   15.9804   42.5493    8.0047 N   0  0  0  0  0  0  0  0  0  0  0  0
   15.4801   43.1983    6.9548 N   0  0  0  0  0  0  0  0  0  0  0  0
   13.4735   43.3173    5.5360 N   0  0  0  0  0  0  0  0  0  0  0  0
   15.0526   44.8773    4.7956 O   0  0  0  0  0  0  0  0  0  0  0  0
   13.6893   41.5662    7.6440 S   0  0  0  0  0  0  0  0  0  0  0  0
  1  2  1  0
  2  3  1  0
  3  4  1  0
  4  5  1  0
  5  6  1  0
  6  7  1  0
  7  8  1  0
  8 21  1  0
  9 19  1  0
  9 21  1  0
 10 11  1  0
 12 13  2  0
 14 15  2  0
 16 11  2  0
 17 18  1  0
 19 10  1  0
  8 17  2  0
  9 18  2  0
 10 20  2  0
 11 12  1  0
 13 14  1  0
 15 16  1  0
M  END
>  <rmsd>  (1) 
0.229964659

$$$$
