MolPort-001-980-658 872057 MCULE-5666138328 PubChem-1131592 ZINC000000872057 ZINC00872057
     RDKit          3D

 29 31  0  0  0  0  0  0  0  0999 V2000
    9.6156   44.7847   -0.3097 C   0  0  0  0  0  0  0  0  0  0  0  0
   11.6238   45.1558    1.0968 C   0  0  0  0  0  0  0  0  0  0  0  0
   12.8501   45.8311    1.3194 C   0  0  0  0  0  0  0  0  0  0  0  0
   12.7605   47.2313   -0.7532 C   0  0  0  0  0  0  0  0  0  0  0  0
   13.5967   45.5304    2.4644 C   0  0  0  0  0  0  0  0  0  0  0  0
   13.1565   44.5783    3.3918 C   0  0  0  0  0  0  0  0  0  0  0  0
   11.9469   43.9151    3.1664 C   0  0  0  0  0  0  0  0  0  0  0  0
   11.1888   44.2011    2.0313 C   0  0  0  0  0  0  0  0  0  0  0  0
   13.9601   44.2756    4.5888 C   0  0  0  0  0  0  0  0  0  0  0  0
   14.2797   42.7222    6.5779 C   0  0  0  0  0  0  0  0  0  0  0  0
   15.6057   42.2953    6.4906 C   0  0  0  0  0  0  0  0  0  0  0  0
   16.4003   42.3681    5.2890 C   0  0  0  0  0  0  0  0  0  0  0  0
   16.0605   41.6799    7.6722 C   0  0  0  0  0  0  0  0  0  0  0  0
   17.4389   41.1198    7.8154 C   0  0  0  0  0  0  0  0  0  0  0  0
   15.0826   41.5952    8.6710 C   0  0  0  0  0  0  0  0  0  0  0  0
   15.2570   41.0406   10.0339 C   0  0  0  0  0  0  0  0  0  0  0  0
   12.9276   40.0685   10.1938 C   0  0  0  0  0  0  0  0  0  0  0  0
   12.8254   38.5710   10.4697 C   0  0  0  0  0  0  0  0  0  0  0  0
   12.9019   38.3121   11.9737 C   0  0  0  0  0  0  0  0  0  0  0  0
   14.2010   38.8762   12.5475 C   0  0  0  0  0  0  0  0  0  0  0  0
   14.2949   40.3714   12.2545 C   0  0  0  0  0  0  0  0  0  0  0  0
   10.8517   45.4320   -0.0376 O   0  0  0  0  0  0  0  0  0  0  0  0
   13.3762   46.8000    0.4517 O   0  0  0  0  0  0  0  0  0  0  0  0
   15.0392   44.8953    4.7948 O   0  0  0  0  0  0  0  0  0  0  0  0
   16.4172   40.9766   10.5242 O   0  0  0  0  0  0  0  0  0  0  0  0
   13.4880   43.3162    5.5424 N   0  0  0  0  0  0  0  0  0  0  0  0
   17.0387   42.4244    4.3253 N   0  0  0  0  0  0  0  0  0  0  0  0
   14.1374   40.5964   10.8198 N   0  0  0  0  0  0  0  0  0  0  0  0
   13.6673   42.2975    8.0797 S   0  0  0  0  0  0  0  0  0  0  0  0
  1 22  1  0
  2 22  1  0
  3 23  1  0
  3  5  2  0
  4 23  1  0
  6  7  2  0
  6  9  1  0
  8  2  2  0
  9 26  1  0
 10 29  1  0
 11 12  1  0
 11 13  1  0
 14 13  1  0
 15 29  1  0
 15 16  1  0
 16 28  1  0
 17 28  1  0
 17 18  1  0
 18 19  1  0
 19 20  1  0
 20 21  1  0
 21 28  1  0
 26 10  1  0
  2  3  1  0
  5  6  1  0
  7  8  1  0
  9 24  2  0
 10 11  2  0
 13 15  2  0
 16 25  2  0
 12 27  3  0
M  END
>  <rmsd>  (1) 
0.207998797

$$$$
