Molport-020-292-986 MCULE-4586714194 PubChem-110265453
     RDKit          3D

 25 27  0  0  0  0  0  0  0  0999 V2000
   12.3510   46.1842    1.8110 C   0  0  0  0  0  0  0  0  0  0  0  0
   13.3162   45.7478    2.8531 C   0  0  0  0  0  0  0  0  0  0  0  0
   14.5630   46.3627    2.9496 C   0  0  0  0  0  0  0  0  0  0  0  0
   15.4400   45.9254    3.9402 C   0  0  0  0  0  0  0  0  0  0  0  0
   13.8495   44.3316    4.6731 C   0  0  0  0  0  0  0  0  0  0  0  0
   14.2272   42.6795    6.6091 C   0  0  0  0  0  0  0  0  0  0  0  0
   15.5609   43.0412    6.8417 C   0  0  0  0  0  0  0  0  0  0  0  0
   16.2732   42.4250    7.8710 C   0  0  0  0  0  0  0  0  0  0  0  0
   15.6545   41.4552    8.6593 C   0  0  0  0  0  0  0  0  0  0  0  0
   14.3211   41.1107    8.4013 C   0  0  0  0  0  0  0  0  0  0  0  0
   13.6151   40.0843    9.2289 C   0  0  2  0  0  0  0  0  0  0  0  0
   13.4401   40.5753   10.6705 C   0  0  0  0  0  0  0  0  0  0  0  0
   13.0493   39.4237   11.5955 C   0  0  0  0  0  0  0  0  0  0  0  0
   13.9798   38.2084   11.4429 C   0  0  0  0  0  0  0  0  0  0  0  0
   14.3196   38.7201    9.1490 C   0  0  0  0  0  0  0  0  0  0  0  0
   15.6696   37.1310   10.2295 C   0  0  0  0  0  0  0  0  0  0  0  0
   17.1177   37.3456    9.8170 C   0  0  0  0  0  0  0  0  0  0  0  0
   17.7149   36.0233    9.3885 C   0  0  0  0  0  0  0  0  0  0  0  0
   17.9173   37.8951   10.9828 C   0  0  0  0  0  0  0  0  0  0  0  0
   16.7800   46.5532    4.0772 C   0  0  0  0  0  0  0  0  0  0  0  0
   15.0709   44.9234    4.7796 N   0  0  0  0  0  0  0  0  0  0  0  0
   12.9829   44.7497    3.7124 N   0  0  0  0  0  0  0  0  0  0  0  0
   13.4506   43.2799    5.5626 N   0  0  0  0  0  0  0  0  0  0  0  0
   13.6485   41.7277    7.3917 N   0  0  0  0  0  0  0  0  0  0  0  0
   14.9977   38.4083   10.4077 N   0  0  0  0  0  0  0  0  0  0  0  0
  1  2  1  0
  2 22  2  0
  3  4  2  0
  5 21  2  0
  5 23  1  0
  6 24  2  0
  7  8  2  0
  9 10  2  0
 11 10  1  6
 11 12  1  0
 12 13  1  0
 13 14  1  0
 14 25  1  0
 15 25  1  0
 15 11  1  0
 16 25  1  0
 16 17  1  0
 17 18  1  0
 17 19  1  0
 20  4  1  0
 23  6  1  0
  2  3  1  0
  4 21  1  0
  5 22  1  0
  6  7  1  0
  8  9  1  0
 10 24  1  0
M  END
>  <rmsd>  (1) 
0.248465985

$$$$
