Molport-046-958-382 MCULE-9124289403 PubChem-110093602
     RDKit          3D

 31 34  0  0  0  0  0  0  0  0999 V2000
   17.6507   42.8715    8.2170 C   0  0  0  0  0  0  0  0  0  0  0  0
   16.2453   42.4752    7.9446 C   0  0  0  0  0  0  0  0  0  0  0  0
   15.5425   43.0769    6.8988 C   0  0  0  0  0  0  0  0  0  0  0  0
   14.2173   42.6981    6.6480 C   0  0  0  0  0  0  0  0  0  0  0  0
   13.6240   41.7223    7.4522 C   0  0  0  0  0  0  0  0  0  0  0  0
   14.3552   41.1449    8.4938 C   0  0  0  0  0  0  0  0  0  0  0  0
   13.7186   40.0986    9.3458 C   0  0  2  0  0  0  0  0  0  0  0  0
   13.7312   40.5111   10.8207 C   0  0  0  0  0  0  0  0  0  0  0  0
   13.6146   39.3134   11.7673 C   0  0  0  0  0  0  0  0  0  0  0  0
   12.9721   38.1210   11.0614 C   0  0  0  0  0  0  0  0  0  0  0  0
   14.4047   38.7430    9.1470 C   0  0  0  0  0  0  0  0  0  0  0  0
   12.9020   36.9265    9.0429 C   0  0  0  0  0  0  0  0  0  0  0  0
   13.4766   35.5895    8.7133 C   0  0  0  0  0  0  0  0  0  0  0  0
   12.8321   34.4252    9.1271 C   0  0  0  0  0  0  0  0  0  0  0  0
   14.4960   33.1136    8.0746 C   0  0  0  0  0  0  0  0  0  0  0  0
   14.6478   35.4711    7.9639 C   0  0  0  0  0  0  0  0  0  0  0  0
   15.0630   31.7721    7.7553 C   0  0  0  0  0  0  0  0  0  0  0  0
   16.0811   31.3553    8.8045 C   0  0  0  0  0  0  0  0  0  0  0  0
   16.4749   30.8056   10.9056 C   0  0  0  0  0  0  0  0  0  0  0  0
   13.8825   44.3051    4.6845 C   0  0  0  0  0  0  0  0  0  0  0  0
   15.2000   45.8661    3.7736 C   0  0  0  0  0  0  0  0  0  0  0  0
   14.1142   46.0025    2.9085 C   0  0  0  0  0  0  0  0  0  0  0  0
   16.4266   46.6972    3.6412 C   0  0  0  0  0  0  0  0  0  0  0  0
   15.6441   41.5289    8.7135 N   0  0  0  0  0  0  0  0  0  0  0  0
   13.7923   37.6546    9.9339 N   0  0  0  0  0  0  0  0  0  0  0  0
   13.3526   33.2117    8.8050 N   0  0  0  0  0  0  0  0  0  0  0  0
   15.1380   34.2395    7.6628 N   0  0  0  0  0  0  0  0  0  0  0  0
   13.4528   43.2725    5.5798 N   0  0  0  0  0  0  0  0  0  0  0  0
   15.0739   44.9337    4.7552 N   0  0  0  0  0  0  0  0  0  0  0  0
   15.4400   31.0927   10.0164 O   0  0  0  0  0  0  0  0  0  0  0  0
   12.9569   44.8869    3.4167 S   0  0  0  0  0  0  0  0  0  0  0  0
  1  2  1  0
  2 24  2  0
  3  4  2  0
  4 28  1  0
  5  6  2  0
  7  6  1  6
  7  8  1  0
  8  9  1  0
  9 10  1  0
 10 25  1  0
 11 25  1  0
 11  7  1  0
 12 25  1  0
 12 13  1  0
 14 26  2  0
 15 27  2  0
 16 13  2  0
 17 15  1  0
 17 18  1  0
 18 30  1  0
 19 30  1  0
 20 31  1  0
 21 29  1  0
 22 31  1  0
 23 21  1  0
 28 20  1  0
  2  3  1  0
  4  5  1  0
  6 24  1  0
 13 14  1  0
 15 26  1  0
 16 27  1  0
 20 29  2  0
 21 22  2  0
M  END
>  <rmsd>  (1) 
0.245414525

$$$$
