MolPort-016-717-605 19717026 MCULE-1433638228 PubChem-46974456 ZINC000019717026
     RDKit          3D

 27 30  0  0  0  0  0  0  0  0999 V2000
   13.0290   39.4922   11.8229 C   0  0  0  0  0  0  0  0  0  0  0  0
   13.2958   38.8047   10.4964 C   0  0  0  0  0  0  0  0  0  0  0  0
   14.7444   40.4893    9.3816 C   0  0  0  0  0  0  0  0  0  0  0  0
   15.8301   40.2541   10.2514 C   0  0  0  0  0  0  0  0  0  0  0  0
   17.0238   40.9896   10.1265 C   0  0  0  0  0  0  0  0  0  0  0  0
   17.1544   41.9701    9.1321 C   0  0  0  0  0  0  0  0  0  0  0  0
   16.0723   42.1852    8.2839 C   0  0  0  0  0  0  0  0  0  0  0  0
   14.3584   42.7798    6.6622 C   0  0  0  0  0  0  0  0  0  0  0  0
   13.8745   44.3399    4.6883 C   0  0  0  0  0  0  0  0  0  0  0  0
   12.8975   44.7621    3.6691 C   0  0  0  0  0  0  0  0  0  0  0  0
   11.6357   44.1566    3.6037 C   0  0  0  0  0  0  0  0  0  0  0  0
   10.7092   44.5565    2.6374 C   0  0  0  0  0  0  0  0  0  0  0  0
   11.0268   45.5685    1.7194 C   0  0  0  0  0  0  0  0  0  0  0  0
    8.8295   45.5652    0.4661 C   0  0  0  0  0  0  0  0  0  0  0  0
    8.0936   44.5012    1.2068 C   0  0  0  0  0  0  0  0  0  0  0  0
   12.2908   46.1725    1.7874 C   0  0  0  0  0  0  0  0  0  0  0  0
   13.2183   45.7733    2.7534 C   0  0  0  0  0  0  0  0  0  0  0  0
   14.8898   41.4684    8.3938 C   0  0  0  0  0  0  0  0  0  0  0  0
   13.5466   39.7703    9.4807 O   0  0  0  0  0  0  0  0  0  0  0  0
   15.0067   44.8928    4.7351 O   0  0  0  0  0  0  0  0  0  0  0  0
   15.9423   43.2780    7.0185 S   0  0  0  0  0  0  0  0  0  0  0  0
   13.5283   43.3038    5.6184 N   0  0  0  0  0  0  0  0  0  0  0  0
   10.0846   45.9934    0.7170 N   0  0  0  0  0  0  0  0  0  0  0  0
   10.3256   46.9391   -0.1755 N   0  0  0  0  0  0  0  0  0  0  0  0
    9.2583   47.0867   -0.9464 N   0  0  0  0  0  0  0  0  0  0  0  0
    8.3066   46.2432   -0.5710 N   0  0  0  0  0  0  0  0  0  0  0  0
   13.9303   41.7971    7.4904 N   0  0  0  0  0  0  0  0  0  0  0  0
  1  2  1  0
  2 19  1  0
  3 19  1  0
  4  5  2  0
  6  7  2  0
  7 21  1  0
  8 21  1  0
  8 22  1  0
  9 10  1  0
 11 12  2  0
 13 23  1  0
 13 16  2  0
 14 23  1  0
 15 14  1  0
 17 10  2  0
 18 27  1  0
 18  3  2  0
 22  9  1  0
 23 24  1  0
 25 26  1  0
  3  4  1  0
  5  6  1  0
  8 27  2  0
  9 20  2  0
 10 11  1  0
 12 13  1  0
 14 26  2  0
 16 17  1  0
 18  7  1  0
 24 25  2  0
M  END
>  <rmsd>  (1) 
0.247338757

$$$$
