MolPort-035-771-294 Molport-051-903-133 44138102 MCULE-1368330722 MCULE-7034198557 PubChem-11454223 PubChem-11454224 PubChem-21874036 ZINC000044138102
     RDKit          3D

 29 32  0  0  0  0  0  0  0  0999 V2000
   12.7562   39.5889   11.8516 C   0  0  0  0  0  0  0  0  0  0  0  0
   13.5306   39.0190   10.6816 C   0  0  0  0  0  0  0  0  0  0  0  0
   14.9243   40.4492    9.2411 C   0  0  0  0  0  0  0  0  0  0  0  0
   16.1192   41.9019    7.6101 C   0  0  0  0  0  0  0  0  0  0  0  0
   15.7808   42.7156    6.6014 C   0  0  0  0  0  0  0  0  0  0  0  0
   16.7081   42.5437    5.4676 C   0  0  0  0  0  0  0  0  0  0  0  0
   17.3311   41.1297    7.2753 C   0  0  0  0  0  0  0  0  0  0  0  0
   14.3969   42.7637    6.6286 C   0  0  0  0  0  0  0  0  0  0  0  0
   13.9068   44.2868    4.6479 C   0  0  0  0  0  0  0  0  0  0  0  0
   12.9896   44.6093    3.5409 C   0  0  0  0  0  0  0  0  0  0  0  0
   13.3329   45.5857    2.5960 C   0  0  0  0  0  0  0  0  0  0  0  0
   12.4631   45.8899    1.5457 C   0  0  0  0  0  0  0  0  0  0  0  0
   11.2327   45.2248    1.4213 C   0  0  0  0  0  0  0  0  0  0  0  0
   10.8948   44.2446    2.3683 C   0  0  0  0  0  0  0  0  0  0  0  0
   11.7648   43.9404    3.4184 C   0  0  0  0  0  0  0  0  0  0  0  0
   10.6413   46.6214   -0.5959 C   0  0  0  0  0  0  0  0  0  0  0  0
   10.2180   46.2194   -2.0065 C   0  0  0  0  0  0  0  0  0  0  0  0
    8.6808   44.6061   -1.2005 C   0  0  0  0  0  0  0  0  0  0  0  0
    9.0153   44.9149    0.2568 C   0  0  0  0  0  0  0  0  0  0  0  0
    8.4879   45.4449   -3.3731 C   0  0  0  0  0  0  0  0  0  0  0  0
   13.6717   40.0124    9.6772 O   0  0  0  0  0  0  0  0  0  0  0  0
   15.9775   39.9661    9.7412 O   0  0  0  0  0  0  0  0  0  0  0  0
   15.0011   44.9045    4.7563 O   0  0  0  0  0  0  0  0  0  0  0  0
   15.0060   41.4587    8.2287 N   0  0  0  0  0  0  0  0  0  0  0  0
   17.7435   41.6080    5.9434 N   0  0  0  0  0  0  0  0  0  0  0  0
   13.9441   41.9895    7.6374 N   0  0  0  0  0  0  0  0  0  0  0  0
   13.5357   43.2970    5.6164 N   0  0  0  0  0  0  0  0  0  0  0  0
   10.3397   45.5325    0.3342 N   0  0  0  0  0  0  0  0  0  0  0  0
    8.8133   45.8165   -2.0085 N   0  0  0  0  0  0  0  0  0  0  0  0
  1  2  1  0
  2 21  1  0
  3 21  1  0
  3 24  1  0
  5  8  1  0
  6  5  1  0
  6 25  1  0
  7 25  1  0
  7  4  1  0
  8 27  1  0
  9 10  1  0
 11 12  2  0
 13 14  2  0
 13 28  1  0
 15 10  2  0
 16 28  1  0
 16 17  1  0
 17 29  1  0
 18 29  1  0
 18 19  1  0
 19 28  1  0
 20 29  1  0
 24  4  1  0
 24 26  1  0
 27  9  1  0
  3 22  2  0
  4  5  2  0
  8 26  2  0
  9 23  2  0
 10 11  1  0
 12 13  1  0
 14 15  1  0
M  END
>  <rmsd>  (1) 
0.22405161

$$$$
