MolPort-005-073-458 12835630 CSSS00159491738 MCULE-1852119178 PubChem-25544661 ZINC000012835630
     RDKit          3D

 32 35  0  0  0  0  0  0  0  0999 V2000
   10.4082   45.2049    0.3335 C   0  0  0  0  0  0  0  0  0  0  0  0
   12.5185   45.8708    1.4463 C   0  0  0  0  0  0  0  0  0  0  0  0
   13.4179   45.6832    2.5101 C   0  0  0  0  0  0  0  0  0  0  0  0
   13.9484   44.3189    4.6201 C   0  0  0  0  0  0  0  0  0  0  0  0
   14.1753   42.8197    6.6689 C   0  0  0  0  0  0  0  0  0  0  0  0
   15.4481   43.1780    7.0723 C   0  0  0  0  0  0  0  0  0  0  0  0
   15.6509   42.4131    8.2157 C   0  0  0  0  0  0  0  0  0  0  0  0
   12.3464   41.2996    7.4240 C   0  0  0  0  0  0  0  0  0  0  0  0
   12.4472   39.7715    7.2946 C   0  0  0  0  0  0  0  0  0  0  0  0
   12.1603   39.0442    8.6095 C   0  0  0  0  0  0  0  0  0  0  0  0
   12.4927   39.0347   10.9277 C   0  0  0  0  0  0  0  0  0  0  0  0
   13.5883   39.3979   11.9160 C   0  0  0  0  0  0  0  0  0  0  0  0
   14.9488   38.9777   11.3715 C   0  0  0  0  0  0  0  0  0  0  0  0
   16.0996   39.3562   12.2576 C   0  0  0  0  0  0  0  0  0  0  0  0
   17.3936   39.0293   11.8381 C   0  0  0  0  0  0  0  0  0  0  0  0
   18.4990   39.3616   12.6276 C   0  0  0  0  0  0  0  0  0  0  0  0
   18.3155   40.0241   13.8445 C   0  0  0  0  0  0  0  0  0  0  0  0
   17.0270   40.3558   14.2714 C   0  0  0  0  0  0  0  0  0  0  0  0
   15.9221   40.0243   13.4812 C   0  0  0  0  0  0  0  0  0  0  0  0
   11.6639   40.9753    9.8891 C   0  0  0  0  0  0  0  0  0  0  0  0
   11.4467   41.7589    8.5809 C   0  0  0  0  0  0  0  0  0  0  0  0
   14.5677   46.4849    2.5901 C   0  0  0  0  0  0  0  0  0  0  0  0
   14.8245   47.4594    1.6233 C   0  0  0  0  0  0  0  0  0  0  0  0
   13.9327   47.6429    0.5657 C   0  0  0  0  0  0  0  0  0  0  0  0
   12.7848   46.8528    0.4770 C   0  0  0  0  0  0  0  0  0  0  0  0
   11.3716   45.0722    1.3696 O   0  0  0  0  0  0  0  0  0  0  0  0
   15.0673   44.8691    4.8080 O   0  0  0  0  0  0  0  0  0  0  0  0
   13.1331   44.6804    3.4980 N   0  0  0  0  0  0  0  0  0  0  0  0
   13.4691   43.3182    5.5249 N   0  0  0  0  0  0  0  0  0  0  0  0
   14.5591   41.6577    8.4573 N   0  0  0  0  0  0  0  0  0  0  0  0
   13.6708   41.9094    7.5123 N   0  0  0  0  0  0  0  0  0  0  0  0
   12.5998   39.8590    9.7348 N   0  0  0  0  0  0  0  0  0  0  0  0
  1 26  1  0
  2 26  1  0
  3 28  1  0
  3 22  2  0
  4 29  1  0
  6  7  1  0
  8 31  1  0
  8  9  1  0
  9 10  1  0
 10 32  1  0
 11 32  1  0
 11 12  1  0
 12 13  1  0
 13 14  1  0
 15 16  2  0
 17 18  2  0
 19 14  2  0
 20 32  1  0
 20 21  1  0
 21  8  1  0
 23 24  2  0
 25  2  2  0
 28  4  1  0
 29  5  1  0
 31 30  1  0
 31  5  1  0
  2  3  1  0
  4 27  2  0
  5  6  2  0
  7 30  2  0
 14 15  1  0
 16 17  1  0
 18 19  1  0
 22 23  1  0
 24 25  1  0
M  END
>  <rmsd>  (1) 
0.246072471

$$$$
