MolPort-002-865-760 5681538 CHEMBL4583059 CSSS00138423840 MCULE-3822519898 PubChem-4417892 ZINC000005681538 ZINC05681538
     RDKit          3D

 22 24  0  0  0  0  0  0  0  0999 V2000
   15.0447   44.8708    4.7972 O   0  0  0  0  0  0  0  0  0  0  0  0
   17.1274   42.7400    8.5098 O   0  0  0  0  0  0  0  0  0  0  0  0
   16.6516   40.5258   10.0540 O   0  0  0  0  0  0  0  0  0  0  0  0
   13.9064   44.3437    4.6632 C   0  0  0  0  0  0  0  0  0  0  0  0
   14.2546   42.7905    6.6410 C   0  0  0  0  0  0  0  0  0  0  0  0
   15.9782   42.5069    8.0493 C   0  0  0  0  0  0  0  0  0  0  0  0
   15.4524   40.6868    9.6999 C   0  0  0  0  0  0  0  0  0  0  0  0
   14.4006   39.9597   10.4386 C   0  0  0  0  0  0  0  0  0  0  0  0
   13.0299   40.1559   10.3522 C   0  0  0  0  0  0  0  0  0  0  0  0
   12.2988   39.3270   11.2154 C   0  0  0  0  0  0  0  0  0  0  0  0
   13.0786   38.4774   11.9957 C   0  0  0  0  0  0  0  0  0  0  0  0
   13.0129   44.7940    3.5814 C   0  0  0  0  0  0  0  0  0  0  0  0
   13.4197   45.8058    2.6986 C   0  0  0  0  0  0  0  0  0  0  0  0
   12.5712   46.2323    1.6727 C   0  0  0  0  0  0  0  0  0  0  0  0
   11.3097   45.6503    1.5218 C   0  0  0  0  0  0  0  0  0  0  0  0
   10.8965   44.6420    2.3966 C   0  0  0  0  0  0  0  0  0  0  0  0
   11.7449   44.2155    3.4226 C   0  0  0  0  0  0  0  0  0  0  0  0
   13.4776   43.3090    5.5579 N   0  0  0  0  0  0  0  0  0  0  0  0
   15.5010   43.1979    6.9691 N   0  0  0  0  0  0  0  0  0  0  0  0
   15.1520   41.5675    8.5990 N   0  0  0  0  0  0  0  0  0  0  0  0
   13.7638   41.5892    7.6798 S   0  0  0  0  0  0  0  0  0  0  0  0
   14.6835   38.7761   11.5942 S   0  0  0  0  0  0  0  0  0  0  0  0
  4 18  1  0
  4 12  1  0
  5 21  1  0
  6 19  1  0
  6 20  1  0
  7  8  1  0
  8 22  1  0
  9 10  1  0
 11 22  1  0
 13 14  2  0
 15 16  2  0
 17 12  2  0
 18  5  1  0
 20 21  1  0
 20  7  1  0
  4  1  2  0
  5 19  2  0
  6  2  2  0
  7  3  2  0
  8  9  2  0
 10 11  2  0
 12 13  1  0
 14 15  1  0
 16 17  1  0
M  END
>  <rmsd>  (1) 
0.222310334

$$$$
