MolPort-002-773-376 20607015 CSSS00133006964 MCULE-3488812957 PubChem-19617137 ZINC000020607015 ZINC20607015
     RDKit          3D

 26 28  0  0  0  0  0  0  0  0999 V2000
   12.9892   38.5944   10.9457 C   0  0  0  0  0  0  0  0  0  0  0  0
   13.6777   39.8431   11.4639 C   0  0  0  0  0  0  0  0  0  0  0  0
   13.7475   40.8998   10.3764 C   0  0  0  0  0  0  0  0  0  0  0  0
   14.8239   40.5475    9.3628 C   0  0  0  0  0  0  0  0  0  0  0  0
   14.3200   42.7777    6.6502 C   0  0  0  0  0  0  0  0  0  0  0  0
   13.8917   44.3414    4.6826 C   0  0  0  0  0  0  0  0  0  0  0  0
   12.9512   44.7776    3.6431 C   0  0  0  0  0  0  0  0  0  0  0  0
   13.2305   45.7855    2.6970 C   0  0  0  0  0  0  0  0  0  0  0  0
   12.1230   45.9361    1.8738 C   0  0  0  0  0  0  0  0  0  0  0  0
   11.0927   45.1347    2.1379 C   0  0  0  0  0  0  0  0  0  0  0  0
    8.8343   44.6113    1.2016 C   0  0  0  0  0  0  0  0  0  0  0  0
   11.7344   46.6740    0.7731 C   0  0  0  0  0  0  0  0  0  0  0  0
   12.5614   47.6647    0.0181 C   0  0  0  0  0  0  0  0  0  0  0  0
   15.6103   43.1848    6.9704 C   0  0  0  0  0  0  0  0  0  0  0  0
   15.9162   42.3697    8.0438 C   0  0  0  0  0  0  0  0  0  0  0  0
   17.2067   42.3832    8.7886 C   0  0  0  0  0  0  0  0  0  0  0  0
   14.8776   41.5603    8.3186 N   0  0  0  0  0  0  0  0  0  0  0  0
   13.8951   41.7973    7.4690 N   0  0  0  0  0  0  0  0  0  0  0  0
   13.5095   43.3019    5.5924 N   0  0  0  0  0  0  0  0  0  0  0  0
   10.0997   45.3199    1.2622 N   0  0  0  0  0  0  0  0  0  0  0  0
   10.4864   46.2637    0.4066 N   0  0  0  0  0  0  0  0  0  0  0  0
   15.0261   44.8850    4.7659 O   0  0  0  0  0  0  0  0  0  0  0  0
   11.3810   44.1097    3.4239 S   0  0  0  0  0  0  0  0  0  0  0  0
   13.4738   46.9932   -0.7737 F   0  0  0  0  0  0  0  0  0  0  0  0
   11.7492   48.4444   -0.7849 F   0  0  0  0  0  0  0  0  0  0  0  0
   13.2393   48.4831    0.9029 F   0  0  0  0  0  0  0  0  0  0  0  0
  1  2  1  0
  2  3  1  0
  3  4  1  0
  4 17  1  0
  5 19  1  0
  5 14  1  0
  6  7  1  0
  7 23  1  0
  8  9  1  0
 10 23  1  0
 10 20  1  0
 11 20  1  0
 12  9  1  0
 13 12  1  0
 13 24  1  0
 13 25  1  0
 13 26  1  0
 15 17  1  0
 16 15  1  0
 17 18  1  0
 19  6  1  0
 20 21  1  0
  5 18  2  0
  6 22  2  0
  7  8  2  0
  9 10  2  0
 12 21  2  0
 14 15  2  0
M  END
>  <rmsd>  (1) 
0.163026482

$$$$
