MolPort-006-579-735 ChemDiv-V009-7327 MCULE-1583866068 PubChem-46040699 ZINC000037544396 ZINC37544396
     RDKit          3D

 30 33  0  0  0  0  0  0  0  0999 V2000
   12.4029   35.4343    5.0952 C   0  0  0  0  0  0  0  0  0  0  0  0
   11.9808   34.8230    7.4543 C   0  0  0  0  0  0  0  0  0  0  0  0
   11.9922   33.8327    8.4424 C   0  0  0  0  0  0  0  0  0  0  0  0
   11.6022   34.1356    9.7504 C   0  0  0  0  0  0  0  0  0  0  0  0
   11.1968   35.4326   10.0768 C   0  0  0  0  0  0  0  0  0  0  0  0
   11.1762   36.4277    9.0945 C   0  0  0  0  0  0  0  0  0  0  0  0
   10.7670   37.8184    9.4486 C   0  0  0  0  0  0  0  0  0  0  0  0
   12.4052   38.4924   11.2219 C   0  0  0  0  0  0  0  0  0  0  0  0
   13.2979   39.6676   11.6056 C   0  0  0  0  0  0  0  0  0  0  0  0
   14.4150   39.7901   10.5819 C   0  0  0  0  0  0  0  0  0  0  0  0
   12.6922   39.3240    8.8548 C   0  0  0  0  0  0  0  0  0  0  0  0
   14.4351   41.1256    8.4563 C   0  0  0  0  0  0  0  0  0  0  0  0
   15.7336   41.5879    8.7276 C   0  0  0  0  0  0  0  0  0  0  0  0
   16.3005   42.6094    7.9624 C   0  0  0  0  0  0  0  0  0  0  0  0
   15.5735   43.1844    6.9186 C   0  0  0  0  0  0  0  0  0  0  0  0
   14.2739   42.7431    6.6341 C   0  0  0  0  0  0  0  0  0  0  0  0
   13.8920   44.3584    4.6779 C   0  0  0  0  0  0  0  0  0  0  0  0
   12.9601   44.8178    3.6421 C   0  0  0  0  0  0  0  0  0  0  0  0
   11.6823   44.3251    3.4275 C   0  0  0  0  0  0  0  0  0  0  0  0
   11.0271   44.9613    2.3629 C   0  0  0  0  0  0  0  0  0  0  0  0
   11.7770   45.9531    1.7343 C   0  0  0  0  0  0  0  0  0  0  0  0
   13.7150   41.7202    7.4066 C   0  0  0  0  0  0  0  0  0  0  0  0
   11.5719   36.1246    7.7877 C   0  0  0  0  0  0  0  0  0  0  0  0
   12.3796   34.4900    6.1570 O   0  0  0  0  0  0  0  0  0  0  0  0
   12.3424   39.2913    7.6430 O   0  0  0  0  0  0  0  0  0  0  0  0
   15.0309   44.8900    4.7695 O   0  0  0  0  0  0  0  0  0  0  0  0
   11.9274   38.6085    9.8429 N   0  0  0  0  0  0  0  0  0  0  0  0
   13.8508   40.0798    9.2639 N   0  0  0  0  0  0  0  0  0  0  0  0
   13.4940   43.3096    5.5726 N   0  0  0  0  0  0  0  0  0  0  0  0
   13.2627   46.0268    2.5199 S   0  0  0  0  0  0  0  0  0  0  0  0
  1 24  1  0
  2 24  1  0
  3  4  2  0
  5  6  2  0
  7  6  1  0
  7 27  1  0
  8 27  1  0
  8  9  1  0
  9 10  1  0
 10 28  1  0
 11 27  1  0
 13 14  2  0
 15 16  2  0
 16 29  1  0
 17 18  1  0
 18 30  1  0
 19 20  1  0
 21 30  1  0
 22 12  2  0
 23  2  2  0
 28 11  1  0
 28 12  1  0
 29 17  1  0
  2  3  1  0
  4  5  1  0
  6 23  1  0
 11 25  2  0
 12 13  1  0
 14 15  1  0
 16 22  1  0
 17 26  2  0
 18 19  2  0
 20 21  2  0
M  END
>  <rmsd>  (1) 
0.249635026

$$$$
