MolPort-002-849-484 8715574 LN01241864 MCULE-7102647929 PubChem-11842440 ZINC000008715574 ZINC08715574
     RDKit          3D

 25 27  0  0  0  0  0  0  0  0999 V2000
   12.2433   46.2735    1.9343 C   0  0  0  0  0  0  0  0  0  0  0  0
   13.3940   45.9584    2.8664 C   0  0  0  0  0  0  0  0  0  0  0  0
   13.8997   44.3889    4.6923 C   0  0  0  0  0  0  0  0  0  0  0  0
   14.2506   42.6987    6.5534 C   0  0  0  0  0  0  0  0  0  0  0  0
   16.0312   42.3184    7.8788 C   0  0  0  0  0  0  0  0  0  0  0  0
   15.1537   41.3391    8.3811 C   0  0  0  0  0  0  0  0  0  0  0  0
   15.4567   40.2732    9.3594 C   0  0  0  0  0  0  0  0  0  0  0  0
   14.4707   39.8378   10.3729 C   0  0  0  0  0  0  0  0  0  0  0  0
   14.7071   38.6874   11.1379 C   0  0  0  0  0  0  0  0  0  0  0  0
   12.6727   38.9934   12.3228 C   0  0  0  0  0  0  0  0  0  0  0  0
   12.3966   40.1499   11.5923 C   0  0  0  0  0  0  0  0  0  0  0  0
   13.3019   40.5711   10.6177 C   0  0  0  0  0  0  0  0  0  0  0  0
   17.3871   42.6046    8.3972 C   0  0  0  0  0  0  0  0  0  0  0  0
   18.3308   43.2212    7.5621 C   0  0  0  0  0  0  0  0  0  0  0  0
   19.6055   43.5358    8.0422 C   0  0  0  0  0  0  0  0  0  0  0  0
   19.9444   43.2463    9.3662 C   0  0  0  0  0  0  0  0  0  0  0  0
   19.0072   42.6470   10.2112 C   0  0  0  0  0  0  0  0  0  0  0  0
   17.7329   42.3331    9.7300 C   0  0  0  0  0  0  0  0  0  0  0  0
   13.0274   44.8899    3.7263 O   0  0  0  0  0  0  0  0  0  0  0  0
   15.0537   44.8814    4.8271 O   0  0  0  0  0  0  0  0  0  0  0  0
   16.5791   39.7007    9.3073 O   0  0  0  0  0  0  0  0  0  0  0  0
   13.4648   43.3100    5.5258 N   0  0  0  0  0  0  0  0  0  0  0  0
   15.5127   43.0641    6.8628 N   0  0  0  0  0  0  0  0  0  0  0  0
   13.8129   38.2924   12.0838 N   0  0  0  0  0  0  0  0  0  0  0  0
   13.7119   41.4338    7.5097 S   0  0  0  0  0  0  0  0  0  0  0  0
  1  2  1  0
  2 19  1  0
  3 19  1  0
  3 22  1  0
  4 25  1  0
  5 23  1  0
  5 13  1  0
  6 25  1  0
  6  7  1  0
  7  8  1  0
  9 24  2  0
 10 11  2  0
 12  8  2  0
 14 15  2  0
 16 17  2  0
 18 13  2  0
 22  4  1  0
  3 20  2  0
  4 23  2  0
  5  6  2  0
  7 21  2  0
  8  9  1  0
 10 24  1  0
 11 12  1  0
 13 14  1  0
 15 16  1  0
 17 18  1  0
M  END
>  <rmsd>  (1) 
0.217149824

$$$$
