MolPort-046-971-536 MCULE-6973823244 PubChem-110111462
     RDKit          3D

 27 30  0  0  0  0  0  0  0  0999 V2000
   16.7980   46.5483    4.1206 C   0  0  0  0  0  0  0  0  0  0  0  0
   15.4865   45.8837    3.9190 C   0  0  0  0  0  0  0  0  0  0  0  0
   13.8722   44.2921    4.6370 C   0  0  0  0  0  0  0  0  0  0  0  0
   13.0333   44.6433    3.5759 C   0  0  0  0  0  0  0  0  0  0  0  0
   13.4369   45.6347    2.6792 C   0  0  0  0  0  0  0  0  0  0  0  0
   14.6692   46.2662    2.8526 C   0  0  0  0  0  0  0  0  0  0  0  0
   14.2319   42.7135    6.6120 C   0  0  0  0  0  0  0  0  0  0  0  0
   16.3312   42.4095    7.6925 C   0  0  0  0  0  0  0  0  0  0  0  0
   15.7555   41.5273    8.6095 C   0  0  0  0  0  0  0  0  0  0  0  0
   14.3835   41.2493    8.5272 C   0  0  0  0  0  0  0  0  0  0  0  0
   13.6250   41.8330    7.5105 C   0  0  0  0  0  0  0  0  0  0  0  0
   13.7232   40.2785    9.4546 C   0  0  2  0  0  0  0  0  0  0  0  0
   14.1845   40.4117   10.9032 C   0  0  0  0  0  0  0  0  0  0  0  0
   13.3775   39.4820   11.8055 C   0  0  0  0  0  0  0  0  0  0  0  0
   12.8833   38.2299   11.0688 C   0  0  0  0  0  0  0  0  0  0  0  0
   13.8671   38.8339    8.9492 C   0  0  0  0  0  0  0  0  0  0  0  0
   13.3156   36.6150    9.4245 C   0  0  0  0  0  0  0  0  0  0  0  0
   13.8551   35.4140   10.1302 C   0  0  0  0  0  0  0  0  0  0  0  0
   13.9295   33.6321   11.2977 C   0  0  0  0  0  0  0  0  0  0  0  0
   15.2066   33.8949   10.8247 C   0  0  0  0  0  0  0  0  0  0  0  0
   16.2461   35.6534    9.3997 C   0  0  0  0  0  0  0  0  0  0  0  0
   15.0731   44.9187    4.7835 N   0  0  0  0  0  0  0  0  0  0  0  0
   13.4465   43.2810    5.5588 N   0  0  0  0  0  0  0  0  0  0  0  0
   15.5658   42.9782    6.7225 N   0  0  0  0  0  0  0  0  0  0  0  0
   13.8310   37.8319   10.0246 N   0  0  0  0  0  0  0  0  0  0  0  0
   13.0828   34.5852   10.8559 N   0  0  0  0  0  0  0  0  0  0  0  0
   15.1385   35.0190   10.0966 N   0  0  0  0  0  0  0  0  0  0  0  0
  1  2  1  0
  3 22  2  0
  3 23  1  0
  4  5  2  0
  6  2  2  0
  8 24  2  0
  9 10  2  0
 11  7  2  0
 12 10  1  6
 12 13  1  0
 13 14  1  0
 14 15  1  0
 15 25  1  0
 16 25  1  0
 16 12  1  0
 17 25  1  0
 17 18  1  0
 19 26  1  0
 20 27  1  0
 21 27  1  0
 23  7  1  0
 27 18  1  0
  2 22  1  0
  3  4  1  0
  5  6  1  0
  7 24  1  0
  8  9  1  0
 10 11  1  0
 18 26  2  0
 19 20  2  0
M  END
>  <rmsd>  (1) 
0.243258908

$$$$
