MolPort-028-889-922 ChemDiv-V030-3017 MCULE-1497383710 PubChem-83281344 ZINC000096275279
     RDKit          3D

 30 32  0  0  0  0  0  0  0  0999 V2000
   12.6946   43.7190    2.6182 C   0  0  0  0  0  0  0  0  0  0  0  0
   12.9743   44.8326    3.6086 C   0  0  0  0  0  0  0  0  0  0  0  0
   13.9035   44.3561    4.6699 C   0  0  0  0  0  0  0  0  0  0  0  0
   14.2531   42.7332    6.6247 C   0  0  0  0  0  0  0  0  0  0  0  0
   13.6643   41.7123    7.4031 C   0  0  0  0  0  0  0  0  0  0  0  0
   14.3694   41.1096    8.4590 C   0  0  0  0  0  0  0  0  0  0  0  0
   15.6675   41.5551    8.7079 C   0  0  0  0  0  0  0  0  0  0  0  0
   16.2373   40.1261   10.6793 C   0  0  0  0  0  0  0  0  0  0  0  0
   15.4487   40.7240   11.8043 C   0  0  0  0  0  0  0  0  0  0  0  0
   14.1146   40.3427   12.0468 C   0  0  0  0  0  0  0  0  0  0  0  0
   13.4313   39.3158   11.2087 C   0  0  0  0  0  0  0  0  0  0  0  0
   13.4058   40.9275   13.1014 C   0  0  0  0  0  0  0  0  0  0  0  0
   14.0155   41.8856   13.9155 C   0  0  0  0  0  0  0  0  0  0  0  0
   15.3395   42.2620   13.6792 C   0  0  0  0  0  0  0  0  0  0  0  0
   15.9892   43.2797   14.5452 C   0  0  0  0  0  0  0  0  0  0  0  0
   16.0531   41.6824   12.6278 C   0  0  0  0  0  0  0  0  0  0  0  0
   17.6469   41.8728    9.4994 C   0  0  0  0  0  0  0  0  0  0  0  0
   17.5180   42.7752    8.4384 C   0  0  0  0  0  0  0  0  0  0  0  0
   16.2447   42.5436    7.9590 C   0  0  0  0  0  0  0  0  0  0  0  0
   15.5693   43.1576    6.9081 C   0  0  0  0  0  0  0  0  0  0  0  0
   18.8690   41.7579   10.3213 C   0  0  0  0  0  0  0  0  0  0  0  0
   20.1744   40.5691   12.1398 C   0  0  0  0  0  0  0  0  0  0  0  0
   21.1180   39.6091   11.4342 C   0  0  0  0  0  0  0  0  0  0  0  0
   22.3280   39.1867    9.6391 C   0  0  0  0  0  0  0  0  0  0  0  0
   15.0377   44.8924    4.7789 O   0  0  0  0  0  0  0  0  0  0  0  0
   19.8326   42.5442   10.1119 O   0  0  0  0  0  0  0  0  0  0  0  0
   21.6770   40.2196   10.3115 O   0  0  0  0  0  0  0  0  0  0  0  0
   13.4864   43.3107    5.5593 N   0  0  0  0  0  0  0  0  0  0  0  0
   16.5174   41.1311    9.6570 N   0  0  0  0  0  0  0  0  0  0  0  0
   18.9687   40.7683   11.3487 N   0  0  0  0  0  0  0  0  0  0  0  0
  1  2  1  0
  2  3  1  0
  3 28  1  0
  5  6  2  0
  7 29  1  0
  8 29  1  0
  8  9  1  0
 10 12  2  0
 11 10  1  0
 13 14  2  0
 15 14  1  0
 16  9  2  0
 17 21  1  0
 18 19  1  0
 19  7  2  0
 20  4  2  0
 21 30  1  0
 22 30  1  0
 22 23  1  0
 23 27  1  0
 24 27  1  0
 28  4  1  0
 29 17  1  0
  3 25  2  0
  4  5  1  0
  6  7  1  0
  9 10  1  0
 12 13  1  0
 14 16  1  0
 17 18  2  0
 19 20  1  0
 21 26  2  0
M  END
>  <rmsd>  (1) 
0.232913122

$$$$
