MolPort-044-755-744 MCULE-6831971330 PubChem-12066245
     RDKit          3D

 18 18  0  0  0  0  0  0  0  0999 V2000
   12.6062   39.2760   11.6134 C   0  0  0  0  0  0  0  0  0  0  0  0
   13.7648   38.9404   10.6978 C   0  0  0  0  0  0  0  0  0  0  0  0
   14.9709   40.6893    9.4539 C   0  0  0  0  0  0  0  0  0  0  0  0
   14.9869   41.6662    8.3598 C   0  0  0  0  0  0  0  0  0  0  0  0
   16.0464   42.5043    8.0609 C   0  0  0  0  0  0  0  0  0  0  0  0
   15.6391   43.2497    6.9699 C   0  0  0  0  0  0  0  0  0  0  0  0
   14.3587   42.8123    6.6811 C   0  0  0  0  0  0  0  0  0  0  0  0
   13.8820   44.3238    4.6826 C   0  0  0  0  0  0  0  0  0  0  0  0
   13.1721   45.6909    2.7043 C   0  0  0  0  0  0  0  0  0  0  0  0
   14.3508   45.3200    1.8210 C   0  0  0  0  0  0  0  0  0  0  0  0
   13.4172   47.0448    3.3481 C   0  0  0  0  0  0  0  0  0  0  0  0
   11.9361   45.7910    1.8358 C   0  0  0  0  0  0  0  0  0  0  0  0
   13.8372   39.8993    9.6533 O   0  0  0  0  0  0  0  0  0  0  0  0
   15.9765   40.5688   10.2064 O   0  0  0  0  0  0  0  0  0  0  0  0
   15.0104   44.8852    4.7383 O   0  0  0  0  0  0  0  0  0  0  0  0
   12.9514   44.6894    3.7006 O   0  0  0  0  0  0  0  0  0  0  0  0
   13.9512   41.8476    7.5218 N   0  0  0  0  0  0  0  0  0  0  0  0
   13.5284   43.3015    5.6210 N   0  0  0  0  0  0  0  0  0  0  0  0
  1  2  1  0
  2 13  1  0
  3 13  1  0
  3  4  1  0
  5  6  1  0
  7 17  1  0
  7 18  1  0
  8 16  1  0
  9 16  1  0
  9 10  1  0
  9 11  1  0
  9 12  1  0
 17  4  1  0
 18  8  1  0
  3 14  2  0
  4  5  2  0
  6  7  2  0
  8 15  2  0
M  END
>  <rmsd>  (1) 
0.239999026

$$$$
