MolPort-019-766-990 CSSS09431944226 PubChem-851890 ZINC000000386788 ZINC00386788
     RDKit          3D

 20 21  0  0  0  0  0  0  0  0999 V2000
   14.3805   45.2635    1.7305 C   0  0  0  0  0  0  0  0  0  0  0  0
   13.3803   45.8038    2.7363 C   0  0  0  0  0  0  0  0  0  0  0  0
   13.9025   44.3555    4.6738 C   0  0  0  0  0  0  0  0  0  0  0  0
   14.2665   42.7602    6.6147 C   0  0  0  0  0  0  0  0  0  0  0  0
   16.0317   42.4639    7.9669 C   0  0  0  0  0  0  0  0  0  0  0  0
   17.4028   42.7494    8.4758 C   0  0  0  0  0  0  0  0  0  0  0  0
   15.1736   41.5036    8.5195 C   0  0  0  0  0  0  0  0  0  0  0  0
   15.4887   40.5678    9.6268 C   0  0  0  0  0  0  0  0  0  0  0  0
   14.4415   39.9135   10.4459 C   0  0  0  0  0  0  0  0  0  0  0  0
   13.1329   40.4182   10.5016 C   0  0  0  0  0  0  0  0  0  0  0  0
   12.1658   39.8023   11.3012 C   0  0  0  0  0  0  0  0  0  0  0  0
   12.5001   38.6786   12.0605 C   0  0  0  0  0  0  0  0  0  0  0  0
   13.8018   38.1734   12.0225 C   0  0  0  0  0  0  0  0  0  0  0  0
   14.7677   38.7904   11.2222 C   0  0  0  0  0  0  0  0  0  0  0  0
   13.0283   44.7955    3.6767 O   0  0  0  0  0  0  0  0  0  0  0  0
   15.0441   44.8784    4.7984 O   0  0  0  0  0  0  0  0  0  0  0  0
   16.6979   40.3111    9.8769 O   0  0  0  0  0  0  0  0  0  0  0  0
   13.4793   43.3092    5.5535 N   0  0  0  0  0  0  0  0  0  0  0  0
   15.5204   43.1604    6.9166 N   0  0  0  0  0  0  0  0  0  0  0  0
   13.7392   41.5327    7.6278 S   0  0  0  0  0  0  0  0  0  0  0  0
  1  2  1  0
  2 15  1  0
  3 15  1  0
  3 18  1  0
  4 20  1  0
  5 19  1  0
  6  5  1  0
  7 20  1  0
  7  8  1  0
  8  9  1  0
 10 11  2  0
 12 13  2  0
 14  9  2  0
 18  4  1  0
  3 16  2  0
  4 19  2  0
  5  7  2  0
  8 17  2  0
  9 10  1  0
 11 12  1  0
 13 14  1  0
M  END
>  <rmsd>  (1) 
0.187338173

$$$$
