MolPort-002-996-116 6138554 CSSS00132429919 MCULE-9708141520 PubChem-4017425 ZINC000006138554 ZINC06138554
     RDKit          3D

 23 24  0  0  0  0  0  0  0  0999 V2000
   13.1731   38.6380   11.0293 C   0  0  0  0  0  0  0  0  0  0  0  0
   13.8238   39.9270   11.4953 C   0  0  0  0  0  0  0  0  0  0  0  0
   13.8141   40.9584   10.3815 C   0  0  0  0  0  0  0  0  0  0  0  0
   14.8722   40.6272    9.3422 C   0  0  0  0  0  0  0  0  0  0  0  0
   14.2634   42.7708    6.6343 C   0  0  0  0  0  0  0  0  0  0  0  0
   13.9133   44.3406    4.6723 C   0  0  0  0  0  0  0  0  0  0  0  0
   13.0171   44.7715    3.5625 C   0  0  0  0  0  0  0  0  0  0  0  0
   13.1686   42.8714    1.9674 C   0  0  0  0  0  0  0  0  0  0  0  0
   13.6897   42.3785    0.7695 C   0  0  0  0  0  0  0  0  0  0  0  0
   13.4392   41.0623    0.3713 C   0  0  0  0  0  0  0  0  0  0  0  0
   14.0198   40.5847   -0.9156 C   0  0  0  0  0  0  0  0  0  0  0  0
   12.6543   40.2190    1.1803 C   0  0  0  0  0  0  0  0  0  0  0  0
   12.1261   40.7152    2.3868 C   0  0  0  0  0  0  0  0  0  0  0  0
   11.2893   39.8634    3.2787 C   0  0  0  0  0  0  0  0  0  0  0  0
   12.3836   42.0331    2.7715 C   0  0  0  0  0  0  0  0  0  0  0  0
   14.8453   41.6104    8.2729 N   0  0  0  0  0  0  0  0  0  0  0  0
   15.8498   42.4203    7.9863 N   0  0  0  0  0  0  0  0  0  0  0  0
   15.5116   43.1722    6.9511 N   0  0  0  0  0  0  0  0  0  0  0  0
   13.4834   43.3043    5.5605 N   0  0  0  0  0  0  0  0  0  0  0  0
   13.8288   41.7914    7.4472 N   0  0  0  0  0  0  0  0  0  0  0  0
   15.0466   44.8760    4.7986 O   0  0  0  0  0  0  0  0  0  0  0  0
   13.4421   44.1947    2.3315 O   0  0  0  0  0  0  0  0  0  0  0  0
   12.3347   38.5545    0.6858 Cl  0  0  0  0  0  0  0  0  0  0  0  0
  1  2  1  0
  2  3  1  0
  3  4  1  0
  4 16  1  0
  5 18  1  0
  5 19  1  0
  7  6  1  0
  7 22  1  0
  8 22  1  0
  9 10  2  0
 11 10  1  0
 12 23  1  0
 12 13  2  0
 14 13  1  0
 15  8  2  0
 16 17  1  0
 16 20  1  0
 19  6  1  0
  5 20  2  0
  6 21  2  0
  8  9  1  0
 10 12  1  0
 13 15  1  0
 17 18  2  0
M  END
>  <rmsd>  (1) 
0.160010487

$$$$
