MolPort-016-906-836 ChemDiv-V029-4306 MCULE-6046758830 PubChem-45970893 ZINC000037385251 ZINC37385251
     RDKit          3D

 32 35  0  0  0  0  0  0  0  0999 V2000
   18.0441   36.2963   10.6272 C   0  0  0  0  0  0  0  0  0  0  0  0
   19.2816   37.1020   10.9865 C   0  0  0  0  0  0  0  0  0  0  0  0
   20.2145   38.4724   12.4566 C   0  0  0  0  0  0  0  0  0  0  0  0
   19.6177   39.8143   12.8375 C   0  0  0  0  0  0  0  0  0  0  0  0
   17.9747   40.5653   11.1618 C   0  0  0  0  0  0  0  0  0  0  0  0
   15.9427   40.1611   10.8341 C   0  0  0  0  0  0  0  0  0  0  0  0
   14.5722   39.6734   11.0579 C   0  0  0  0  0  0  0  0  0  0  0  0
   13.4158   40.4191   10.9550 C   0  0  0  0  0  0  0  0  0  0  0  0
   12.3974   39.5401   11.2816 C   0  0  0  0  0  0  0  0  0  0  0  0
   13.0006   38.3270   11.5663 C   0  0  0  0  0  0  0  0  0  0  0  0
   15.6009   41.6264    8.7990 C   0  0  0  0  0  0  0  0  0  0  0  0
   14.5209   40.9502    8.2104 C   0  0  0  0  0  0  0  0  0  0  0  0
   13.8293   41.5176    7.1372 C   0  0  0  0  0  0  0  0  0  0  0  0
   14.2191   42.7563    6.6208 C   0  0  0  0  0  0  0  0  0  0  0  0
   13.8699   44.4371    4.7254 C   0  0  0  0  0  0  0  0  0  0  0  0
   12.9129   45.0648    3.7846 C   0  0  0  0  0  0  0  0  0  0  0  0
   11.5474   44.7097    3.7483 C   0  0  0  0  0  0  0  0  0  0  0  0
   10.6790   45.3570    2.8624 C   0  0  0  0  0  0  0  0  0  0  0  0
   11.1549   46.3451    1.9981 C   0  0  0  0  0  0  0  0  0  0  0  0
   12.5049   46.6920    2.0171 C   0  0  0  0  0  0  0  0  0  0  0  0
   13.3762   46.0564    2.9047 C   0  0  0  0  0  0  0  0  0  0  0  0
   15.3102   43.4257    7.1923 C   0  0  0  0  0  0  0  0  0  0  0  0
   15.9979   42.8620    8.2691 C   0  0  0  0  0  0  0  0  0  0  0  0
   19.1850   37.5419   12.3082 O   0  0  0  0  0  0  0  0  0  0  0  0
   19.2763   40.5358   11.6629 O   0  0  0  0  0  0  0  0  0  0  0  0
   14.2992   38.4495   11.4299 O   0  0  0  0  0  0  0  0  0  0  0  0
   15.0484   44.8798    4.7961 O   0  0  0  0  0  0  0  0  0  0  0  0
   17.6202   41.3150   10.1035 N   0  0  0  0  0  0  0  0  0  0  0  0
   16.3434   41.0473    9.8869 N   0  0  0  0  0  0  0  0  0  0  0  0
   16.9575   39.8254   11.6552 N   0  0  0  0  0  0  0  0  0  0  0  0
   13.4730   43.3205    5.5347 N   0  0  0  0  0  0  0  0  0  0  0  0
   11.0411   43.7439    4.5544 F   0  0  0  0  0  0  0  0  0  0  0  0
  1  2  1  0
  2 24  1  0
  3 24  1  0
  3  4  1  0
  4 25  1  0
  5 25  1  0
  5 30  1  0
  6  7  1  0
  7 26  1  0
  8  9  1  0
 10 26  1  0
 12 13  2  0
 14 31  1  0
 14 22  2  0
 15 16  1  0
 17 32  1  0
 17 18  2  0
 19 20  2  0
 21 16  2  0
 23 11  2  0
 29 28  1  0
 29  6  1  0
 29 11  1  0
 31 15  1  0
  5 28  2  0
  6 30  2  0
  7  8  2  0
  9 10  2  0
 11 12  1  0
 13 14  1  0
 15 27  2  0
 16 17  1  0
 18 19  1  0
 20 21  1  0
 22 23  1  0
M  END
>  <rmsd>  (1) 
0.239808321

$$$$
