MolPort-006-579-642 ChemDiv-V021-6494 MCULE-5835425492 PubChem-46040606 ZINC000037543375 ZINC37543375
     RDKit          3D

 27 30  0  0  0  0  0  0  0  0999 V2000
   13.9311   32.6061    8.7593 C   0  0  0  0  0  0  0  0  0  0  0  0
   13.1772   33.8753    8.9294 C   0  0  0  0  0  0  0  0  0  0  0  0
   13.0407   34.7570    7.8527 C   0  0  0  0  0  0  0  0  0  0  0  0
   12.3315   35.9512    8.0126 C   0  0  0  0  0  0  0  0  0  0  0  0
   11.7539   36.2629    9.2485 C   0  0  0  0  0  0  0  0  0  0  0  0
   11.8972   35.3832   10.3271 C   0  0  0  0  0  0  0  0  0  0  0  0
   12.6065   34.1889   10.1668 C   0  0  0  0  0  0  0  0  0  0  0  0
   11.0217   37.5502    9.4273 C   0  0  0  0  0  0  0  0  0  0  0  0
   12.2206   38.7411   11.2860 C   0  0  0  0  0  0  0  0  0  0  0  0
   13.7213   38.8535   11.4828 C   0  0  0  0  0  0  0  0  0  0  0  0
   14.2400   40.1023   10.7695 C   0  0  0  0  0  0  0  0  0  0  0  0
   12.6718   39.3864    8.9204 C   0  0  0  0  0  0  0  0  0  0  0  0
   14.3745   41.2163    8.5350 C   0  0  0  0  0  0  0  0  0  0  0  0
   15.6830   41.6579    8.7927 C   0  0  0  0  0  0  0  0  0  0  0  0
   16.2753   42.6364    7.9914 C   0  0  0  0  0  0  0  0  0  0  0  0
   15.5638   43.1893    6.9251 C   0  0  0  0  0  0  0  0  0  0  0  0
   14.2541   42.7696    6.6546 C   0  0  0  0  0  0  0  0  0  0  0  0
   13.6700   41.7890    7.4624 C   0  0  0  0  0  0  0  0  0  0  0  0
   13.9107   44.3299    4.6479 C   0  0  0  0  0  0  0  0  0  0  0  0
   12.9799   44.7706    3.5653 C   0  0  0  0  0  0  0  0  0  0  0  0
   12.5842   43.5827    2.7069 C   0  0  0  0  0  0  0  0  0  0  0  0
   13.6263   44.5575    2.2082 C   0  0  0  0  0  0  0  0  0  0  0  0
   11.9360   38.5969    9.8662 N   0  0  0  0  0  0  0  0  0  0  0  0
   13.7641   40.2164    9.3803 N   0  0  0  0  0  0  0  0  0  0  0  0
   13.4909   43.3130    5.5691 N   0  0  0  0  0  0  0  0  0  0  0  0
   12.3889   39.3168    7.6929 O   0  0  0  0  0  0  0  0  0  0  0  0
   15.0347   44.8886    4.7653 O   0  0  0  0  0  0  0  0  0  0  0  0
  1  2  1  0
  3  4  2  0
  5  6  2  0
  7  2  2  0
  8  5  1  0
  8 23  1  0
  9 23  1  0
  9 10  1  0
 10 11  1  0
 11 24  1  0
 12 23  1  0
 14 15  2  0
 16 17  2  0
 17 25  1  0
 18 13  2  0
 20 19  1  0
 20 21  1  0
 21 22  1  0
 22 20  1  0
 24 12  1  0
 24 13  1  0
 25 19  1  0
  2  3  1  0
  4  5  1  0
  6  7  1  0
 12 26  2  0
 13 14  1  0
 15 16  1  0
 17 18  1  0
 19 27  2  0
M  END
>  <rmsd>  (1) 
0.244973928

$$$$
