MolPort-046-956-887 MCULE-2700857628 PubChem-110095889
     RDKit          3D

 23 25  0  0  0  0  0  0  0  0999 V2000
   12.9819   39.3386   11.5203 C   0  0  0  0  0  0  0  0  0  0  0  0
   13.5566   40.4925   10.7049 C   0  0  0  0  0  0  0  0  0  0  0  0
   13.7130   40.0810    9.2406 C   0  0  2  0  0  0  0  0  0  0  0  0
   14.5136   38.7808    9.1440 C   0  0  0  0  0  0  0  0  0  0  0  0
   13.8347   38.0896   11.3099 C   0  0  0  0  0  0  0  0  0  0  0  0
   14.6596   36.5266    9.7773 C   0  0  0  0  0  0  0  0  0  0  0  0
   14.1418   35.6531    8.6859 C   0  0  0  0  0  0  0  0  0  0  0  0
   14.3590   41.1692    8.4438 C   0  0  0  0  0  0  0  0  0  0  0  0
   15.6512   41.6217    8.7382 C   0  0  0  0  0  0  0  0  0  0  0  0
   15.5164   43.1716    6.9552 C   0  0  0  0  0  0  0  0  0  0  0  0
   14.2235   42.7246    6.6542 C   0  0  0  0  0  0  0  0  0  0  0  0
   13.8497   44.3207    4.6732 C   0  0  0  0  0  0  0  0  0  0  0  0
   15.4366   45.9068    3.9029 C   0  0  0  0  0  0  0  0  0  0  0  0
   14.5466   46.3161    2.9092 C   0  0  0  0  0  0  0  0  0  0  0  0
   12.9617   44.7330    3.6773 C   0  0  0  0  0  0  0  0  0  0  0  0
   13.8395   37.7213    9.8950 N   0  0  0  0  0  0  0  0  0  0  0  0
   12.8374   35.0915    8.7760 N   0  0  0  0  0  0  0  0  0  0  0  0
   16.1995   42.6119    7.9876 N   0  0  0  0  0  0  0  0  0  0  0  0
   13.6803   41.7330    7.4095 N   0  0  0  0  0  0  0  0  0  0  0  0
   13.4562   43.2787    5.5762 N   0  0  0  0  0  0  0  0  0  0  0  0
   15.0692   44.9197    4.7618 N   0  0  0  0  0  0  0  0  0  0  0  0
   13.3285   45.7202    2.8180 N   0  0  0  0  0  0  0  0  0  0  0  0
   14.8644   35.4039    7.6867 O   0  0  0  0  0  0  0  0  0  0  0  0
  1  2  1  0
  2  3  1  0
  3  4  1  0
  3  8  1  6
  4 16  1  0
  5 16  1  0
  5  1  1  0
  6 16  1  0
  6  7  1  0
  7 17  1  0
  8 19  2  0
  9 18  2  0
 10 11  2  0
 11 20  1  0
 13 21  2  0
 14 22  2  0
 15 12  2  0
 20 12  1  0
  7 23  2  0
  8  9  1  0
 10 18  1  0
 11 19  1  0
 12 21  1  0
 13 14  1  0
 15 22  1  0
M  END
>  <rmsd>  (1) 
0.243658721

$$$$
