MolPort-019-739-926 CSSS00965960715 MCULE-3291118230 PubChem-56689610
     RDKit          3D

 24 26  0  0  0  0  0  0  0  0999 V2000
   17.7247   41.3090   10.0936 C   0  0  0  0  0  0  0  0  0  0  0  0
   15.6737   41.5270    8.7176 C   0  0  0  0  0  0  0  0  0  0  0  0
   16.2456   42.5645    7.9628 C   0  0  0  0  0  0  0  0  0  0  0  0
   15.5374   43.1620    6.9205 C   0  0  0  0  0  0  0  0  0  0  0  0
   14.2433   42.7315    6.6093 C   0  0  0  0  0  0  0  0  0  0  0  0
   13.8988   44.3774    4.6700 C   0  0  0  0  0  0  0  0  0  0  0  0
   12.9658   44.9119    3.6239 C   0  0  1  0  0  0  0  0  0  0  0  0
   12.0252   43.8618    3.0355 C   0  0  0  0  0  0  0  0  0  0  0  0
   10.8458   43.6130    3.9620 C   0  0  0  0  0  0  0  0  0  0  0  0
   10.1281   44.9319    4.2420 C   0  0  0  0  0  0  0  0  0  0  0  0
   11.3570   45.5158    6.2218 C   0  0  0  0  0  0  0  0  0  0  0  0
   12.2208   46.1813    4.0747 C   0  0  0  0  0  0  0  0  0  0  0  0
   13.6676   41.7033    7.3586 C   0  0  0  0  0  0  0  0  0  0  0  0
   14.3583   41.0975    8.4142 C   0  0  0  0  0  0  0  0  0  0  0  0
   14.1301   39.5111   10.3421 C   0  0  0  0  0  0  0  0  0  0  0  0
   13.4017   38.2017   10.5901 C   0  0  0  0  0  0  0  0  0  0  0  0
   12.6258   38.3673   11.8813 C   0  0  0  0  0  0  0  0  0  0  0  0
   13.2608   39.5373   12.5943 C   0  0  0  0  0  0  0  0  0  0  0  0
   13.7734   40.4345   11.4933 C   0  0  0  0  0  0  0  0  0  0  0  0
   16.4029   40.9190    9.7459 O   0  0  0  0  0  0  0  0  0  0  0  0
   15.0420   44.8943    4.7810 O   0  0  0  0  0  0  0  0  0  0  0  0
   13.6943   40.0761    9.1115 O   0  0  0  0  0  0  0  0  0  0  0  0
   13.4827   43.3174    5.5446 N   0  0  0  0  0  0  0  0  0  0  0  0
   11.0077   45.9268    4.8683 N   0  0  0  0  0  0  0  0  0  0  0  0
  1 20  1  0
  2 20  1  0
  3  4  2  0
  5 23  1  0
  5 13  2  0
  7  6  1  1
  7  8  1  0
  8  9  1  0
  9 10  1  0
 10 24  1  0
 11 24  1  0
 12 24  1  0
 12  7  1  0
 14 22  1  0
 14  2  2  0
 15 22  1  0
 15 16  1  0
 16 17  1  0
 17 18  1  0
 18 19  1  0
 19 15  1  0
 23  6  1  0
  2  3  1  0
  4  5  1  0
  6 21  2  0
 13 14  1  0
M  END
>  <rmsd>  (1) 
0.232122973

$$$$
