MolPort-002-628-419 9328254 PubChem-1635251 ZINC000009328254 ZINC09328254
     RDKit          3D

 25 27  0  0  0  0  0  0  0  0999 V2000
   14.2899   38.7797   11.6936 C   0  0  0  0  0  0  0  0  0  0  0  0
   13.0457   39.4540   11.1464 C   0  0  0  0  0  0  0  0  0  0  0  0
   13.3305   40.0685    9.7879 C   0  0  0  0  0  0  0  0  0  0  0  0
   14.1376   41.3467    9.9429 C   0  0  0  0  0  0  0  0  0  0  0  0
   14.1629   42.8215    6.6855 C   0  0  0  0  0  0  0  0  0  0  0  0
   14.0329   44.1936    4.5374 C   0  0  0  0  0  0  0  0  0  0  0  0
   13.3021   44.4066    3.2376 C   0  0  0  0  0  0  0  0  0  0  0  0
   14.2519   44.8711    2.1460 C   0  0  0  0  0  0  0  0  0  0  0  0
   12.2289   45.4590    3.4328 C   0  0  0  0  0  0  0  0  0  0  0  0
   12.6475   43.1170    2.7750 C   0  0  0  0  0  0  0  0  0  0  0  0
   15.5255   42.6221    6.8434 C   0  0  0  0  0  0  0  0  0  0  0  0
   16.6347   42.8090    6.0246 C   0  0  0  0  0  0  0  0  0  0  0  0
   17.8826   42.4249    6.5452 C   0  0  0  0  0  0  0  0  0  0  0  0
   19.0441   42.5942    5.7885 C   0  0  0  0  0  0  0  0  0  0  0  0
   20.2812   42.2070    6.3126 C   0  0  0  0  0  0  0  0  0  0  0  0
   20.3636   41.6485    7.5930 C   0  0  0  0  0  0  0  0  0  0  0  0
   21.6841   41.2404    8.1385 C   0  0  0  0  0  0  0  0  0  0  0  0
   19.2084   41.4710    8.3609 C   0  0  0  0  0  0  0  0  0  0  0  0
   17.9646   41.8539    7.8529 C   0  0  0  0  0  0  0  0  0  0  0  0
   15.6436   42.0614    8.0815 C   0  0  0  0  0  0  0  0  0  0  0  0
   14.4310   41.9130    8.6358 N   0  0  0  0  0  0  0  0  0  0  0  0
   13.5148   42.3681    7.7870 N   0  0  0  0  0  0  0  0  0  0  0  0
   13.4784   43.3197    5.5298 N   0  0  0  0  0  0  0  0  0  0  0  0
   16.8351   41.6722    8.6008 N   0  0  0  0  0  0  0  0  0  0  0  0
   15.0627   44.8737    4.7996 O   0  0  0  0  0  0  0  0  0  0  0  0
  1  2  1  0
  2  3  1  0
  3  4  1  0
  4 21  1  0
  5 23  1  0
  5 11  1  0
  7  6  1  0
  7  8  1  0
  7  9  1  0
  7 10  1  0
 12 13  2  0
 14 15  2  0
 16 18  2  0
 17 16  1  0
 19 24  2  0
 19 13  1  0
 20 21  1  0
 20 11  2  0
 21 22  1  0
 23  6  1  0
  5 22  2  0
  6 25  2  0
 11 12  1  0
 13 14  1  0
 15 16  1  0
 18 19  1  0
 20 24  1  0
M  END
>  <rmsd>  (1) 
0.244515717

$$$$
