MolPort-002-604-220 2379556 CSSS00132751994 LN00663321 MCULE-5847717623 PubChem-1987692 ZINC000002379556 ZINC02379556
     RDKit          3D

 21 23  0  0  0  0  0  0  0  0999 V2000
   13.3616   38.5626   11.2170 C   0  0  0  0  0  0  0  0  0  0  0  0
   13.2289   40.0536   11.4641 C   0  0  0  0  0  0  0  0  0  0  0  0
   13.3069   40.8168   10.1542 C   0  0  0  0  0  0  0  0  0  0  0  0
   14.7455   40.8733    9.6571 C   0  0  0  0  0  0  0  0  0  0  0  0
   14.3426   42.6920    6.5885 C   0  0  0  0  0  0  0  0  0  0  0  0
   13.9369   44.2774    4.6308 C   0  0  0  0  0  0  0  0  0  0  0  0
   13.0487   44.6053    3.4858 C   0  0  0  0  0  0  0  0  0  0  0  0
   15.7119   42.4827    6.5479 C   0  0  0  0  0  0  0  0  0  0  0  0
   16.7072   42.7540    5.6144 C   0  0  0  0  0  0  0  0  0  0  0  0
   18.0080   42.3225    5.9261 C   0  0  0  0  0  0  0  0  0  0  0  0
   19.0630   42.5709    5.0453 C   0  0  0  0  0  0  0  0  0  0  0  0
   20.3538   42.1359    5.3615 C   0  0  0  0  0  0  0  0  0  0  0  0
   20.5954   41.4503    6.5571 C   0  0  0  0  0  0  0  0  0  0  0  0
   19.5484   41.1927    7.4477 C   0  0  0  0  0  0  0  0  0  0  0  0
   18.2534   41.6219    7.1474 C   0  0  0  0  0  0  0  0  0  0  0  0
   15.9835   41.7991    7.6974 C   0  0  0  0  0  0  0  0  0  0  0  0
   14.8529   41.5922    8.3904 N   0  0  0  0  0  0  0  0  0  0  0  0
   13.8394   42.1259    7.7128 N   0  0  0  0  0  0  0  0  0  0  0  0
   13.5168   43.3010    5.5882 N   0  0  0  0  0  0  0  0  0  0  0  0
   17.2287   41.3626    8.0139 N   0  0  0  0  0  0  0  0  0  0  0  0
   15.0198   44.9032    4.7726 O   0  0  0  0  0  0  0  0  0  0  0  0
  1  2  1  0
  2  3  1  0
  3  4  1  0
  4 17  1  0
  5 19  1  0
  5  8  1  0
  7  6  1  0
  9 10  2  0
 11 12  2  0
 13 14  2  0
 15 20  2  0
 15 10  1  0
 16 17  1  0
 16  8  2  0
 17 18  1  0
 19  6  1  0
  5 18  2  0
  6 21  2  0
  8  9  1  0
 10 11  1  0
 12 13  1  0
 14 15  1  0
 16 20  1  0
M  END
>  <rmsd>  (1) 
0.162486181

$$$$
