Molport-053-241-663 PubChem-158888792 PubChem-161456835 PubChem-824241
     RDKit          3D

 14 14  0  0  0  0  0  0  0  0999 V2000
   12.7700   39.3056   11.6993 C   0  0  0  0  0  0  0  0  0  0  0  0
   13.9143   38.9965   10.7567 C   0  0  0  0  0  0  0  0  0  0  0  0
   15.0063   40.7630    9.4350 C   0  0  0  0  0  0  0  0  0  0  0  0
   14.9499   41.7114    8.3194 C   0  0  0  0  0  0  0  0  0  0  0  0
   14.3061   42.8049    6.6660 C   0  0  0  0  0  0  0  0  0  0  0  0
   13.9018   44.3279    4.6760 C   0  0  0  0  0  0  0  0  0  0  0  0
   12.9670   44.7506    3.6012 C   0  0  0  0  0  0  0  0  0  0  0  0
   13.9142   39.9310    9.6878 O   0  0  0  0  0  0  0  0  0  0  0  0
   16.0383   40.7053   10.1578 O   0  0  0  0  0  0  0  0  0  0  0  0
   15.0308   44.8784    4.7669 O   0  0  0  0  0  0  0  0  0  0  0  0
   13.8860   41.8364    7.5012 N   0  0  0  0  0  0  0  0  0  0  0  0
   15.5453   43.2453    6.9522 N   0  0  0  0  0  0  0  0  0  0  0  0
   15.9529   42.5516    8.0005 N   0  0  0  0  0  0  0  0  0  0  0  0
   13.5033   43.3019    5.5905 N   0  0  0  0  0  0  0  0  0  0  0  0
  1  2  1  0
  2  8  1  0
  3  8  1  0
  3  4  1  0
  5 11  1  0
  5 14  1  0
  7  6  1  0
 13 12  1  0
 13  4  1  0
 14  6  1  0
  3  9  2  0
  4 11  2  0
  5 12  2  0
  6 10  2  0
M  END
>  <rmsd>  (1) 
0.189716831

$$$$
