Molport-047-648-712 MCULE-6469671298 PubChem-165890704
     RDKit          3D

 20 20  0  0  0  0  0  0  0  0999 V2000
   14.4096   45.5591    1.9018 C   0  0  0  0  0  0  0  0  0  0  0  0
   13.2410   45.9131    2.8053 C   0  0  0  0  0  0  0  0  0  0  0  0
   13.8869   44.3853    4.6858 C   0  0  0  0  0  0  0  0  0  0  0  0
   14.2719   42.7030    6.5827 C   0  0  0  0  0  0  0  0  0  0  0  0
   13.7074   41.6643    7.3307 C   0  0  0  0  0  0  0  0  0  0  0  0
   14.4388   41.0433    8.3488 C   0  0  0  0  0  0  0  0  0  0  0  0
   13.8216   39.9376    9.1390 C   0  0  0  0  0  0  0  0  0  0  0  0
   13.4695   40.3873   10.5518 C   0  0  1  0  0  0  0  0  0  0  0  0
   12.1753   41.1423   10.5701 C   0  0  0  0  0  0  0  0  0  0  0  0
   15.7471   41.4595    8.6197 C   0  0  0  0  0  0  0  0  0  0  0  0
   16.3187   42.4957    7.8772 C   0  0  0  0  0  0  0  0  0  0  0  0
   15.5839   43.1155    6.8628 C   0  0  0  0  0  0  0  0  0  0  0  0
   12.0146   46.1209    1.9423 C   0  0  0  0  0  0  0  0  0  0  0  0
   13.5345   47.2085    3.5424 C   0  0  0  0  0  0  0  0  0  0  0  0
   12.9766   44.8542    3.7289 O   0  0  0  0  0  0  0  0  0  0  0  0
   12.0924   42.3934    9.9726 O   0  0  0  0  0  0  0  0  0  0  0  0
   11.1624   40.6603   11.1426 O   0  0  0  0  0  0  0  0  0  0  0  0
   15.0353   44.8982    4.7827 O   0  0  0  0  0  0  0  0  0  0  0  0
   13.4867   43.3143    5.5499 N   0  0  0  0  0  0  0  0  0  0  0  0
   13.3899   39.2747   11.3706 F   0  0  0  0  0  0  0  0  0  0  0  0
  1  2  1  0
  2 15  1  0
  2 13  1  0
  2 14  1  0
  3 15  1  0
  3 19  1  0
  5  6  2  0
  7  6  1  0
  7  8  1  0
  8  9  1  0
  8 20  1  1
  9 16  1  0
 10 11  2  0
 12  4  2  0
 19  4  1  0
  3 18  2  0
  4  5  1  0
  6 10  1  0
  9 17  2  0
 11 12  1  0
M  END
>  <rmsd>  (1) 
0.234901443

$$$$
