MolPort-001-579-848 CHEMBL1565019 CSSS00121683242 LN00895763 MCULE-8804048403 PubChem-3158579
     RDKit          3D

 26 28  0  0  0  0  0  0  0  0999 V2000
   13.4880   39.3021   11.3565 C   0  0  0  0  0  0  0  0  0  0  0  0
   14.3875   39.3202   10.1351 C   0  0  1  0  0  0  0  0  0  0  0  0
   14.3573   41.0461    8.3631 C   0  0  0  0  0  0  0  0  0  0  0  0
   15.6567   41.4787    8.6722 C   0  0  0  0  0  0  0  0  0  0  0  0
   16.2424   42.5191    7.9477 C   0  0  0  0  0  0  0  0  0  0  0  0
   15.5339   43.1323    6.9116 C   0  0  0  0  0  0  0  0  0  0  0  0
   14.2347   42.7094    6.5930 C   0  0  0  0  0  0  0  0  0  0  0  0
   13.8996   44.3820    4.6776 C   0  0  0  0  0  0  0  0  0  0  0  0
   12.9811   44.8813    3.6491 C   0  0  0  0  0  0  0  0  0  0  0  0
   13.2522   45.8959    2.7551 C   0  0  0  0  0  0  0  0  0  0  0  0
   12.1025   46.0117    1.9932 C   0  0  0  0  0  0  0  0  0  0  0  0
   11.2132   45.0645    2.4718 C   0  0  0  0  0  0  0  0  0  0  0  0
   13.6557   41.6664    7.3243 C   0  0  0  0  0  0  0  0  0  0  0  0
   14.7473   37.9294    9.7127 C   0  0  0  0  0  0  0  0  0  0  0  0
   16.1581   37.4980    9.6690 C   0  0  0  0  0  0  0  0  0  0  0  0
   17.1886   38.3828   10.0228 C   0  0  0  0  0  0  0  0  0  0  0  0
   18.5235   37.9706    9.9753 C   0  0  0  0  0  0  0  0  0  0  0  0
   18.8389   36.6701    9.5737 C   0  0  0  0  0  0  0  0  0  0  0  0
   20.2579   36.2318    9.5228 C   0  0  0  0  0  0  0  0  0  0  0  0
   17.8201   35.7817    9.2194 C   0  0  0  0  0  0  0  0  0  0  0  0
   16.4852   36.1943    9.2665 C   0  0  0  0  0  0  0  0  0  0  0  0
   13.7448   40.0055    9.0674 O   0  0  0  0  0  0  0  0  0  0  0  0
   15.0460   44.8931    4.7941 O   0  0  0  0  0  0  0  0  0  0  0  0
   11.7749   44.4107    3.4597 O   0  0  0  0  0  0  0  0  0  0  0  0
   13.8320   37.1287    9.3766 O   0  0  0  0  0  0  0  0  0  0  0  0
   13.4763   43.3148    5.5371 N   0  0  0  0  0  0  0  0  0  0  0  0
  2  1  1  1
  2 22  1  0
  2 14  1  0
  3 22  1  0
  4  5  2  0
  6  7  2  0
  7 26  1  0
  8  9  1  0
  9 24  1  0
 10 11  1  0
 12 24  1  0
 13  3  2  0
 14 15  1  0
 16 17  2  0
 18 20  2  0
 19 18  1  0
 21 15  2  0
 26  8  1  0
  3  4  1  0
  5  6  1  0
  7 13  1  0
  8 23  2  0
  9 10  2  0
 11 12  2  0
 14 25  2  0
 15 16  1  0
 17 18  1  0
 20 21  1  0
M  END
>  <rmsd>  (1) 
0.232118502

$$$$
