MolPort-007-710-792 ChemDiv-D481-2666 MCULE-2167951705 PubChem-46269945 ZINC000033019594 ZINC33019594
     RDKit          3D

 32 35  0  0  0  0  0  0  0  0999 V2000
   12.9197   44.9102    3.6946 C   0  0  0  0  0  0  0  0  0  0  0  0
   13.8838   44.3911    4.6999 C   0  0  0  0  0  0  0  0  0  0  0  0
   14.2514   42.7524    6.6355 C   0  0  0  0  0  0  0  0  0  0  0  0
   15.4692   43.3104    7.0529 C   0  0  0  0  0  0  0  0  0  0  0  0
   16.1823   42.7377    8.1098 C   0  0  0  0  0  0  0  0  0  0  0  0
   15.6876   41.6048    8.7703 C   0  0  0  0  0  0  0  0  0  0  0  0
   14.4828   41.0378    8.3342 C   0  0  0  0  0  0  0  0  0  0  0  0
   13.7672   41.6112    7.2799 C   0  0  0  0  0  0  0  0  0  0  0  0
   16.4755   40.9983    9.8661 C   0  0  0  0  0  0  0  0  0  0  0  0
   17.1267   39.8331   11.5104 C   0  0  0  0  0  0  0  0  0  0  0  0
   16.6125   40.0708   14.0645 C   0  0  0  0  0  0  0  0  0  0  0  0
   17.7748   40.6918   14.7593 C   0  0  0  0  0  0  0  0  0  0  0  0
   18.9170   41.1051   17.0166 C   0  0  0  0  0  0  0  0  0  0  0  0
   20.0061   41.8157   16.4853 C   0  0  0  0  0  0  0  0  0  0  0  0
   21.0037   42.3148   17.3281 C   0  0  0  0  0  0  0  0  0  0  0  0
   20.9209   42.1055   18.7078 C   0  0  0  0  0  0  0  0  0  0  0  0
   19.8410   41.3976   19.2432 C   0  0  0  0  0  0  0  0  0  0  0  0
   18.8433   40.8996   18.3990 C   0  0  0  0  0  0  0  0  0  0  0  0
   14.6917   39.6390   11.0248 C   0  0  0  0  0  0  0  0  0  0  0  0
   14.4123   38.2654   11.0499 C   0  0  0  0  0  0  0  0  0  0  0  0
   13.1173   37.8152   11.3225 C   0  0  0  0  0  0  0  0  0  0  0  0
   12.0974   38.7362   11.5781 C   0  0  0  0  0  0  0  0  0  0  0  0
   12.3721   40.1070   11.5642 C   0  0  0  0  0  0  0  0  0  0  0  0
   13.6665   40.5576   11.2912 C   0  0  0  0  0  0  0  0  0  0  0  0
   15.0379   44.8936    4.7682 O   0  0  0  0  0  0  0  0  0  0  0  0
   18.6370   41.3263   14.0926 O   0  0  0  0  0  0  0  0  0  0  0  0
   13.4878   43.3149    5.5599 N   0  0  0  0  0  0  0  0  0  0  0  0
   17.7894   41.2491   10.0437 N   0  0  0  0  0  0  0  0  0  0  0  0
   18.1961   40.5221   11.0739 N   0  0  0  0  0  0  0  0  0  0  0  0
   17.8767   40.5742   16.1842 N   0  0  0  0  0  0  0  0  0  0  0  0
   16.0278   40.1009   10.7763 N   0  0  0  0  0  0  0  0  0  0  0  0
   17.1677   38.7521   12.9413 S   0  0  0  0  0  0  0  0  0  0  0  0
  1  2  1  0
  2 27  1  0
  4  5  2  0
  6  7  2  0
  6  9  1  0
  8  3  2  0
 10 32  1  0
 10 31  1  0
 11 32  1  0
 11 12  1  0
 12 30  1  0
 14 15  2  0
 16 17  2  0
 18 13  2  0
 20 21  2  0
 22 23  2  0
 24 19  2  0
 27  3  1  0
 28 29  1  0
 30 13  1  0
 31 19  1  0
 31  9  1  0
  2 25  2  0
  3  4  1  0
  5  6  1  0
  7  8  1  0
  9 28  2  0
 10 29  2  0
 12 26  2  0
 13 14  1  0
 15 16  1  0
 17 18  1  0
 19 20  1  0
 21 22  1  0
 23 24  1  0
M  END
>  <rmsd>  (1) 
0.236140847

$$$$
