Molport-053-321-052 PubChem-110111373
     RDKit          3D

 27 29  0  0  0  0  0  0  0  0999 V2000
   12.4300   46.1598    1.7495 C   0  0  0  0  0  0  0  0  0  0  0  0
   13.3712   45.7272    2.8149 C   0  0  0  0  0  0  0  0  0  0  0  0
   14.6213   46.3327    2.9281 C   0  0  0  0  0  0  0  0  0  0  0  0
   15.4757   45.8994    3.9401 C   0  0  0  0  0  0  0  0  0  0  0  0
   13.8571   44.3290    4.6612 C   0  0  0  0  0  0  0  0  0  0  0  0
   14.2006   42.7373    6.6321 C   0  0  0  0  0  0  0  0  0  0  0  0
   16.1866   42.6767    7.9407 C   0  0  0  0  0  0  0  0  0  0  0  0
   15.6596   41.6574    8.7349 C   0  0  0  0  0  0  0  0  0  0  0  0
   14.3729   41.1731    8.4648 C   0  0  0  0  0  0  0  0  0  0  0  0
   13.6416   41.7177    7.4067 C   0  0  0  0  0  0  0  0  0  0  0  0
   13.7642   40.0811    9.2860 C   0  0  2  0  0  0  0  0  0  0  0  0
   13.6209   40.5069   10.7476 C   0  0  0  0  0  0  0  0  0  0  0  0
   13.0835   39.3510   11.5852 C   0  0  0  0  0  0  0  0  0  0  0  0
   13.9595   38.1179   11.3763 C   0  0  0  0  0  0  0  0  0  0  0  0
   14.5904   38.7965    9.1918 C   0  0  0  0  0  0  0  0  0  0  0  0
   14.7959   36.5569    9.8482 C   0  0  0  0  0  0  0  0  0  0  0  0
   14.1486   35.5458    8.9555 C   0  0  0  0  0  0  0  0  0  0  0  0
   13.1295   33.2824    8.5906 C   0  0  0  0  0  0  0  0  0  0  0  0
   13.9504   33.9134   10.8608 C   0  0  0  0  0  0  0  0  0  0  0  0
   16.8177   46.5182    4.0960 C   0  0  0  0  0  0  0  0  0  0  0  0
   15.0815   44.9109    4.7843 N   0  0  0  0  0  0  0  0  0  0  0  0
   13.0129   44.7415    3.6786 N   0  0  0  0  0  0  0  0  0  0  0  0
   13.4387   43.2863    5.5502 N   0  0  0  0  0  0  0  0  0  0  0  0
   15.4541   43.1902    6.9166 N   0  0  0  0  0  0  0  0  0  0  0  0
   13.9505   37.7331    9.9658 N   0  0  0  0  0  0  0  0  0  0  0  0
   13.7513   34.2640    9.4639 N   0  0  0  0  0  0  0  0  0  0  0  0
   13.9628   35.8307    7.7414 O   0  0  0  0  0  0  0  0  0  0  0  0
  1  2  1  0
  2 22  2  0
  3  4  2  0
  5 21  2  0
  5 23  1  0
  7 24  2  0
  8  9  2  0
 10  6  2  0
 11  9  1  6
 11 12  1  0
 12 13  1  0
 13 14  1  0
 14 25  1  0
 15 25  1  0
 15 11  1  0
 16 25  1  0
 16 17  1  0
 17 26  1  0
 18 26  1  0
 19 26  1  0
 20  4  1  0
 23  6  1  0
  2  3  1  0
  4 21  1  0
  5 22  1  0
  6 24  1  0
  7  8  1  0
  9 10  1  0
 17 27  2  0
M  END
>  <rmsd>  (1) 
0.249622315

$$$$
