Molport-053-362-112
     RDKit          3D

 16 17  0  0  0  0  0  0  0  0999 V2000
   13.4660   39.3642   11.4501 Cl  0  0  0  0  0  0  0  0  0  0  0  0
   13.5861   40.3276    9.9899 C   0  0  0  0  0  0  0  0  0  0  0  0
   12.4095   40.7301    9.3124 C   0  0  0  0  0  0  0  0  0  0  0  0
   12.4892   41.5039    8.1386 C   0  0  0  0  0  0  0  0  0  0  0  0
   13.7594   41.8493    7.6827 C   0  0  0  0  0  0  0  0  0  0  0  0
   14.2093   42.5749    6.6007 C   0  0  0  0  0  0  0  0  0  0  0  0
   14.7667   42.9064    3.1141 C   0  0  0  0  0  0  0  0  0  0  0  0
   16.0265   42.4826    3.2230 C   0  0  0  0  0  0  0  0  0  0  0  0
   14.8960   41.4622    8.3341 C   0  0  0  0  0  0  0  0  0  0  0  0
   14.8541   40.6968    9.4971 C   0  0  0  0  0  0  0  0  0  0  0  0
   13.3935   43.1988    5.6050 N   0  0  0  0  0  0  0  0  0  0  0  0
   15.5632   42.6122    6.6184 N   0  0  0  0  0  0  0  0  0  0  0  0
   15.9745   41.9290    7.6815 N   0  0  0  0  0  0  0  0  0  0  0  0
   14.0830   44.0494    4.2634 S   0  0  0  0  0  0  0  0  0  0  0  0
   15.1374   45.0053    4.7480 O   0  0  0  0  0  0  0  0  0  0  0  0
   13.0061   44.8398    3.5757 O   0  0  0  0  0  0  0  0  0  0  0  0
  2  1  1  0
  3  4  2  0
  5  6  1  0
  6 11  1  0
  9  5  2  0
 10  2  2  0
 13 12  1  0
 13  9  1  0
 14 11  1  0
 14  7  1  0
  2  3  1  0
  4  5  1  0
  6 12  2  0
  7  8  2  0
  9 10  1  0
 14 15  2  0
 14 16  2  0
M  END
>  <rmsd>  (1) 
0.239603564

$$$$
