MolPort-035-706-980 CSSS03437789235 MCULE-4626765719 PubChem-91938305
     RDKit          3D

 22 23  0  0  0  0  0  0  0  0999 V2000
   16.2475   35.8636    7.9219 C   0  0  0  0  0  0  0  0  0  0  0  0
   14.7930   36.2612    7.7492 C   0  0  0  0  0  0  0  0  0  0  0  0
   14.5506   37.8324    9.6476 C   0  0  0  0  0  0  0  0  0  0  0  0
   14.3960   39.2516   10.1227 C   0  0  1  0  0  0  0  0  0  0  0  0
   13.4952   39.2933   11.3490 C   0  0  0  0  0  0  0  0  0  0  0  0
   14.3488   41.0580    8.3718 C   0  0  0  0  0  0  0  0  0  0  0  0
   13.6472   41.6710    7.3295 C   0  0  0  0  0  0  0  0  0  0  0  0
   14.2281   42.7141    6.5994 C   0  0  0  0  0  0  0  0  0  0  0  0
   13.9016   44.3828    4.6809 C   0  0  0  0  0  0  0  0  0  0  0  0
   12.9843   44.8752    3.6184 C   0  0  0  0  0  0  0  0  0  0  0  0
   13.1612   44.0479    2.3608 C   0  0  0  0  0  0  0  0  0  0  0  0
   15.5243   43.1422    6.9262 C   0  0  0  0  0  0  0  0  0  0  0  0
   16.2275   42.5339    7.9697 C   0  0  0  0  0  0  0  0  0  0  0  0
   15.6392   41.4924    8.6906 C   0  0  0  0  0  0  0  0  0  0  0  0
   15.7587   39.7999   10.4966 C   0  0  0  0  0  0  0  0  0  0  0  0
   14.5705   37.5644    8.2745 O   0  0  0  0  0  0  0  0  0  0  0  0
   14.7115   36.8972   10.4811 O   0  0  0  0  0  0  0  0  0  0  0  0
   13.7523   40.0167    9.0910 O   0  0  0  0  0  0  0  0  0  0  0  0
   15.0476   44.8935    4.7934 O   0  0  0  0  0  0  0  0  0  0  0  0
   16.4030   39.2918   11.4535 O   0  0  0  0  0  0  0  0  0  0  0  0
   13.4751   43.3149    5.5372 N   0  0  0  0  0  0  0  0  0  0  0  0
   16.3424   40.8760    9.7624 N   0  0  0  0  0  0  0  0  0  0  0  0
  1  2  1  0
  2 16  1  0
  3 16  1  0
  4  3  1  0
  4  5  1  1
  4 18  1  0
  4 15  1  0
  6 18  1  0
  7  8  2  0
  8 21  1  0
 10  9  1  0
 10 11  1  0
 12 13  2  0
 14 22  1  0
 14  6  2  0
 21  9  1  0
 22 15  1  0
  3 17  2  0
  6  7  1  0
  8 12  1  0
  9 19  2  0
 13 14  1  0
 15 20  2  0
M  END
>  <rmsd>  (1) 
0.231322765

$$$$
