MolPort-000-825-472 CSSS00132827631
     RDKit          3D

 37 40  0  0  0  0  0  0  0  0999 V2000
   13.3599   39.1919   11.2098 C   0  0  0  0  0  0  0  0  0  0  0  0
   14.9374   37.8718    9.7671 C   0  0  0  0  0  0  0  0  0  0  0  0
   15.0695   36.6949    9.0205 C   0  0  0  0  0  0  0  0  0  0  0  0
   16.2695   36.3761    8.3830 C   0  0  0  0  0  0  0  0  0  0  0  0
   17.3595   37.2411    8.4670 C   0  0  0  0  0  0  0  0  0  0  0  0
   18.6326   36.8510    7.8438 C   0  0  0  0  0  0  0  0  0  0  0  0
   19.4732   37.6242    7.1331 C   0  0  0  0  0  0  0  0  0  0  0  0
   19.1605   39.0052    6.6708 C   0  0  0  0  0  0  0  0  0  0  0  0
   21.4153   39.2885    5.8826 C   0  0  0  0  0  0  0  0  0  0  0  0
   20.7841   37.0628    6.7467 C   0  0  0  0  0  0  0  0  0  0  0  0
   23.0960   37.4255    5.8385 C   0  0  0  0  0  0  0  0  0  0  0  0
   23.7008   37.7378    4.6104 C   0  0  0  0  0  0  0  0  0  0  0  0
   24.9787   37.2594    4.3073 C   0  0  0  0  0  0  0  0  0  0  0  0
   25.6640   36.4643    5.2294 C   0  0  0  0  0  0  0  0  0  0  0  0
   27.0225   35.9557    4.9070 C   0  0  0  0  0  0  0  0  0  0  0  0
   25.0719   36.1476    6.4546 C   0  0  0  0  0  0  0  0  0  0  0  0
   23.7941   36.6260    6.7579 C   0  0  0  0  0  0  0  0  0  0  0  0
   17.2567   38.4013    9.2410 C   0  0  0  0  0  0  0  0  0  0  0  0
   16.0555   38.7428    9.8747 C   0  0  0  0  0  0  0  0  0  0  0  0
   16.0242   40.0248   10.6487 C   0  0  0  0  0  0  0  0  0  0  0  0
   15.7146   41.6554    8.7919 C   0  0  0  0  0  0  0  0  0  0  0  0
   16.2752   42.6729    8.0146 C   0  0  0  0  0  0  0  0  0  0  0  0
   15.5555   43.2267    6.9523 C   0  0  0  0  0  0  0  0  0  0  0  0
   14.2631   42.7689    6.6551 C   0  0  0  0  0  0  0  0  0  0  0  0
   13.9007   44.3473    4.6685 C   0  0  0  0  0  0  0  0  0  0  0  0
   12.9660   44.7873    3.6007 C   0  0  0  0  0  0  0  0  0  0  0  0
   13.7017   41.7531    7.4354 C   0  0  0  0  0  0  0  0  0  0  0  0
   14.4204   41.1987    8.4976 C   0  0  0  0  0  0  0  0  0  0  0  0
   13.6861   38.0993   10.3635 O   0  0  0  0  0  0  0  0  0  0  0  0
   17.8749   39.5224    6.7670 O   0  0  0  0  0  0  0  0  0  0  0  0
   22.2678   40.1057    5.4428 O   0  0  0  0  0  0  0  0  0  0  0  0
   21.0270   35.8376    6.9334 O   0  0  0  0  0  0  0  0  0  0  0  0
   16.4640   41.1177    9.8444 O   0  0  0  0  0  0  0  0  0  0  0  0
   15.0329   44.8909    4.7603 O   0  0  0  0  0  0  0  0  0  0  0  0
   20.0770   39.7396    6.1160 N   0  0  0  0  0  0  0  0  0  0  0  0
   21.7773   37.9198    6.1514 N   0  0  0  0  0  0  0  0  0  0  0  0
   13.4949   43.3121    5.5727 N   0  0  0  0  0  0  0  0  0  0  0  0
  1 29  1  0
  2 29  1  0
  3  4  2  0
  5  6  1  0
  5 18  2  0
  7  8  1  0
  8 30  1  0
  9 35  1  0
  9 36  1  0
 10  7  1  0
 12 13  2  0
 14 16  2  0
 15 14  1  0
 17 11  2  0
 19  2  2  0
 20 19  1  0
 20 33  1  0
 21 33  1  0
 22 23  2  0
 24 37  1  0
 24 27  2  0
 26 25  1  0
 28 21  2  0
 36 10  1  0
 36 11  1  0
 37 25  1  0
  2  3  1  0
  4  5  1  0
  6  7  2  0
  8 35  2  0
  9 31  2  0
 10 32  2  0
 11 12  1  0
 13 14  1  0
 16 17  1  0
 18 19  1  0
 21 22  1  0
 23 24  1  0
 25 34  2  0
 27 28  1  0
M  END
>  <rmsd>  (1) 
0.247487336

$$$$
