MolPort-039-225-444 299801012 CSSS00159918082 MCULE-9136281289 PubChem-118789576 ZINC000299801012
     RDKit          3D

 28 31  0  0  0  0  0  0  0  0999 V2000
   14.6150   50.4552    5.2211 O   0  0  0  0  0  0  0  0  0  0  0  0
   10.4937   46.2665    2.8556 O   0  0  0  0  0  0  0  0  0  0  0  0
   15.0534   44.8856    4.7943 O   0  0  0  0  0  0  0  0  0  0  0  0
   13.6544   40.1084    9.1531 O   0  0  0  0  0  0  0  0  0  0  0  0
   13.8564   50.7095    4.0780 C   0  0  0  0  0  0  0  0  0  0  0  0
   13.0026   49.5314    3.7606 C   0  0  0  0  0  0  0  0  0  0  0  0
   13.5844   48.3095    3.4114 C   0  0  0  0  0  0  0  0  0  0  0  0
   12.7856   47.2032    3.1043 C   0  0  0  0  0  0  0  0  0  0  0  0
   11.3731   47.3247    3.1394 C   0  0  0  0  0  0  0  0  0  0  0  0
   10.8819   44.9723    2.4032 C   0  0  0  0  0  0  0  0  0  0  0  0
   11.7071   44.2549    3.4665 C   0  0  0  0  0  0  0  0  0  0  0  0
   13.4782   45.9299    2.7415 C   0  0  0  0  0  0  0  0  0  0  0  0
   13.9093   44.3731    4.6551 C   0  0  0  0  0  0  0  0  0  0  0  0
   14.2018   42.7511    6.6243 C   0  0  0  0  0  0  0  0  0  0  0  0
   13.6100   41.7208    7.3629 C   0  0  0  0  0  0  0  0  0  0  0  0
   14.2815   41.1373    8.4421 C   0  0  0  0  0  0  0  0  0  0  0  0
   14.2279   39.4911   10.3007 C   0  0  0  0  0  0  0  0  0  0  0  0
   13.4867   38.1984   10.5946 C   0  0  0  0  0  0  0  0  0  0  0  0
   13.0239   38.2798   12.0334 C   0  0  0  0  0  0  0  0  0  0  0  0
   12.9554   39.7539   12.3494 C   0  0  0  0  0  0  0  0  0  0  0  0
   14.0491   40.3846   11.5182 C   0  0  0  0  0  0  0  0  0  0  0  0
   15.5652   41.5926    8.7827 C   0  0  0  0  0  0  0  0  0  0  0  0
   16.1636   42.6207    8.0509 C   0  0  0  0  0  0  0  0  0  0  0  0
   15.4842   43.1982    6.9758 C   0  0  0  0  0  0  0  0  0  0  0  0
   10.8064   48.5559    3.4888 C   0  0  0  0  0  0  0  0  0  0  0  0
   11.6132   49.6535    3.7958 C   0  0  0  0  0  0  0  0  0  0  0  0
   13.0391   44.8446    3.6163 N   0  0  0  0  0  0  0  0  0  0  0  0
   13.4716   43.3212    5.5295 N   0  0  0  0  0  0  0  0  0  0  0  0
  5  1  1  0
  5  6  1  0
  7  8  2  0
  9  2  1  0
  9 25  2  0
 10  2  1  0
 10 11  1  0
 11 27  1  0
 12 27  1  0
 12  8  1  0
 13 28  1  0
 15 16  2  0
 16  4  1  0
 17  4  1  0
 17 18  1  0
 18 19  1  0
 19 20  1  0
 20 21  1  0
 21 17  1  0
 22 23  2  0
 24 14  2  0
 26  6  2  0
 27 13  1  0
 28 14  1  0
  6  7  1  0
  8  9  1  0
 13  3  2  0
 14 15  1  0
 16 22  1  0
 23 24  1  0
 25 26  1  0
M  END
>  <rmsd>  (1) 
0.241863549

$$$$
