MolPort-002-455-714 568498 CSC026735676 CSSS00026735676 ChemDiv-D039-0035 MCULE-8704836685 PubChem-959515 Z57244559 ZINC000000568498 ZINC00568498
     RDKit          3D

 24 25  0  0  0  0  0  0  0  0999 V2000
   12.7785   39.2574   11.8277 C   0  0  0  0  0  0  0  0  0  0  0  0
   13.9082   38.9245   10.8757 C   0  0  0  0  0  0  0  0  0  0  0  0
   15.0102   40.6655    9.5262 C   0  0  0  0  0  0  0  0  0  0  0  0
   14.9577   41.6178    8.3981 C   0  0  0  0  0  0  0  0  0  0  0  0
   15.9542   42.4940    7.9842 C   0  0  0  0  0  0  0  0  0  0  0  0
   17.2993   42.6513    8.6054 C   0  0  0  0  0  0  0  0  0  0  0  0
   14.3065   42.8002    6.6486 C   0  0  0  0  0  0  0  0  0  0  0  0
   13.9057   44.3266    4.6587 C   0  0  0  0  0  0  0  0  0  0  0  0
   13.3328   45.5779    2.5232 C   0  0  0  0  0  0  0  0  0  0  0  0
   12.4667   46.6287    2.2000 C   0  0  0  0  0  0  0  0  0  0  0  0
   12.7408   47.4688    1.1182 C   0  0  0  0  0  0  0  0  0  0  0  0
   11.8205   48.5901    0.7966 C   0  0  0  0  0  0  0  0  0  0  0  0
   13.8788   47.2542    0.3388 C   0  0  0  0  0  0  0  0  0  0  0  0
   14.7356   46.1913    0.6331 C   0  0  0  0  0  0  0  0  0  0  0  0
   14.4697   45.3458    1.7154 C   0  0  0  0  0  0  0  0  0  0  0  0
   15.3666   44.1740    1.9263 C   0  0  0  0  0  0  0  0  0  0  0  0
   13.9001   41.8226    7.5307 C   0  0  0  0  0  0  0  0  0  0  0  0
   12.5761   41.1360    7.5309 C   0  0  0  0  0  0  0  0  0  0  0  0
   13.9096   39.8505    9.7996 O   0  0  0  0  0  0  0  0  0  0  0  0
   16.0466   40.5892   10.2412 O   0  0  0  0  0  0  0  0  0  0  0  0
   15.0324   44.8822    4.7694 O   0  0  0  0  0  0  0  0  0  0  0  0
   15.5605   43.2173    6.9162 N   0  0  0  0  0  0  0  0  0  0  0  0
   13.5010   43.3082    5.5788 N   0  0  0  0  0  0  0  0  0  0  0  0
   12.9947   44.7391    3.6356 N   0  0  0  0  0  0  0  0  0  0  0  0
  1  2  1  0
  2 19  1  0
  3 19  1  0
  3  4  1  0
  5 22  1  0
  6  5  1  0
  7 23  1  0
  8 24  1  0
 10 11  2  0
 12 11  1  0
 13 14  2  0
 15  9  2  0
 16 15  1  0
 17  4  1  0
 18 17  1  0
 22  7  1  0
 23  8  1  0
 24  9  1  0
  3 20  2  0
  4  5  2  0
  7 17  2  0
  8 21  2  0
  9 10  1  0
 11 13  1  0
 14 15  1  0
M  END
>  <rmsd>  (1) 
0.197391197

$$$$
