Molport-020-295-357 MCULE-2704298410 PubChem-110267438
     RDKit          3D

 27 30  0  0  0  0  0  0  0  0999 V2000
   12.9841   39.3824   11.5023 C   0  0  0  0  0  0  0  0  0  0  0  0
   13.6421   40.5019   10.6975 C   0  0  0  0  0  0  0  0  0  0  0  0
   13.7861   40.0907    9.2298 C   0  0  2  0  0  0  0  0  0  0  0  0
   14.5919   38.7971    9.1131 C   0  0  0  0  0  0  0  0  0  0  0  0
   13.7996   38.0976   11.3821 C   0  0  0  0  0  0  0  0  0  0  0  0
   13.5692   36.5141    9.4397 C   0  0  0  0  0  0  0  0  0  0  0  0
   13.7366   36.2068    7.9810 C   0  0  0  0  0  0  0  0  0  0  0  0
   12.3687   36.1124    7.2836 C   0  0  0  0  0  0  0  0  0  0  0  0
   11.9234   34.6685    7.0207 C   0  0  0  0  0  0  0  0  0  0  0  0
   13.8836   33.7036    7.4436 C   0  0  0  0  0  0  0  0  0  0  0  0
   14.6528   34.9875    7.7779 C   0  0  0  0  0  0  0  0  0  0  0  0
   14.4084   41.1845    8.4219 C   0  0  0  0  0  0  0  0  0  0  0  0
   14.2302   42.7312    6.6361 C   0  0  0  0  0  0  0  0  0  0  0  0
   16.2239   42.6668    7.9111 C   0  0  0  0  0  0  0  0  0  0  0  0
   15.6994   41.6464    8.7008 C   0  0  0  0  0  0  0  0  0  0  0  0
   13.8494   44.3256    4.6746 C   0  0  0  0  0  0  0  0  0  0  0  0
   15.4495   45.9072    3.9232 C   0  0  0  0  0  0  0  0  0  0  0  0
   14.5655   46.3305    2.9297 C   0  0  0  0  0  0  0  0  0  0  0  0
   12.9674   44.7516    3.6792 C   0  0  0  0  0  0  0  0  0  0  0  0
   13.9966   37.7766    9.9712 N   0  0  0  0  0  0  0  0  0  0  0  0
   13.7048   41.7359    7.3983 N   0  0  0  0  0  0  0  0  0  0  0  0
   15.4850   43.1888    6.8982 N   0  0  0  0  0  0  0  0  0  0  0  0
   13.4487   43.2799    5.5680 N   0  0  0  0  0  0  0  0  0  0  0  0
   15.0727   44.9155    4.7726 N   0  0  0  0  0  0  0  0  0  0  0  0
   13.3438   45.7434    2.8294 N   0  0  0  0  0  0  0  0  0  0  0  0
   13.0399   35.6575   10.2001 O   0  0  0  0  0  0  0  0  0  0  0  0
   12.5596   33.7796    7.8990 O   0  0  0  0  0  0  0  0  0  0  0  0
  1  2  1  0
  2  3  1  0
  3  4  1  0
  3 12  1  6
  4 20  1  0
  5 20  1  0
  5  1  1  0
  7  6  1  0
  7  8  1  0
  8  9  1  0
  9 27  1  0
 10 27  1  0
 10 11  1  0
 11  7  1  0
 13 21  2  0
 13 23  1  0
 14 22  2  0
 15 12  2  0
 17 24  2  0
 18 25  2  0
 19 16  2  0
 20  6  1  0
 23 16  1  0
  6 26  2  0
 12 21  1  0
 13 22  1  0
 14 15  1  0
 16 24  1  0
 17 18  1  0
 19 25  1  0
M  END
>  <rmsd>  (1) 
0.240518093

$$$$
