MolPort-003-020-514 16991800 CSSS03437211695 LN01391658 PubChem-16813897 ZINC000016991800
     RDKit          3D

 29 32  0  0  0  0  0  0  0  0999 V2000
   16.3320   43.0089    9.7265 C   0  0  0  0  0  0  0  0  0  0  0  0
   15.5378   42.5437    8.5501 C   0  0  0  0  0  0  0  0  0  0  0  0
   15.2583   41.2015    8.3040 C   0  0  0  0  0  0  0  0  0  0  0  0
   15.6549   40.0453    9.1633 C   0  0  0  0  0  0  0  0  0  0  0  0
   14.5881   39.7441   10.1604 C   0  0  0  0  0  0  0  0  0  0  0  0
   13.5549   38.8366    9.8332 C   0  0  0  0  0  0  0  0  0  0  0  0
   12.5287   38.5596   10.7545 C   0  0  0  0  0  0  0  0  0  0  0  0
   12.5750   39.2133   11.9830 C   0  0  0  0  0  0  0  0  0  0  0  0
   12.1591   39.9795   14.0881 C   0  0  0  0  0  0  0  0  0  0  0  0
   13.5639   40.0887   12.2978 C   0  0  0  0  0  0  0  0  0  0  0  0
   14.5960   40.3884   11.4126 C   0  0  0  0  0  0  0  0  0  0  0  0
   14.2490   42.7341    6.6135 C   0  0  0  0  0  0  0  0  0  0  0  0
   13.8532   44.4654    4.7943 C   0  0  0  0  0  0  0  0  0  0  0  0
   12.8532   45.0722    3.9013 C   0  0  0  0  0  0  0  0  0  0  0  0
   12.8716   46.3039    3.3742 C   0  0  0  0  0  0  0  0  0  0  0  0
   13.8141   47.3979    3.6670 C   0  0  0  0  0  0  0  0  0  0  0  0
   14.0797   48.3357    2.6627 C   0  0  0  0  0  0  0  0  0  0  0  0
   14.9162   49.4270    2.9171 C   0  0  0  0  0  0  0  0  0  0  0  0
   15.4775   49.5965    4.1857 C   0  0  0  0  0  0  0  0  0  0  0  0
   15.1951   48.6797    5.2018 C   0  0  0  0  0  0  0  0  0  0  0  0
   14.3581   47.5898    4.9457 C   0  0  0  0  0  0  0  0  0  0  0  0
   14.9662   43.4124    7.6033 C   0  0  0  0  0  0  0  0  0  0  0  0
   15.0208   44.8482    7.7268 C   0  0  0  0  0  0  0  0  0  0  0  0
   11.6955   39.1135   13.0424 O   0  0  0  0  0  0  0  0  0  0  0  0
   13.3537   40.5819   13.5699 O   0  0  0  0  0  0  0  0  0  0  0  0
   15.0447   44.8754    4.8067 O   0  0  0  0  0  0  0  0  0  0  0  0
   14.2833   41.0861    6.9383 S   0  0  0  0  0  0  0  0  0  0  0  0
   13.4815   43.3093    5.5492 N   0  0  0  0  0  0  0  0  0  0  0  0
   15.0652   45.9998    7.8312 N   0  0  0  0  0  0  0  0  0  0  0  0
  1  2  1  0
  3 27  1  0
  4  3  1  0
  4  5  1  0
  6  7  2  0
  8 24  1  0
  9 24  1  0
  9 25  1  0
 10 25  1  0
 10  8  2  0
 11  5  2  0
 12 27  1  0
 12 28  1  0
 13 14  1  0
 15 16  1  0
 17 18  2  0
 19 20  2  0
 21 16  2  0
 22 23  1  0
 22  2  1  0
 28 13  1  0
  2  3  2  0
  5  6  1  0
  7  8  1  0
 10 11  1  0
 12 22  2  0
 13 26  2  0
 14 15  2  0
 16 17  1  0
 18 19  1  0
 20 21  1  0
 23 29  3  0
M  END
>  <rmsd>  (1) 
0.247646675

$$$$
