Molport-020-295-290 MCULE-3562488290 PubChem-110267373
     RDKit          3D

 30 33  0  0  0  0  0  0  0  0999 V2000
   11.1605   45.6820    1.5502 C   0  0  0  0  0  0  0  0  0  0  0  0
   13.3594   45.7600    2.8078 C   0  0  0  0  0  0  0  0  0  0  0  0
   15.4421   45.9042    3.9198 C   0  0  0  0  0  0  0  0  0  0  0  0
   13.8496   44.3230    4.6722 C   0  0  0  0  0  0  0  0  0  0  0  0
   12.9637   44.7392    3.6792 C   0  0  0  0  0  0  0  0  0  0  0  0
   14.2346   42.7309    6.6356 C   0  0  0  0  0  0  0  0  0  0  0  0
   16.2382   42.6535    7.8944 C   0  0  0  0  0  0  0  0  0  0  0  0
   15.7088   41.6453    8.6965 C   0  0  0  0  0  0  0  0  0  0  0  0
   14.4107   41.1964    8.4318 C   0  0  0  0  0  0  0  0  0  0  0  0
   13.7846   40.1180    9.2562 C   0  0  2  0  0  0  0  0  0  0  0  0
   13.6191   40.5609   10.7125 C   0  0  0  0  0  0  0  0  0  0  0  0
   13.0917   39.4168   11.5822 C   0  0  0  0  0  0  0  0  0  0  0  0
   13.7051   38.0607   11.2073 C   0  0  0  0  0  0  0  0  0  0  0  0
   14.5617   38.7953    9.1210 C   0  0  0  0  0  0  0  0  0  0  0  0
   15.4618   36.9039   10.1821 C   0  0  0  0  0  0  0  0  0  0  0  0
   16.9848   36.9403   10.1659 C   0  0  0  0  0  0  0  0  0  0  0  0
   17.5484   37.2770   11.5423 C   0  0  0  0  0  0  0  0  0  0  0  0
   17.3467   36.1562   12.5083 C   0  0  0  0  0  0  0  0  0  0  0  0
   16.5109   36.3399   13.6150 C   0  0  0  0  0  0  0  0  0  0  0  0
   16.3223   35.3007   14.5312 C   0  0  0  0  0  0  0  0  0  0  0  0
   16.9730   34.0772   14.3445 C   0  0  0  0  0  0  0  0  0  0  0  0
   17.8140   33.8931   13.2428 C   0  0  0  0  0  0  0  0  0  0  0  0
   18.0026   34.9319   12.3261 C   0  0  0  0  0  0  0  0  0  0  0  0
   12.4912   46.2255    1.7717 N   0  0  0  0  0  0  0  0  0  0  0  0
   14.5896   46.3199    2.9472 N   0  0  0  0  0  0  0  0  0  0  0  0
   15.0708   44.9143    4.7727 N   0  0  0  0  0  0  0  0  0  0  0  0
   13.4506   43.2800    5.5697 N   0  0  0  0  0  0  0  0  0  0  0  0
   15.4967   43.1762    6.8838 N   0  0  0  0  0  0  0  0  0  0  0  0
   13.7044   41.7473    7.4096 N   0  0  0  0  0  0  0  0  0  0  0  0
   14.9265   38.2337   10.4244 N   0  0  0  0  0  0  0  0  0  0  0  0
  1 24  1  0
  3 25  2  0
  4 26  2  0
  4 27  1  0
  5  2  2  0
  6 29  2  0
  7 28  2  0
  8  9  2  0
 10  9  1  6
 10 11  1  0
 11 12  1  0
 12 13  1  0
 13 30  1  0
 14 30  1  0
 14 10  1  0
 15 30  1  0
 15 16  1  0
 16 17  1  0
 17 18  1  0
 19 20  2  0
 21 22  2  0
 23 18  2  0
 24  2  1  0
 27  6  1  0
  2 25  1  0
  3 26  1  0
  4  5  1  0
  6 28  1  0
  7  8  1  0
  9 29  1  0
 18 19  1  0
 20 21  1  0
 22 23  1  0
M  END
>  <rmsd>  (1) 
0.244881168

$$$$
