Molport-047-895-750 PubChem-165931047
     RDKit          3D

 24 25  0  0  0  0  0  0  0  0999 V2000
   13.5158   39.5741   12.0958 C   0  0  0  0  0  0  0  0  0  0  0  0
   13.7187   38.8408   10.7825 C   0  0  0  0  0  0  0  0  0  0  0  0
   14.8603   40.6096    9.4790 C   0  0  0  0  0  0  0  0  0  0  0  0
   14.8248   41.5782    8.3646 C   0  0  0  0  0  0  0  0  0  0  0  0
   15.8154   42.4816    7.9954 C   0  0  0  0  0  0  0  0  0  0  0  0
   14.2211   42.7826    6.6167 C   0  0  0  0  0  0  0  0  0  0  0  0
   13.7933   41.7820    7.4625 C   0  0  0  0  0  0  0  0  0  0  0  0
   12.5254   41.1012    7.4037 C   0  0  0  0  0  0  0  0  0  0  0  0
   13.9233   44.3539    4.6562 C   0  0  0  0  0  0  0  0  0  0  0  0
   13.4858   45.8168    2.7267 C   0  0  0  0  0  0  0  0  0  0  0  0
   12.3998   46.0638    1.7410 C   0  0  0  0  0  0  0  0  0  0  0  0
   11.3961   46.9963    2.0244 C   0  0  0  0  0  0  0  0  0  0  0  0
   10.3615   47.2107    1.1085 C   0  0  0  0  0  0  0  0  0  0  0  0
   10.3265   46.4887   -0.0886 C   0  0  0  0  0  0  0  0  0  0  0  0
   11.3248   45.5503   -0.3689 C   0  0  0  0  0  0  0  0  0  0  0  0
   12.3596   45.3357    0.5469 C   0  0  0  0  0  0  0  0  0  0  0  0
   17.1396   42.6660    8.6528 C   0  0  0  0  0  0  0  0  0  0  0  0
   13.7683   39.7647    9.7018 O   0  0  0  0  0  0  0  0  0  0  0  0
   15.8761   40.5415   10.2235 O   0  0  0  0  0  0  0  0  0  0  0  0
   15.4261   43.1823    6.9535 O   0  0  0  0  0  0  0  0  0  0  0  0
   15.0632   44.8701    4.8193 O   0  0  0  0  0  0  0  0  0  0  0  0
   13.0920   44.7893    3.6248 O   0  0  0  0  0  0  0  0  0  0  0  0
   11.5066   40.5545    7.3561 N   0  0  0  0  0  0  0  0  0  0  0  0
   13.4642   43.3148    5.5249 N   0  0  0  0  0  0  0  0  0  0  0  0
  1  2  1  0
  2 18  1  0
  3 18  1  0
  3  4  1  0
  5 20  1  0
  6 20  1  0
  6 24  1  0
  7  8  1  0
  7  4  1  0
  9 22  1  0
 10 22  1  0
 10 11  1  0
 12 13  2  0
 14 15  2  0
 16 11  2  0
 17  5  1  0
 24  9  1  0
  3 19  2  0
  4  5  2  0
  6  7  2  0
  9 21  2  0
 11 12  1  0
 13 14  1  0
 15 16  1  0
  8 23  3  0
M  END
>  <rmsd>  (1) 
0.214823112

$$$$
