MolPort-003-049-136 11758562 CSSS03437040344 MCULE-6217627162 PubChem-18554452 ZINC000011758562 ZINC11758562
     RDKit          3D

 28 31  0  0  0  0  0  0  0  0999 V2000
   16.7118   42.4743    9.1891 C   0  0  0  0  0  0  0  0  0  0  0  0
   15.5772   42.4053    8.2319 C   0  0  0  0  0  0  0  0  0  0  0  0
   15.3458   43.2919    7.1991 C   0  0  0  0  0  0  0  0  0  0  0  0
   14.1881   42.7687    6.6458 C   0  0  0  0  0  0  0  0  0  0  0  0
   13.8995   44.4031    4.7181 C   0  0  0  0  0  0  0  0  0  0  0  0
   12.9422   45.0069    3.7494 C   0  0  0  0  0  0  0  0  0  0  0  0
   11.4369   46.0170    5.6809 C   0  0  0  0  0  0  0  0  0  0  0  0
   11.9596   45.9267    6.9626 C   0  0  0  0  0  0  0  0  0  0  0  0
   11.5843   44.9566   10.3992 C   0  0  0  0  0  0  0  0  0  0  0  0
   12.0997   43.5747   10.6098 C   0  0  0  0  0  0  0  0  0  0  0  0
   11.3865   42.4760   10.1173 C   0  0  0  0  0  0  0  0  0  0  0  0
   11.8763   41.1808   10.3102 C   0  0  0  0  0  0  0  0  0  0  0  0
   13.0803   40.9835   10.9934 C   0  0  0  0  0  0  0  0  0  0  0  0
   13.7979   42.0813   11.4784 C   0  0  0  0  0  0  0  0  0  0  0  0
   13.3090   43.3766   11.2845 C   0  0  0  0  0  0  0  0  0  0  0  0
   11.2121   45.4243    7.9641 C   0  0  0  0  0  0  0  0  0  0  0  0
    9.4076   45.0852    6.5361 C   0  0  0  0  0  0  0  0  0  0  0  0
   13.4680   43.3084    5.5331 N   0  0  0  0  0  0  0  0  0  0  0  0
   13.1757   46.2486    7.4440 N   0  0  0  0  0  0  0  0  0  0  0  0
   13.1397   45.9325    8.7409 N   0  0  0  0  0  0  0  0  0  0  0  0
   11.9520   45.4354    9.0761 N   0  0  0  0  0  0  0  0  0  0  0  0
    9.9400   44.9932    7.7941 N   0  0  0  0  0  0  0  0  0  0  0  0
   10.1503   45.5919    5.4964 N   0  0  0  0  0  0  0  0  0  0  0  0
   13.7806   41.6732    7.3106 N   0  0  0  0  0  0  0  0  0  0  0  0
   15.0651   44.8707    4.8197 O   0  0  0  0  0  0  0  0  0  0  0  0
   14.6469   41.4826    8.2582 O   0  0  0  0  0  0  0  0  0  0  0  0
   12.4005   46.6554    4.3104 S   0  0  0  0  0  0  0  0  0  0  0  0
   13.6982   39.3633   11.2267 Cl  0  0  0  0  0  0  0  0  0  0  0  0
  1  2  1  0
  2 26  1  0
  3  4  1  0
  4 18  1  0
  6  5  1  0
  6 27  1  0
  7 27  1  0
  7 23  2  0
  8 19  1  0
  9 21  1  0
  9 10  1  0
 11 12  2  0
 13 28  1  0
 13 14  2  0
 15 10  2  0
 16  8  2  0
 17 22  2  0
 18  5  1  0
 21 20  1  0
 21 16  1  0
 24 26  1  0
  2  3  2  0
  4 24  2  0
  5 25  2  0
  7  8  1  0
 10 11  1  0
 12 13  1  0
 14 15  1  0
 16 22  1  0
 17 23  1  0
 19 20  2  0
M  END
>  <rmsd>  (1) 
0.225296423

$$$$
