MolPort-039-138-684 261494877 MCULE-4726689180 MCULE-5610323746 PubChem-102594534 ZINC000261494877
     RDKit          3D

 33 35  0  0  0  0  0  0  0  0999 V2000
   13.4393   43.6684    1.8980 C   0  0  0  0  0  0  0  0  0  0  0  0
   13.1966   45.0826    2.3958 C   0  0  0  0  0  0  0  0  0  0  0  0
   12.0876   45.6968    1.5616 C   0  0  0  0  0  0  0  0  0  0  0  0
   12.8161   45.0843    3.8834 C   0  0  1  0  0  0  0  0  0  0  0  0
   13.3233   47.5727    4.2678 C   0  0  0  0  0  0  0  0  0  0  0  0
   13.6197   50.0011    4.6280 C   0  0  0  0  0  0  0  0  0  0  0  0
   13.4371   50.5714    3.2620 C   0  0  0  0  0  0  0  0  0  0  0  0
   12.2978   51.3268    2.9647 C   0  0  0  0  0  0  0  0  0  0  0  0
   12.1130   51.8385    1.6769 C   0  0  0  0  0  0  0  0  0  0  0  0
   13.0649   51.5912    0.6834 C   0  0  0  0  0  0  0  0  0  0  0  0
   14.2015   50.8310    0.9761 C   0  0  0  0  0  0  0  0  0  0  0  0
   14.3858   50.3189    2.2642 C   0  0  0  0  0  0  0  0  0  0  0  0
   13.8555   44.4520    4.7608 C   0  0  0  0  0  0  0  0  0  0  0  0
   14.2880   42.6937    6.5691 C   0  0  0  0  0  0  0  0  0  0  0  0
   15.4819   43.2701    7.0293 C   0  0  0  0  0  0  0  0  0  0  0  0
   16.2196   42.6515    8.0424 C   0  0  0  0  0  0  0  0  0  0  0  0
   15.7674   41.4544    8.6032 C   0  0  0  0  0  0  0  0  0  0  0  0
   14.5776   40.8733    8.1525 C   0  0  0  0  0  0  0  0  0  0  0  0
   13.8420   41.4958    7.1378 C   0  0  0  0  0  0  0  0  0  0  0  0
   12.1528   39.1345    9.7810 C   0  0  0  0  0  0  0  0  0  0  0  0
   11.2168   40.3426    9.8481 C   0  0  0  0  0  0  0  0  0  0  0  0
   11.2716   37.8986    9.9381 C   0  0  0  0  0  0  0  0  0  0  0  0
   13.3443   39.1931   10.8256 C   0  0  0  0  0  0  0  0  0  0  0  0
   13.3480   40.4617   11.6828 C   0  0  0  0  0  0  0  0  0  0  0  0
   13.3530   38.0179   11.7992 C   0  0  0  0  0  0  0  0  0  0  0  0
   12.4735   46.4236    4.3653 N   0  0  0  0  0  0  0  0  0  0  0  0
   13.4901   43.3154    5.5535 N   0  0  0  0  0  0  0  0  0  0  0  0
   14.4593   47.4834    3.7252 O   0  0  0  0  0  0  0  0  0  0  0  0
   12.8723   48.7970    4.7667 O   0  0  0  0  0  0  0  0  0  0  0  0
   15.0324   44.9032    4.7778 O   0  0  0  0  0  0  0  0  0  0  0  0
   12.7224   39.0833    8.4995 O   0  0  0  0  0  0  0  0  0  0  0  0
   14.5410   39.1459   10.0941 O   0  0  0  0  0  0  0  0  0  0  0  0
   14.0828   39.5203    8.7665 B   0  0  0  0  0  0  0  0  0  0  0  0
  1  2  1  0
  2  3  1  0
  4  2  1  0
  4 26  1  1
  4 13  1  0
  5 29  1  0
  6 29  1  0
  6  7  1  0
  8  9  2  0
 10 11  2  0
 12  7  2  0
 13 27  1  0
 15 16  2  0
 17 18  2  0
 18 33  1  0
 19 14  2  0
 20 31  1  0
 20 21  1  0
 20 22  1  0
 20 23  1  0
 23 24  1  0
 23 25  1  0
 23 32  1  0
 26  5  1  0
 27 14  1  0
 33 31  1  0
 33 32  1  0
  5 28  2  0
  7  8  1  0
  9 10  1  0
 11 12  1  0
 13 30  2  0
 14 15  1  0
 16 17  1  0
 18 19  1  0
M  END
>  <rmsd>  (1) 
0.246855721

$$$$
