MolPort-046-958-383 MCULE-7699084467 PubChem-110093603
     RDKit          3D

 31 34  0  0  0  0  0  0  0  0999 V2000
   16.0393   31.9223    4.0476 C   0  0  0  0  0  0  0  0  0  0  0  0
   16.6100   33.0736    4.8475 C   0  0  0  0  0  0  0  0  0  0  0  0
   15.3582   34.0140    6.8122 C   0  0  0  0  0  0  0  0  0  0  0  0
   14.9446   35.2283    6.1986 C   0  0  0  0  0  0  0  0  0  0  0  0
   14.1913   36.1515    6.9330 C   0  0  0  0  0  0  0  0  0  0  0  0
   13.8291   35.8876    8.2551 C   0  0  0  0  0  0  0  0  0  0  0  0
   14.2296   34.6957    8.8594 C   0  0  0  0  0  0  0  0  0  0  0  0
   14.9869   33.7693    8.1405 C   0  0  0  0  0  0  0  0  0  0  0  0
   13.0398   36.8942    9.0234 C   0  0  0  0  0  0  0  0  0  0  0  0
   13.0628   38.0663   11.0575 C   0  0  0  0  0  0  0  0  0  0  0  0
   13.6294   39.3037   11.7520 C   0  0  0  0  0  0  0  0  0  0  0  0
   13.6477   40.4976   10.7943 C   0  0  0  0  0  0  0  0  0  0  0  0
   13.7293   40.0731    9.3238 C   0  0  2  0  0  0  0  0  0  0  0  0
   14.5007   38.7576    9.1704 C   0  0  0  0  0  0  0  0  0  0  0  0
   14.3515   41.1478    8.4965 C   0  0  0  0  0  0  0  0  0  0  0  0
   16.2104   42.5435    8.0059 C   0  0  0  0  0  0  0  0  0  0  0  0
   15.5158   43.1296    6.9464 C   0  0  0  0  0  0  0  0  0  0  0  0
   14.2097   42.7123    6.6605 C   0  0  0  0  0  0  0  0  0  0  0  0
   13.6269   41.7131    7.4439 C   0  0  0  0  0  0  0  0  0  0  0  0
   13.8818   44.3067    4.6855 C   0  0  0  0  0  0  0  0  0  0  0  0
   15.2085   45.8711    3.7770 C   0  0  0  0  0  0  0  0  0  0  0  0
   14.1158   46.0044    2.9191 C   0  0  0  0  0  0  0  0  0  0  0  0
   17.5973   42.9771    8.3132 C   0  0  0  0  0  0  0  0  0  0  0  0
   15.2909   35.6015    4.7965 C   0  0  0  0  0  0  0  0  0  0  0  0
   16.1187   33.0169    6.1787 O   0  0  0  0  0  0  0  0  0  0  0  0
   16.4198   36.4213    4.7890 O   0  0  0  0  0  0  0  0  0  0  0  0
   13.9049   37.6390    9.9291 N   0  0  0  0  0  0  0  0  0  0  0  0
   15.6212   41.5721    8.7520 N   0  0  0  0  0  0  0  0  0  0  0  0
   13.4527   43.2731    5.5799 N   0  0  0  0  0  0  0  0  0  0  0  0
   15.0748   44.9312    4.7520 N   0  0  0  0  0  0  0  0  0  0  0  0
   12.9533   44.8932    3.4243 S   0  0  0  0  0  0  0  0  0  0  0  0
  1  2  1  0
  2 25  1  0
  3 25  1  0
  4  5  2  0
  6  7  2  0
  8  3  2  0
  9  6  1  0
  9 27  1  0
 10 27  1  0
 10 11  1  0
 11 12  1  0
 12 13  1  0
 13 14  1  0
 13 15  1  6
 14 27  1  0
 16 28  2  0
 17 18  2  0
 18 29  1  0
 19 15  2  0
 20 31  1  0
 21 30  1  0
 22 31  1  0
 23 16  1  0
 24  4  1  0
 24 26  1  0
 29 20  1  0
  3  4  1  0
  5  6  1  0
  7  8  1  0
 15 28  1  0
 16 17  1  0
 18 19  1  0
 20 30  2  0
 21 22  2  0
M  END
>  <rmsd>  (1) 
0.247090921

$$$$
