MolPort-044-423-548 CSSS14880536645 MCULE-6906365711 ZINC000675028112
     RDKit          3D

 23 24  0  0  0  0  0  0  0  0999 V2000
   12.9460   43.4340    2.5213 C   0  0  0  0  0  0  0  0  0  0  0  0
   13.0694   44.6314    3.4431 C   0  0  0  0  0  0  0  0  0  0  0  0
   13.5880   45.8221    2.6530 C   0  0  0  0  0  0  0  0  0  0  0  0
   13.9446   44.2914    4.6137 C   0  0  0  0  0  0  0  0  0  0  0  0
   14.3138   42.6794    6.5450 C   0  0  0  0  0  0  0  0  0  0  0  0
   13.8517   42.2800    7.7837 C   0  0  0  0  0  0  0  0  0  0  0  0
   14.9704   41.6662    8.3334 C   0  0  0  0  0  0  0  0  0  0  0  0
   16.3968   42.3833    5.1699 C   0  0  0  0  0  0  0  0  0  0  0  0
   15.0306   41.0547    9.6652 C   0  0  0  0  0  0  0  0  0  0  0  0
   13.8600   40.4599   11.8331 C   0  0  0  0  0  0  0  0  0  0  0  0
   13.8169   38.9415   11.7116 C   0  0  0  0  0  0  0  0  0  0  0  0
   12.4910   38.4683   11.1289 C   0  0  0  0  0  0  0  0  0  0  0  0
   11.3808   38.6242   12.1135 C   0  0  0  0  0  0  0  0  0  0  0  0
   11.2645   37.9548   13.3206 C   0  0  0  0  0  0  0  0  0  0  0  0
   10.0995   38.3041   14.0187 C   0  0  0  0  0  0  0  0  0  0  0  0
    9.2966   39.2393   13.3682 C   0  0  0  0  0  0  0  0  0  0  0  0
   15.0338   44.8999    4.8037 O   0  0  0  0  0  0  0  0  0  0  0  0
   16.0984   40.5102   10.0564 O   0  0  0  0  0  0  0  0  0  0  0  0
   13.4953   43.3075    5.5510 N   0  0  0  0  0  0  0  0  0  0  0  0
   16.0053   41.6751    7.4690 N   0  0  0  0  0  0  0  0  0  0  0  0
   15.5958   42.2967    6.3792 N   0  0  0  0  0  0  0  0  0  0  0  0
   13.8805   41.0805   10.5153 N   0  0  0  0  0  0  0  0  0  0  0  0
   10.0540   39.6246   11.9157 S   0  0  0  0  0  0  0  0  0  0  0  0
  1  2  1  0
  2  3  1  0
  2  4  1  0
  4 19  1  0
  6  7  1  0
  7  9  1  0
  8 21  1  0
  9 22  1  0
 10 22  1  0
 10 11  1  0
 11 12  1  0
 12 13  1  0
 13 23  1  0
 14 15  1  0
 16 23  1  0
 19  5  1  0
 21 20  1  0
 21  5  1  0
  4 17  2  0
  5  6  2  0
  7 20  2  0
  9 18  2  0
 13 14  2  0
 15 16  2  0
M  END
>  <rmsd>  (1) 
0.221877307

$$$$
