Molport-047-886-515
     RDKit          3D

 19 19  0  0  0  0  0  0  0  0999 V2000
   13.2974   39.5718   11.9446 C   0  0  0  0  0  0  0  0  0  0  0  0
   13.5909   38.8728   10.6223 C   0  0  0  0  0  0  0  0  0  0  0  0
   14.8701   40.6210    9.3967 C   0  0  0  0  0  0  0  0  0  0  0  0
   14.8939   41.6137    8.3100 C   0  0  0  0  0  0  0  0  0  0  0  0
   15.9148   42.4873    7.9764 C   0  0  0  0  0  0  0  0  0  0  0  0
   14.2948   42.7919    6.6342 C   0  0  0  0  0  0  0  0  0  0  0  0
   13.9035   44.3462    4.6715 C   0  0  0  0  0  0  0  0  0  0  0  0
   13.2655   45.7837    2.6853 C   0  0  0  0  0  0  0  0  0  0  0  0
   12.0112   45.8782    1.8031 C   0  0  0  0  0  0  0  0  0  0  0  0
   14.4692   45.4093    1.7992 C   0  0  0  0  0  0  0  0  0  0  0  0
   13.4966   47.1454    3.3682 C   0  0  0  0  0  0  0  0  0  0  0  0
   13.7318   39.8251    9.5699 O   0  0  0  0  0  0  0  0  0  0  0  0
   15.8661   40.4856   10.1579 O   0  0  0  0  0  0  0  0  0  0  0  0
   15.0417   44.8746    4.7924 O   0  0  0  0  0  0  0  0  0  0  0  0
   13.0202   44.7620    3.6637 O   0  0  0  0  0  0  0  0  0  0  0  0
   17.6159   42.6733    8.8282 Br  0  0  0  0  0  0  0  0  0  0  0  0
   15.5398   43.2329    6.9182 N   0  0  0  0  0  0  0  0  0  0  0  0
   13.4876   43.3055    5.5652 N   0  0  0  0  0  0  0  0  0  0  0  0
   13.8750   41.8129    7.4578 N   0  0  0  0  0  0  0  0  0  0  0  0
  1  2  1  0
  2 12  1  0
  3 12  1  0
  3  4  1  0
  5 16  1  0
  5 17  1  0
  6 18  1  0
  6 19  1  0
  7 15  1  0
  8 15  1  0
  8  9  1  0
  8 10  1  0
  8 11  1  0
 18  7  1  0
 19  4  1  0
  3 13  2  0
  4  5  2  0
  6 17  2  0
  7 14  2  0
M  END
>  <rmsd>  (1) 
0.169447333

$$$$
