MolPort-010-852-322 ChemDiv-G952-2909 MCULE-1941934245 PubChem-53095797 ZINC000064980480 ZINC64980480
     RDKit          3D

 21 23  0  0  0  0  0  0  0  0999 V2000
   14.0717   39.0239   11.9622 C   0  0  0  0  0  0  0  0  0  0  0  0
   13.1213   39.6375   10.9515 C   0  0  0  0  0  0  0  0  0  0  0  0
   13.6250   39.4052    9.5363 C   0  0  0  0  0  0  0  0  0  0  0  0
   14.6914   40.3872    9.1773 C   0  0  0  0  0  0  0  0  0  0  0  0
   15.7497   41.9267    8.2178 C   0  0  0  0  0  0  0  0  0  0  0  0
   14.2211   42.6957    6.5764 C   0  0  0  0  0  0  0  0  0  0  0  0
   13.9082   44.3862    4.6776 C   0  0  0  0  0  0  0  0  0  0  0  0
   13.0066   44.9071    3.6349 C   0  0  0  0  0  0  0  0  0  0  0  0
   11.7266   44.3592    3.4669 C   0  0  0  0  0  0  0  0  0  0  0  0
   10.8705   44.8525    2.4780 C   0  0  0  0  0  0  0  0  0  0  0  0
   11.2879   45.8975    1.6496 C   0  0  0  0  0  0  0  0  0  0  0  0
   12.5615   46.4494    1.8098 C   0  0  0  0  0  0  0  0  0  0  0  0
   13.4178   45.9562    2.7987 C   0  0  0  0  0  0  0  0  0  0  0  0
   15.9188   40.4733    9.7587 N   0  0  0  0  0  0  0  0  0  0  0  0
   16.5958   41.4554    9.1493 N   0  0  0  0  0  0  0  0  0  0  0  0
   13.4710   43.3133    5.5235 N   0  0  0  0  0  0  0  0  0  0  0  0
   13.7028   41.6781    7.3211 N   0  0  0  0  0  0  0  0  0  0  0  0
   14.6045   41.3026    8.2129 N   0  0  0  0  0  0  0  0  0  0  0  0
   15.8344   43.1197    7.0464 S   0  0  0  0  0  0  0  0  0  0  0  0
   15.0563   44.8877    4.8181 O   0  0  0  0  0  0  0  0  0  0  0  0
    9.2755   44.1607    2.2780 Cl  0  0  0  0  0  0  0  0  0  0  0  0
  1  2  1  0
  2  3  1  0
  3  4  1  0
  5 19  1  0
  6 19  1  0
  6 16  1  0
  7  8  1  0
  9 10  2  0
 10 21  1  0
 11 12  2  0
 13  8  2  0
 14 15  1  0
 16  7  1  0
 18 17  1  0
 18  4  1  0
 18  5  1  0
  4 14  2  0
  5 15  2  0
  6 17  2  0
  7 20  2  0
  8  9  1  0
 10 11  1  0
 12 13  1  0
M  END
>  <rmsd>  (1) 
0.208097041

$$$$
