MolPort-007-723-652 CHEMBL1533885 ChemDiv-E157-7157 MCULE-1767363288 PubChem-16017540 ZINC000008588143 ZINC08588143
     RDKit          3D

 29 31  0  0  0  0  0  0  0  0999 V2000
   13.6738   38.4664   11.5181 C   0  0  0  0  0  0  0  0  0  0  0  0
   13.1836   39.8086   11.0057 C   0  0  0  0  0  0  0  0  0  0  0  0
   14.0223   41.9933   11.9057 C   0  0  0  0  0  0  0  0  0  0  0  0
   13.5763   41.9188   13.2463 C   0  0  0  0  0  0  0  0  0  0  0  0
   13.3637   40.6177   13.9403 C   0  0  0  0  0  0  0  0  0  0  0  0
   13.3692   43.0920   13.9793 C   0  0  0  0  0  0  0  0  0  0  0  0
   13.5983   44.3401   13.3980 C   0  0  0  0  0  0  0  0  0  0  0  0
   13.3733   45.5797   14.1859 C   0  0  0  0  0  0  0  0  0  0  0  0
   14.0477   44.4229   12.0802 C   0  0  0  0  0  0  0  0  0  0  0  0
   14.2586   43.2574   11.3414 C   0  0  0  0  0  0  0  0  0  0  0  0
   15.1779   41.7125    8.5676 C   0  0  0  0  0  0  0  0  0  0  0  0
   14.2595   42.8159    6.6601 C   0  0  0  0  0  0  0  0  0  0  0  0
   13.9087   44.3342    4.6522 C   0  0  0  0  0  0  0  0  0  0  0  0
   13.0142   44.7585    3.5609 C   0  0  0  0  0  0  0  0  0  0  0  0
   11.7512   44.1675    3.4095 C   0  0  0  0  0  0  0  0  0  0  0  0
   10.9017   44.5693    2.3745 C   0  0  0  0  0  0  0  0  0  0  0  0
   11.3092   45.5654    1.4831 C   0  0  0  0  0  0  0  0  0  0  0  0
   12.5657   46.1598    1.6264 C   0  0  0  0  0  0  0  0  0  0  0  0
   13.4152   45.7579    2.6614 C   0  0  0  0  0  0  0  0  0  0  0  0
   14.2371   40.8129   11.1088 N   0  0  0  0  0  0  0  0  0  0  0  0
   16.0095   42.6379    8.0417 N   0  0  0  0  0  0  0  0  0  0  0  0
   15.4985   43.2532    6.9772 N   0  0  0  0  0  0  0  0  0  0  0  0
   13.4855   43.3118    5.5639 N   0  0  0  0  0  0  0  0  0  0  0  0
   15.5620   40.7537    9.9821 S   0  0  0  0  0  0  0  0  0  0  0  0
   13.7296   41.6160    7.7134 S   0  0  0  0  0  0  0  0  0  0  0  0
   16.7953   41.3015   10.6439 O   0  0  0  0  0  0  0  0  0  0  0  0
   15.8302   39.3355    9.5632 O   0  0  0  0  0  0  0  0  0  0  0  0
   15.0423   44.8727    4.7793 O   0  0  0  0  0  0  0  0  0  0  0  0
   10.4861   45.9548    0.4804 F   0  0  0  0  0  0  0  0  0  0  0  0
  1  2  1  0
  2 20  1  0
  4  6  2  0
  5  4  1  0
  7  9  2  0
  8  7  1  0
 10  3  2  0
 11 25  1  0
 12 23  1  0
 12 25  1  0
 13 14  1  0
 15 16  2  0
 17 29  1  0
 17 18  2  0
 19 14  2  0
 20  3  1  0
 21 22  1  0
 23 13  1  0
 24 20  1  0
 24 11  1  0
  3  4  1  0
  6  7  1  0
  9 10  1  0
 11 21  2  0
 12 22  2  0
 13 28  2  0
 14 15  1  0
 16 17  1  0
 18 19  1  0
 24 26  2  0
 24 27  2  0
M  END
>  <rmsd>  (1) 
0.215511173

$$$$
