MolPort-006-844-843 20595011 ChemDiv-E135-0291 MCULE-3451746067 PubChem-17253599 ZINC000020595011 ZINC20595011
     RDKit          3D

 29 31  0  0  0  0  0  0  0  0999 V2000
   13.1733   38.5836   11.0747 C   0  0  0  0  0  0  0  0  0  0  0  0
   13.8314   39.8642   11.5529 C   0  0  0  0  0  0  0  0  0  0  0  0
   13.8210   40.9087   10.4513 C   0  0  0  0  0  0  0  0  0  0  0  0
   14.8733   40.5848    9.4026 C   0  0  0  0  0  0  0  0  0  0  0  0
   13.8410   41.7666    7.4704 C   0  0  0  0  0  0  0  0  0  0  0  0
   14.2537   42.7791    6.6348 C   0  0  0  0  0  0  0  0  0  0  0  0
   13.9001   44.3619    4.6696 C   0  0  0  0  0  0  0  0  0  0  0  0
   13.0058   44.8239    3.5793 C   0  0  0  0  0  0  0  0  0  0  0  0
   13.5674   45.4930    2.5586 C   0  0  0  0  0  0  0  0  0  0  0  0
   12.8831   46.0212    1.3499 C   0  0  0  0  0  0  0  0  0  0  0  0
   10.8869   44.1796    4.8203 C   0  0  0  0  0  0  0  0  0  0  0  0
   13.6631   46.8096    0.3693 C   0  0  0  0  0  0  0  0  0  0  0  0
   15.0271   47.0672    0.5790 C   0  0  0  0  0  0  0  0  0  0  0  0
   15.7611   47.8123   -0.3478 C   0  0  0  0  0  0  0  0  0  0  0  0
   15.1451   48.3123   -1.4986 C   0  0  0  0  0  0  0  0  0  0  0  0
   15.3614   49.5987   -3.6002 C   0  0  0  0  0  0  0  0  0  0  0  0
   13.7817   48.0589   -1.7145 C   0  0  0  0  0  0  0  0  0  0  0  0
   13.0481   47.3138   -0.7876 C   0  0  0  0  0  0  0  0  0  0  0  0
   15.5195   43.1676    7.0339 C   0  0  0  0  0  0  0  0  0  0  0  0
   14.8493   41.5780    8.3414 N   0  0  0  0  0  0  0  0  0  0  0  0
   13.4837   43.3114    5.5516 N   0  0  0  0  0  0  0  0  0  0  0  0
   11.6241   45.7955    1.1204 N   0  0  0  0  0  0  0  0  0  0  0  0
   11.5882   44.5573    3.6025 N   0  0  0  0  0  0  0  0  0  0  0  0
   15.8552   42.4005    8.0894 N   0  0  0  0  0  0  0  0  0  0  0  0
   15.0461   44.8754    4.7969 O   0  0  0  0  0  0  0  0  0  0  0  0
   10.2358   43.5871    1.5475 O   0  0  0  0  0  0  0  0  0  0  0  0
    9.4278   45.6821    2.5714 O   0  0  0  0  0  0  0  0  0  0  0  0
   15.9063   49.0537   -2.4062 O   0  0  0  0  0  0  0  0  0  0  0  0
   10.6418   44.8789    2.1980 S   0  0  0  0  0  0  0  0  0  0  0  0
  1  2  1  0
  2  3  1  0
  3  4  1  0
  4 20  1  0
  6 21  1  0
  6 19  1  0
  7  8  1  0
  9 10  1  0
 10 12  1  0
 11 23  1  0
 13 14  2  0
 15 28  1  0
 15 17  2  0
 16 28  1  0
 18 12  2  0
 20  5  1  0
 20 24  1  0
 21  7  1  0
 23  8  1  0
 29 22  1  0
 29 23  1  0
  5  6  2  0
  7 25  2  0
  8  9  2  0
 10 22  2  0
 12 13  1  0
 14 15  1  0
 17 18  1  0
 19 24  2  0
 29 26  2  0
 29 27  2  0
M  END
>  <rmsd>  (1) 
0.169874594

$$$$
