MolPort-046-971-670 MCULE-7261905187 PubChem-110111614
     RDKit          3D

 28 31  0  0  0  0  0  0  0  0999 V2000
   11.6270   44.1626    3.4756 C   0  0  0  0  0  0  0  0  0  0  0  0
   12.9794   44.7645    3.6481 C   0  0  0  0  0  0  0  0  0  0  0  0
   13.8509   44.3306    4.6609 C   0  0  0  0  0  0  0  0  0  0  0  0
   15.4904   45.9050    3.9486 C   0  0  0  0  0  0  0  0  0  0  0  0
   14.6493   46.3597    2.9326 C   0  0  0  0  0  0  0  0  0  0  0  0
   13.3878   45.7833    2.7852 C   0  0  0  0  0  0  0  0  0  0  0  0
   14.2136   42.7334    6.6289 C   0  0  0  0  0  0  0  0  0  0  0  0
   16.2085   42.6730    7.9238 C   0  0  0  0  0  0  0  0  0  0  0  0
   15.6892   41.6498    8.7182 C   0  0  0  0  0  0  0  0  0  0  0  0
   14.4013   41.1644    8.4559 C   0  0  0  0  0  0  0  0  0  0  0  0
   13.6618   41.7106    7.4045 C   0  0  0  0  0  0  0  0  0  0  0  0
   13.8012   40.0680    9.2773 C   0  0  2  0  0  0  0  0  0  0  0  0
   13.6675   40.4854   10.7436 C   0  0  0  0  0  0  0  0  0  0  0  0
   13.0342   39.3609   11.5595 C   0  0  0  0  0  0  0  0  0  0  0  0
   13.8687   38.0891   11.4362 C   0  0  0  0  0  0  0  0  0  0  0  0
   14.6194   38.7818    9.1568 C   0  0  0  0  0  0  0  0  0  0  0  0
   13.5340   36.5376    9.4537 C   0  0  0  0  0  0  0  0  0  0  0  0
   13.3058   35.3163   10.2614 C   0  0  0  0  0  0  0  0  0  0  0  0
   12.5254   34.2709    9.7560 C   0  0  0  0  0  0  0  0  0  0  0  0
   12.9080   32.9988   11.7093 C   0  0  0  0  0  0  0  0  0  0  0  0
   13.8891   35.1392   11.5202 C   0  0  0  0  0  0  0  0  0  0  0  0
   15.0781   44.9121    4.7812 N   0  0  0  0  0  0  0  0  0  0  0  0
   13.4425   43.2841    5.5545 N   0  0  0  0  0  0  0  0  0  0  0  0
   15.4679   43.1882    6.9063 N   0  0  0  0  0  0  0  0  0  0  0  0
   14.0483   37.7552   10.0245 N   0  0  0  0  0  0  0  0  0  0  0  0
   12.3382   33.1399   10.4846 N   0  0  0  0  0  0  0  0  0  0  0  0
   13.6788   33.9938   12.2192 N   0  0  0  0  0  0  0  0  0  0  0  0
   13.2757   36.5021    8.2189 O   0  0  0  0  0  0  0  0  0  0  0  0
  1  2  1  0
  3 22  2  0
  3 23  1  0
  4  5  2  0
  6  2  2  0
  8 24  2  0
  9 10  2  0
 11  7  2  0
 12 10  1  6
 12 13  1  0
 13 14  1  0
 14 15  1  0
 15 25  1  0
 16 25  1  0
 16 12  1  0
 17 18  1  0
 19 26  2  0
 20 27  2  0
 21 18  2  0
 23  7  1  0
 25 17  1  0
  2  3  1  0
  4 22  1  0
  5  6  1  0
  7 24  1  0
  8  9  1  0
 10 11  1  0
 17 28  2  0
 18 19  1  0
 20 26  1  0
 21 27  1  0
M  END
>  <rmsd>  (1) 
0.243949816

$$$$
