MolPort-039-123-951 MolPort-047-505-371 CSSS00160134884 MCULE-3548329714 MCULE-5752747003 PubChem-118794773 PubChem-154903008
     RDKit          3D

 28 30  0  0  0  0  0  0  0  0999 V2000
   17.3405   37.7831    9.1527 C   0  0  0  0  0  0  0  0  0  0  0  0
   16.9723   38.4295   10.4810 C   0  0  0  0  0  0  0  0  0  0  0  0
   16.4918   40.7323    9.6666 C   0  0  0  0  0  0  0  0  0  0  0  0
   15.7376   41.3902    8.5793 C   0  0  0  0  0  0  0  0  0  0  0  0
   14.6971   40.7179    7.9209 C   0  0  0  0  0  0  0  0  0  0  0  0
   13.9721   41.3531    6.9100 C   0  0  0  0  0  0  0  0  0  0  0  0
   14.2787   42.6685    6.5414 C   0  0  0  0  0  0  0  0  0  0  0  0
   13.8285   44.5341    4.8671 C   0  0  0  0  0  0  0  0  0  0  0  0
   11.4237   44.8349    4.2692 C   0  0  0  0  0  0  0  0  0  0  0  0
   10.9018   44.8718    2.8463 C   0  0  0  0  0  0  0  0  0  0  0  0
   10.7694   46.3242    2.3932 C   0  0  0  0  0  0  0  0  0  0  0  0
   11.8696   47.2672    2.9337 C   0  0  0  0  0  0  0  0  0  0  0  0
   13.1126   46.5804    3.5381 C   0  0  1  0  0  0  0  0  0  0  0  0
   13.8649   47.5706    4.4370 C   0  0  0  0  0  0  0  0  0  0  0  0
   15.3358   43.3323    7.1770 C   0  0  0  0  0  0  0  0  0  0  0  0
   16.0643   42.6943    8.1850 C   0  0  0  0  0  0  0  0  0  0  0  0
   14.6939   39.4220   10.8321 C   0  0  0  0  0  0  0  0  0  0  0  0
   13.9639   40.5820   11.1444 C   0  0  0  0  0  0  0  0  0  0  0  0
   12.6942   40.4902   11.7181 C   0  0  0  0  0  0  0  0  0  0  0  0
   12.1398   39.2383   11.9909 C   0  0  0  0  0  0  0  0  0  0  0  0
   12.8554   38.0776   11.6879 C   0  0  0  0  0  0  0  0  0  0  0  0
   14.1273   38.1690   11.1167 C   0  0  0  0  0  0  0  0  0  0  0  0
   16.0202   39.5161   10.2693 N   0  0  0  0  0  0  0  0  0  0  0  0
   13.4837   43.3147    5.5412 N   0  0  0  0  0  0  0  0  0  0  0  0
   12.7979   45.3264    4.2542 N   0  0  0  0  0  0  0  0  0  0  0  0
   13.0488   47.9412    5.5868 N   0  0  0  0  0  0  0  0  0  0  0  0
   17.5533   41.2629   10.0989 O   0  0  0  0  0  0  0  0  0  0  0  0
   15.0365   44.8995    4.7943 O   0  0  0  0  0  0  0  0  0  0  0  0
  1  2  1  0
  2 23  1  0
  3  4  1  0
  5  6  2  0
  7 24  1  0
  7 15  2  0
  8 25  1  0
  9 25  1  0
  9 10  1  0
 10 11  1  0
 11 12  1  0
 12 13  1  0
 13 14  1  1
 13 25  1  0
 14 26  1  0
 16  4  2  0
 18 19  2  0
 20 21  2  0
 22 17  2  0
 23  3  1  0
 23 17  1  0
 24  8  1  0
  3 27  2  0
  4  5  1  0
  6  7  1  0
  8 28  2  0
 15 16  1  0
 17 18  1  0
 19 20  1  0
 21 22  1  0
M  END
>  <rmsd>  (1) 
0.245940268

$$$$
