MolPort-006-609-944 ChemDiv-V008-9224 MCULE-2105279459 PubChem-46070028 ZINC000034735436 ZINC34735436
     RDKit          3D

 36 39  0  0  0  0  0  0  0  0999 V2000
   13.3010   40.0613   -0.5016 C   0  0  0  0  0  0  0  0  0  0  0  0
   13.3395   42.1176    0.8703 C   0  0  0  0  0  0  0  0  0  0  0  0
   12.9698   42.7616    2.0566 C   0  0  0  0  0  0  0  0  0  0  0  0
   13.3550   44.0876    2.2911 C   0  0  0  0  0  0  0  0  0  0  0  0
   12.9879   44.7635    3.5677 C   0  0  0  0  0  0  0  0  0  0  0  0
   13.9064   44.3413    4.6634 C   0  0  0  0  0  0  0  0  0  0  0  0
   14.2743   42.7155    6.6068 C   0  0  0  0  0  0  0  0  0  0  0  0
   13.6809   41.7488    7.4246 C   0  0  0  0  0  0  0  0  0  0  0  0
   14.4033   41.1211    8.4526 C   0  0  0  0  0  0  0  0  0  0  0  0
   15.7440   41.4953    8.6546 C   0  0  0  0  0  0  0  0  0  0  0  0
   16.3472   42.4581    7.8420 C   0  0  0  0  0  0  0  0  0  0  0  0
   15.6151   43.0641    6.8200 C   0  0  0  0  0  0  0  0  0  0  0  0
   14.4167   39.7870   10.5783 C   0  0  0  0  0  0  0  0  0  0  0  0
   13.3700   39.6937   11.6754 C   0  0  0  0  0  0  0  0  0  0  0  0
   12.3651   38.5935   11.3453 C   0  0  0  0  0  0  0  0  0  0  0  0
   10.7028   37.8880    9.6127 C   0  0  0  0  0  0  0  0  0  0  0  0
   11.1228   36.5300    9.1590 C   0  0  0  0  0  0  0  0  0  0  0  0
   11.2796   35.4990   10.0899 C   0  0  0  0  0  0  0  0  0  0  0  0
   11.6992   34.2267    9.6706 C   0  0  0  0  0  0  0  0  0  0  0  0
   11.6104   33.3069   11.9633 C   0  0  0  0  0  0  0  0  0  0  0  0
   11.9637   34.0022    8.3147 C   0  0  0  0  0  0  0  0  0  0  0  0
   11.8143   35.0350    7.3758 C   0  0  0  0  0  0  0  0  0  0  0  0
   12.4851   33.5781    5.4945 C   0  0  0  0  0  0  0  0  0  0  0  0
   11.3949   36.2965    7.8066 C   0  0  0  0  0  0  0  0  0  0  0  0
   12.5577   39.4523    8.9680 C   0  0  0  0  0  0  0  0  0  0  0  0
   14.1204   44.7709    1.3407 C   0  0  0  0  0  0  0  0  0  0  0  0
   14.4894   44.1360    0.1522 C   0  0  0  0  0  0  0  0  0  0  0  0
   14.1014   42.8139   -0.0830 C   0  0  0  0  0  0  0  0  0  0  0  0
   12.9465   40.7913    0.6666 O   0  0  0  0  0  0  0  0  0  0  0  0
   15.0327   44.8959    4.7788 O   0  0  0  0  0  0  0  0  0  0  0  0
   11.8639   33.1747   10.5724 O   0  0  0  0  0  0  0  0  0  0  0  0
   12.0732   34.8342    6.0174 O   0  0  0  0  0  0  0  0  0  0  0  0
   12.0950   39.5073    7.7950 O   0  0  0  0  0  0  0  0  0  0  0  0
   13.4904   43.3092    5.5645 N   0  0  0  0  0  0  0  0  0  0  0  0
   13.7785   40.1413    9.3122 N   0  0  0  0  0  0  0  0  0  0  0  0
   11.8662   38.6877    9.9708 N   0  0  0  0  0  0  0  0  0  0  0  0
  1 29  1  0
  2 29  1  0
  3  4  2  0
  5  4  1  0
  5  6  1  0
  6 34  1  0
  8  9  2  0
  9 35  1  0
 10 11  2  0
 12  7  2  0
 13 35  1  0
 13 14  1  0
 14 15  1  0
 15 36  1  0
 16 36  1  0
 16 17  1  0
 18 19  2  0
 19 31  1  0
 20 31  1  0
 21 22  2  0
 22 32  1  0
 23 32  1  0
 24 17  2  0
 25 35  1  0
 26 27  2  0
 28  2  2  0
 34  7  1  0
 36 25  1  0
  2  3  1  0
  4 26  1  0
  6 30  2  0
  7  8  1  0
  9 10  1  0
 11 12  1  0
 17 18  1  0
 19 21  1  0
 22 24  1  0
 25 33  2  0
 27 28  1  0
M  END
>  <rmsd>  (1) 
0.241512328

$$$$
