MolPort-046-956-104 MCULE-7546330212 PubChem-110095008
     RDKit          3D

 27 29  0  0  0  0  0  0  0  0999 V2000
   12.3502   46.1331    1.7769 C   0  0  0  0  0  0  0  0  0  0  0  0
   13.3154   45.7130    2.8257 C   0  0  0  0  0  0  0  0  0  0  0  0
   14.5623   46.3293    2.9123 C   0  0  0  0  0  0  0  0  0  0  0  0
   15.4394   45.9074    3.9094 C   0  0  0  0  0  0  0  0  0  0  0  0
   13.8482   44.3263    4.6682 C   0  0  0  0  0  0  0  0  0  0  0  0
   14.2197   42.7258    6.6463 C   0  0  0  0  0  0  0  0  0  0  0  0
   13.6537   41.7063    7.4153 C   0  0  0  0  0  0  0  0  0  0  0  0
   14.3807   41.1483    8.4701 C   0  0  0  0  0  0  0  0  0  0  0  0
   16.2114   42.5904    8.0099 C   0  0  0  0  0  0  0  0  0  0  0  0
   15.5130   43.1706    6.9497 C   0  0  0  0  0  0  0  0  0  0  0  0
   17.5838   43.0562    8.3377 C   0  0  0  0  0  0  0  0  0  0  0  0
   13.7699   40.0572    9.2838 C   0  0  2  0  0  0  0  0  0  0  0  0
   13.6523   40.4682   10.7424 C   0  0  0  0  0  0  0  0  0  0  0  0
   12.9726   39.3513   11.5133 C   0  0  0  0  0  0  0  0  0  0  0  0
   13.7853   38.0613   11.3955 C   0  0  0  0  0  0  0  0  0  0  0  0
   14.5849   38.7676    9.1586 C   0  0  0  0  0  0  0  0  0  0  0  0
   12.9791   36.9084    9.3709 C   0  0  0  0  0  0  0  0  0  0  0  0
   11.7337   37.6977    9.1052 C   0  0  0  0  0  0  0  0  0  0  0  0
   10.3621   39.0937    7.5191 C   0  0  0  0  0  0  0  0  0  0  0  0
   16.7790   46.5379    4.0371 C   0  0  0  0  0  0  0  0  0  0  0  0
   15.0698   44.9194    4.7649 N   0  0  0  0  0  0  0  0  0  0  0  0
   12.9822   44.7279    3.7002 N   0  0  0  0  0  0  0  0  0  0  0  0
   13.4534   43.2829    5.5690 N   0  0  0  0  0  0  0  0  0  0  0  0
   15.6372   41.5995    8.7424 N   0  0  0  0  0  0  0  0  0  0  0  0
   14.0605   37.6804   10.0004 N   0  0  0  0  0  0  0  0  0  0  0  0
   11.5465   38.3118    7.8299 N   0  0  0  0  0  0  0  0  0  0  0  0
   10.8406   37.7754    9.9907 O   0  0  0  0  0  0  0  0  0  0  0  0
  1  2  1  0
  2 22  2  0
  3  4  2  0
  5 21  2  0
  5 23  1  0
  7  8  2  0
  9 24  2  0
 10  6  2  0
 11  9  1  0
 12  8  1  6
 12 13  1  0
 13 14  1  0
 14 15  1  0
 15 25  1  0
 16 25  1  0
 16 12  1  0
 17 25  1  0
 17 18  1  0
 18 26  1  0
 19 26  1  0
 20  4  1  0
 23  6  1  0
  2  3  1  0
  4 21  1  0
  5 22  1  0
  6  7  1  0
  8 24  1  0
  9 10  1  0
 18 27  2  0
M  END
>  <rmsd>  (1) 
0.244646102

$$$$
