MolPort-016-720-965 19662125 MCULE-8541281991 PubChem-46977982 ZINC000019662125
     RDKit          3D

 26 29  0  0  0  0  0  0  0  0999 V2000
   13.0258   39.4859   11.8208 C   0  0  0  0  0  0  0  0  0  0  0  0
   13.2976   38.8020   10.4934 C   0  0  0  0  0  0  0  0  0  0  0  0
   14.7433   40.4930    9.3844 C   0  0  0  0  0  0  0  0  0  0  0  0
   15.8275   40.2607   10.2569 C   0  0  0  0  0  0  0  0  0  0  0  0
   17.0194   40.9996   10.1351 C   0  0  0  0  0  0  0  0  0  0  0  0
   17.1498   41.9806    9.1411 C   0  0  0  0  0  0  0  0  0  0  0  0
   16.0693   42.1926    8.2901 C   0  0  0  0  0  0  0  0  0  0  0  0
   14.3579   42.7824    6.6640 C   0  0  0  0  0  0  0  0  0  0  0  0
   13.8753   44.3399    4.6878 C   0  0  0  0  0  0  0  0  0  0  0  0
   12.8988   44.7612    3.6678 C   0  0  0  0  0  0  0  0  0  0  0  0
   13.2210   45.7716    2.7506 C   0  0  0  0  0  0  0  0  0  0  0  0
   12.2943   46.1706    1.7835 C   0  0  0  0  0  0  0  0  0  0  0  0
   11.0317   45.5653    1.7192 C   0  0  0  0  0  0  0  0  0  0  0  0
    8.8401   45.5019    0.5309 C   0  0  0  0  0  0  0  0  0  0  0  0
   10.7092   44.5547    2.6367 C   0  0  0  0  0  0  0  0  0  0  0  0
   11.6361   44.1560    3.6034 C   0  0  0  0  0  0  0  0  0  0  0  0
   14.8884   41.4728    8.3973 C   0  0  0  0  0  0  0  0  0  0  0  0
   13.5474   39.7704    9.4802 O   0  0  0  0  0  0  0  0  0  0  0  0
   15.0076   44.8927    4.7345 O   0  0  0  0  0  0  0  0  0  0  0  0
   15.9397   43.2847    7.0241 S   0  0  0  0  0  0  0  0  0  0  0  0
   13.5288   43.3045    5.6185 N   0  0  0  0  0  0  0  0  0  0  0  0
   10.0836   45.9775    0.7256 N   0  0  0  0  0  0  0  0  0  0  0  0
    8.2862   46.1615   -0.5064 N   0  0  0  0  0  0  0  0  0  0  0  0
    9.2018   47.0252   -0.9233 N   0  0  0  0  0  0  0  0  0  0  0  0
   10.2902   46.9163   -0.1800 N   0  0  0  0  0  0  0  0  0  0  0  0
   13.9302   41.7988    7.4915 N   0  0  0  0  0  0  0  0  0  0  0  0
  1  2  1  0
  2 18  1  0
  3 18  1  0
  4  5  2  0
  6  7  2  0
  7 20  1  0
  8 20  1  0
  8 21  1  0
  9 10  1  0
 11 12  2  0
 13 22  1  0
 13 15  2  0
 16 10  2  0
 17 26  1  0
 17  3  2  0
 21  9  1  0
 22 14  1  0
 22 25  1  0
 23 24  1  0
  3  4  1  0
  5  6  1  0
  8 26  2  0
  9 19  2  0
 10 11  1  0
 12 13  1  0
 14 23  2  0
 15 16  1  0
 17  7  1  0
 24 25  2  0
M  END
>  <rmsd>  (1) 
0.248526871

$$$$
