MolPort-002-305-695 5557033 PubChem-1628717 ZINC000005557033 ZINC05557033
     RDKit          3D

 25 27  0  0  0  0  0  0  0  0999 V2000
   12.8200   39.0162   11.4829 C   0  0  0  0  0  0  0  0  0  0  0  0
   14.3120   39.2187   11.2962 C   0  0  0  0  0  0  0  0  0  0  0  0
   14.5983   39.8227    9.9334 C   0  0  0  0  0  0  0  0  0  0  0  0
   14.2457   41.3018    9.9236 C   0  0  0  0  0  0  0  0  0  0  0  0
   14.2042   42.8068    6.6824 C   0  0  0  0  0  0  0  0  0  0  0  0
   14.0063   44.2133    4.5643 C   0  0  0  0  0  0  0  0  0  0  0  0
   13.2478   44.4082    3.2932 C   0  0  0  0  0  0  0  0  0  0  0  0
   12.7168   45.8259    3.2022 C   0  0  0  0  0  0  0  0  0  0  0  0
   14.1271   44.1075    2.0945 C   0  0  0  0  0  0  0  0  0  0  0  0
   15.5720   42.6203    6.8088 C   0  0  0  0  0  0  0  0  0  0  0  0
   16.6621   42.8330    5.9710 C   0  0  0  0  0  0  0  0  0  0  0  0
   17.9254   42.4615    6.4626 C   0  0  0  0  0  0  0  0  0  0  0  0
   19.0687   42.6564    5.6857 C   0  0  0  0  0  0  0  0  0  0  0  0
   20.3309   42.2834    6.1773 C   0  0  0  0  0  0  0  0  0  0  0  0
   21.4805   43.0380    4.1211 C   0  0  0  0  0  0  0  0  0  0  0  0
   20.4369   41.7131    7.4515 C   0  0  0  0  0  0  0  0  0  0  0  0
   19.3004   41.5102    8.2403 C   0  0  0  0  0  0  0  0  0  0  0  0
   18.0419   41.8787    7.7614 C   0  0  0  0  0  0  0  0  0  0  0  0
   15.7225   42.0462    8.0372 C   0  0  0  0  0  0  0  0  0  0  0  0
   14.5219   41.8772    8.6158 N   0  0  0  0  0  0  0  0  0  0  0  0
   13.5849   42.3342    7.7924 N   0  0  0  0  0  0  0  0  0  0  0  0
   13.4891   43.3138    5.5491 N   0  0  0  0  0  0  0  0  0  0  0  0
   16.9303   41.6721    8.5294 N   0  0  0  0  0  0  0  0  0  0  0  0
   15.0534   44.8805    4.7855 O   0  0  0  0  0  0  0  0  0  0  0  0
   21.4926   42.4676    5.4226 O   0  0  0  0  0  0  0  0  0  0  0  0
  1  2  1  0
  2  3  1  0
  3  4  1  0
  4 20  1  0
  5 22  1  0
  5 10  1  0
  7  6  1  0
  7  8  1  0
  7  9  1  0
 11 12  2  0
 13 14  2  0
 14 25  1  0
 15 25  1  0
 16 17  2  0
 18 23  2  0
 18 12  1  0
 19 20  1  0
 19 10  2  0
 20 21  1  0
 22  6  1  0
  5 21  2  0
  6 24  2  0
 10 11  1  0
 12 13  1  0
 14 16  1  0
 17 18  1  0
 19 23  1  0
M  END
>  <rmsd>  (1) 
0.198963702

$$$$
