MolPort-020-279-162 MCULE-1157596431 PubChem-110255916
     RDKit          3D

 25 27  0  0  0  0  0  0  0  0999 V2000
   11.6027   44.1273    3.5211 C   0  0  0  0  0  0  0  0  0  0  0  0
   12.9518   44.7435    3.6671 C   0  0  0  0  0  0  0  0  0  0  0  0
   13.8444   44.3249    4.6681 C   0  0  0  0  0  0  0  0  0  0  0  0
   15.4566   45.9088    3.9150 C   0  0  0  0  0  0  0  0  0  0  0  0
   14.5944   46.3479    2.9102 C   0  0  0  0  0  0  0  0  0  0  0  0
   13.3359   45.7589    2.7894 C   0  0  0  0  0  0  0  0  0  0  0  0
   14.2294   42.7259    6.6516 C   0  0  0  0  0  0  0  0  0  0  0  0
   14.3696   41.1722    8.4365 C   0  0  0  0  0  0  0  0  0  0  0  0
   16.2109   42.5900    8.0039 C   0  0  0  0  0  0  0  0  0  0  0  0
   15.5214   43.1757    6.9446 C   0  0  0  0  0  0  0  0  0  0  0  0
   17.5846   43.0462    8.3392 C   0  0  0  0  0  0  0  0  0  0  0  0
   13.7325   40.0844    9.2354 C   0  0  2  0  0  0  0  0  0  0  0  0
   13.5983   40.4970   10.6946 C   0  0  0  0  0  0  0  0  0  0  0  0
   12.9624   39.3636   11.4825 C   0  0  0  0  0  0  0  0  0  0  0  0
   13.7989   38.0896   11.3265 C   0  0  0  0  0  0  0  0  0  0  0  0
   14.5455   38.7888    9.1259 C   0  0  0  0  0  0  0  0  0  0  0  0
   12.6826   37.2826    9.3615 C   0  0  0  0  0  0  0  0  0  0  0  0
   12.8819   36.2255    8.3297 C   0  0  0  0  0  0  0  0  0  0  0  0
   15.0679   44.9187    4.7622 N   0  0  0  0  0  0  0  0  0  0  0  0
   13.4583   43.2804    5.5763 N   0  0  0  0  0  0  0  0  0  0  0  0
   13.6851   41.7343    7.4055 N   0  0  0  0  0  0  0  0  0  0  0  0
   15.6271   41.6022    8.7295 N   0  0  0  0  0  0  0  0  0  0  0  0
   13.9686   37.6935    9.9210 N   0  0  0  0  0  0  0  0  0  0  0  0
   13.4432   34.9688    8.6910 N   0  0  0  0  0  0  0  0  0  0  0  0
   12.5436   36.4421    7.1375 O   0  0  0  0  0  0  0  0  0  0  0  0
  1  2  1  0
  3 19  2  0
  3 20  1  0
  4  5  2  0
  6  2  2  0
  8 21  2  0
  9 22  2  0
 10  7  2  0
 11  9  1  0
 12  8  1  6
 12 13  1  0
 13 14  1  0
 14 15  1  0
 15 23  1  0
 16 23  1  0
 16 12  1  0
 17 23  1  0
 17 18  1  0
 18 24  1  0
 20  7  1  0
  2  3  1  0
  4 19  1  0
  5  6  1  0
  7 21  1  0
  8 22  1  0
  9 10  1  0
 18 25  2  0
M  END
>  <rmsd>  (1) 
0.244152382

$$$$
