MolPort-002-566-700 ChemDiv-4190-0054 LN00531081 PubChem-1920789
     RDKit          3D

 25 27  0  0  0  0  0  0  0  0999 V2000
   13.0255   39.4852   11.8205 C   0  0  0  0  0  0  0  0  0  0  0  0
   13.2979   38.8014   10.4933 C   0  0  0  0  0  0  0  0  0  0  0  0
   14.7432   40.4928    9.3845 C   0  0  0  0  0  0  0  0  0  0  0  0
   14.8882   41.4726    8.3974 C   0  0  0  0  0  0  0  0  0  0  0  0
   14.3577   42.7820    6.6639 C   0  0  0  0  0  0  0  0  0  0  0  0
   13.8751   44.3395    4.6877 C   0  0  0  0  0  0  0  0  0  0  0  0
   12.8985   44.7605    3.6675 C   0  0  0  0  0  0  0  0  0  0  0  0
   11.6359   44.1547    3.6027 C   0  0  0  0  0  0  0  0  0  0  0  0
   10.7084   44.5531    2.6359 C   0  0  0  0  0  0  0  0  0  0  0  0
   11.0295   45.5615    1.7224 C   0  0  0  0  0  0  0  0  0  0  0  0
   10.2917   46.9802   -0.1781 C   0  0  0  0  0  0  0  0  0  0  0  0
   10.0846   48.3289    0.4854 C   0  0  0  0  0  0  0  0  0  0  0  0
    9.3066   46.8332   -1.3182 C   0  0  0  0  0  0  0  0  0  0  0  0
   12.2936   46.1691    1.7834 C   0  0  0  0  0  0  0  0  0  0  0  0
   13.2207   45.7708    2.7501 C   0  0  0  0  0  0  0  0  0  0  0  0
   16.0689   42.1928    8.2904 C   0  0  0  0  0  0  0  0  0  0  0  0
   17.1492   41.9812    9.1417 C   0  0  0  0  0  0  0  0  0  0  0  0
   17.0190   41.0001   10.1358 C   0  0  0  0  0  0  0  0  0  0  0  0
   15.8273   40.2609   10.2573 C   0  0  0  0  0  0  0  0  0  0  0  0
   13.5474   39.7699    9.4801 O   0  0  0  0  0  0  0  0  0  0  0  0
   15.0071   44.8925    4.7345 O   0  0  0  0  0  0  0  0  0  0  0  0
   10.0798   45.9354    0.7652 O   0  0  0  0  0  0  0  0  0  0  0  0
   13.9301   41.7984    7.4914 N   0  0  0  0  0  0  0  0  0  0  0  0
   13.5287   43.3039    5.6183 N   0  0  0  0  0  0  0  0  0  0  0  0
   15.9392   43.2849    7.0244 S   0  0  0  0  0  0  0  0  0  0  0  0
  1  2  1  0
  2 20  1  0
  3 20  1  0
  4 23  1  0
  5 24  1  0
  5 25  1  0
  6  7  1  0
  8  9  2  0
 10 22  1  0
 10 14  2  0
 11 22  1  0
 11 12  1  0
 11 13  1  0
 15  7  2  0
 16 25  1  0
 16  4  2  0
 17 18  2  0
 19  3  2  0
 24  6  1  0
  3  4  1  0
  5 23  2  0
  6 21  2  0
  7  8  1  0
  9 10  1  0
 14 15  1  0
 16 17  1  0
 18 19  1  0
M  END
>  <rmsd>  (1) 
0.248526812

$$$$
