Molport-020-278-651 MCULE-8541989905 PubChem-110255523
     RDKit          3D

 27 30  0  0  0  0  0  0  0  0999 V2000
   17.6178   42.9809    8.2827 C   0  0  0  0  0  0  0  0  0  0  0  0
   16.2342   42.5432    7.9640 C   0  0  0  0  0  0  0  0  0  0  0  0
   15.5380   43.1418    6.9162 C   0  0  0  0  0  0  0  0  0  0  0  0
   14.2365   42.7097    6.6393 C   0  0  0  0  0  0  0  0  0  0  0  0
   14.3815   41.1463    8.4154 C   0  0  0  0  0  0  0  0  0  0  0  0
   13.7406   40.0662    9.2215 C   0  0  2  0  0  0  0  0  0  0  0  0
   13.6023   40.4941   10.6840 C   0  0  0  0  0  0  0  0  0  0  0  0
   12.9432   39.3859   11.5025 C   0  0  0  0  0  0  0  0  0  0  0  0
   13.7645   38.1045   11.4000 C   0  0  0  0  0  0  0  0  0  0  0  0
   14.5401   38.7678    9.1136 C   0  0  0  0  0  0  0  0  0  0  0  0
   13.5510   36.4837    9.4769 C   0  0  0  0  0  0  0  0  0  0  0  0
   12.9259   35.4614   10.3778 C   0  0  0  0  0  0  0  0  0  0  0  0
   11.5343   35.0824    9.8990 C   0  0  0  0  0  0  0  0  0  0  0  0
   11.5031   33.5684    9.8006 C   0  0  0  0  0  0  0  0  0  0  0  0
   12.7340   33.0707   10.5261 C   0  0  0  0  0  0  0  0  0  0  0  0
   13.7443   34.1867   10.4072 C   0  0  0  0  0  0  0  0  0  0  0  0
   13.8440   44.3264    4.6771 C   0  0  0  0  0  0  0  0  0  0  0  0
   12.9405   44.7421    3.6951 C   0  0  0  0  0  0  0  0  0  0  0  0
   13.3042   45.7620    2.8141 C   0  0  0  0  0  0  0  0  0  0  0  0
   14.5619   46.3569    2.9208 C   0  0  0  0  0  0  0  0  0  0  0  0
   15.4400   45.9182    3.9136 C   0  0  0  0  0  0  0  0  0  0  0  0
   13.6901   41.7216    7.3963 N   0  0  0  0  0  0  0  0  0  0  0  0
   15.6477   41.5601    8.6937 N   0  0  0  0  0  0  0  0  0  0  0  0
   13.9541   37.7604    9.9931 N   0  0  0  0  0  0  0  0  0  0  0  0
   13.4583   43.2786    5.5770 N   0  0  0  0  0  0  0  0  0  0  0  0
   15.0667   44.9226    4.7620 N   0  0  0  0  0  0  0  0  0  0  0  0
   13.7206   36.2162    8.2550 O   0  0  0  0  0  0  0  0  0  0  0  0
  1  2  1  0
  2 23  2  0
  3  4  2  0
  4 25  1  0
  5 22  2  0
  6  5  1  6
  6  7  1  0
  7  8  1  0
  8  9  1  0
  9 24  1  0
 10 24  1  0
 10  6  1  0
 12 11  1  0
 12 13  1  0
 13 14  1  0
 14 15  1  0
 15 16  1  0
 16 12  1  0
 17 26  2  0
 18 19  2  0
 20 21  2  0
 24 11  1  0
 25 17  1  0
  2  3  1  0
  4 22  1  0
  5 23  1  0
 11 27  2  0
 17 18  1  0
 19 20  1  0
 21 26  1  0
M  END
>  <rmsd>  (1) 
0.239542171

$$$$
