MolPort-016-966-988 ChemDiv-V028-4748 MCULE-1394186303 PubChem-8090288 ZINC000006833642 ZINC06833642
     RDKit          3D

 26 28  0  0  0  0  0  0  0  0999 V2000
   15.0366   44.8991    4.8108 O   0  0  0  0  0  0  0  0  0  0  0  0
   15.4821   41.0078   12.5410 O   0  0  0  0  0  0  0  0  0  0  0  0
   13.8824   44.4020    4.7311 C   0  0  0  0  0  0  0  0  0  0  0  0
   12.9173   44.9506    3.7369 C   0  0  0  0  0  0  0  0  0  0  0  0
   12.9832   44.1769    2.4642 C   0  0  0  0  0  0  0  0  0  0  0  0
   13.8812   44.5549    1.4593 C   0  0  0  0  0  0  0  0  0  0  0  0
   13.9561   43.8176    0.2736 C   0  0  0  0  0  0  0  0  0  0  0  0
   13.1363   42.6993    0.0926 C   0  0  0  0  0  0  0  0  0  0  0  0
   12.2428   42.3169    1.0979 C   0  0  0  0  0  0  0  0  0  0  0  0
   12.1672   43.0539    2.2837 C   0  0  0  0  0  0  0  0  0  0  0  0
   14.3011   42.6352    6.5308 C   0  0  0  0  0  0  0  0  0  0  0  0
   15.9316   41.7666    8.0548 C   0  0  0  0  0  0  0  0  0  0  0  0
   16.8171   42.4845   10.3865 C   0  0  0  0  0  0  0  0  0  0  0  0
   17.4642   42.1060   11.7097 C   0  0  0  0  0  0  0  0  0  0  0  0
   16.8652   40.8220   12.2633 C   0  0  0  0  0  0  0  0  0  0  0  0
   14.4812   40.2687   11.9039 C   0  0  0  0  0  0  0  0  0  0  0  0
   13.1418   40.5513   12.1923 C   0  0  0  0  0  0  0  0  0  0  0  0
   12.1181   39.8355   11.5640 C   0  0  0  0  0  0  0  0  0  0  0  0
   12.4298   38.8312   10.6432 C   0  0  0  0  0  0  0  0  0  0  0  0
   13.7654   38.5410   10.3514 C   0  0  0  0  0  0  0  0  0  0  0  0
   14.7888   39.2565   10.9793 C   0  0  0  0  0  0  0  0  0  0  0  0
   13.4887   43.2988    5.5553 N   0  0  0  0  0  0  0  0  0  0  0  0
   13.8421   41.6014    7.2683 N   0  0  0  0  0  0  0  0  0  0  0  0
   14.7488   41.1181    8.1157 N   0  0  0  0  0  0  0  0  0  0  0  0
   17.3418   41.3483    9.0678 S   0  0  0  0  0  0  0  0  0  0  0  0
   15.9055   43.0021    6.9123 S   0  0  0  0  0  0  0  0  0  0  0  0
  3 22  1  0
  4  3  1  0
  4  5  1  0
  6  7  2  0
  8  9  2  0
 10  5  2  0
 11 26  1  0
 12 25  1  0
 12 26  1  0
 13 25  1  0
 13 14  1  0
 14 15  1  0
 15  2  1  0
 16  2  1  0
 17 18  2  0
 19 20  2  0
 21 16  2  0
 22 11  1  0
 23 24  1  0
  3  1  2  0
  5  6  1  0
  7  8  1  0
  9 10  1  0
 11 23  2  0
 12 24  2  0
 16 17  1  0
 18 19  1  0
 20 21  1  0
M  END
>  <rmsd>  (1) 
0.243304238

$$$$
