MolPort-035-706-982 CSSS03437789237 MCULE-1941433661 PubChem-91938307
     RDKit          3D

 28 30  0  0  0  0  0  0  0  0999 V2000
   14.7207   36.3205    6.2403 C   0  0  0  0  0  0  0  0  0  0  0  0
   14.7285   36.2731    7.7534 C   0  0  0  0  0  0  0  0  0  0  0  0
   14.5375   37.8441    9.6401 C   0  0  0  0  0  0  0  0  0  0  0  0
   14.3938   39.2616   10.1234 C   0  0  1  0  0  0  0  0  0  0  0  0
   13.5025   39.3030   11.3567 C   0  0  0  0  0  0  0  0  0  0  0  0
   14.3483   41.0664    8.3712 C   0  0  0  0  0  0  0  0  0  0  0  0
   13.6449   41.6822    7.3319 C   0  0  0  0  0  0  0  0  0  0  0  0
   14.2308   42.7158    6.5926 C   0  0  0  0  0  0  0  0  0  0  0  0
   13.8974   44.3833    4.6675 C   0  0  0  0  0  0  0  0  0  0  0  0
   12.9923   44.8979    3.6133 C   0  0  0  0  0  0  0  0  0  0  0  0
   13.4387   45.9406    2.7852 C   0  0  0  0  0  0  0  0  0  0  0  0
   12.6192   46.4565    1.7788 C   0  0  0  0  0  0  0  0  0  0  0  0
   11.3394   45.9354    1.5865 C   0  0  0  0  0  0  0  0  0  0  0  0
   10.8797   44.8990    2.4005 C   0  0  0  0  0  0  0  0  0  0  0  0
   11.6948   44.3773    3.4104 C   0  0  0  0  0  0  0  0  0  0  0  0
   15.5341   43.1313    6.9070 C   0  0  0  0  0  0  0  0  0  0  0  0
   16.2393   42.5203    7.9475 C   0  0  0  0  0  0  0  0  0  0  0  0
   15.6457   41.4884    8.6778 C   0  0  0  0  0  0  0  0  0  0  0  0
   15.7622   39.8012   10.4889 C   0  0  0  0  0  0  0  0  0  0  0  0
   14.5664   37.5860    8.2676 O   0  0  0  0  0  0  0  0  0  0  0  0
   14.6882   36.9017   10.4675 O   0  0  0  0  0  0  0  0  0  0  0  0
   13.7466   40.0349    9.1001 O   0  0  0  0  0  0  0  0  0  0  0  0
   15.0452   44.8900    4.7983 O   0  0  0  0  0  0  0  0  0  0  0  0
   16.4079   39.2910   11.4439 O   0  0  0  0  0  0  0  0  0  0  0  0
   13.4752   43.3186    5.5332 N   0  0  0  0  0  0  0  0  0  0  0  0
   16.3506   40.8698    9.7474 N   0  0  0  0  0  0  0  0  0  0  0  0
   13.0670   47.4623    0.9898 F   0  0  0  0  0  0  0  0  0  0  0  0
   11.2060   43.3709    4.1765 F   0  0  0  0  0  0  0  0  0  0  0  0
  1  2  1  0
  2 20  1  0
  3 20  1  0
  4  3  1  0
  4  5  1  1
  4 22  1  0
  4 19  1  0
  6 22  1  0
  7  8  2  0
  8 25  1  0
  9 10  1  0
 11 12  2  0
 12 27  1  0
 13 14  2  0
 15 28  1  0
 15 10  2  0
 16 17  2  0
 18 26  1  0
 18  6  2  0
 25  9  1  0
 26 19  1  0
  3 21  2  0
  6  7  1  0
  8 16  1  0
  9 23  2  0
 10 11  1  0
 12 13  1  0
 14 15  1  0
 17 18  1  0
 19 24  2  0
M  END
>  <rmsd>  (1) 
0.232627973

$$$$
