MolPort-046-061-713 MCULE-4990245677 PubChem-132448873
     RDKit          3D

 26 29  0  0  0  0  0  0  0  0999 V2000
   17.1947   42.4962    8.5861 C   0  0  0  0  0  0  0  0  0  0  0  0
   14.2963   42.6934    6.5330 C   0  0  0  0  0  0  0  0  0  0  0  0
   13.8689   44.4390    4.7497 C   0  0  0  0  0  0  0  0  0  0  0  0
   12.8834   45.0388    3.7968 C   0  0  0  0  0  0  0  0  0  0  0  0
   11.8862   45.8836    4.5716 C   0  0  0  0  0  0  0  0  0  0  0  0
   12.9896   46.5566    3.7855 C   0  0  0  0  0  0  0  0  0  0  0  0
   13.9905   41.5306    7.2064 C   0  0  0  0  0  0  0  0  0  0  0  0
   15.0587   41.3211    8.0368 C   0  0  0  0  0  0  0  0  0  0  0  0
   15.1568   40.1650    8.9823 C   0  0  0  0  0  0  0  0  0  0  0  0
   14.2689   39.0182    8.4761 C   0  0  0  0  0  0  0  0  0  0  0  0
   12.8608   40.5663    7.0353 C   0  0  0  0  0  0  0  0  0  0  0  0
   11.7502   38.9099    8.5673 C   0  0  0  0  0  0  0  0  0  0  0  0
   11.8081   37.8909    9.6623 C   0  0  0  0  0  0  0  0  0  0  0  0
   11.2879   38.4513   10.9467 C   0  0  0  0  0  0  0  0  0  0  0  0
   12.1432   39.1098   11.8464 C   0  0  0  0  0  0  0  0  0  0  0  0
   11.6403   39.6087   13.0533 C   0  0  0  0  0  0  0  0  0  0  0  0
   10.2861   39.4599   13.3616 C   0  0  0  0  0  0  0  0  0  0  0  0
    9.4310   38.8132   12.4629 C   0  0  0  0  0  0  0  0  0  0  0  0
    9.9313   38.3097   11.2582 C   0  0  0  0  0  0  0  0  0  0  0  0
   15.9322   42.3344    7.8871 N   0  0  0  0  0  0  0  0  0  0  0  0
   15.4826   43.1775    6.9673 N   0  0  0  0  0  0  0  0  0  0  0  0
   13.4771   43.3104    5.5349 N   0  0  0  0  0  0  0  0  0  0  0  0
   12.9488   39.5203    8.0643 N   0  0  0  0  0  0  0  0  0  0  0  0
   15.0471   44.8891    4.8167 O   0  0  0  0  0  0  0  0  0  0  0  0
   10.6295   39.2201    8.0812 O   0  0  0  0  0  0  0  0  0  0  0  0
   13.4593   39.2579   11.5656 F   0  0  0  0  0  0  0  0  0  0  0  0
  1 20  1  0
  2 22  1  0
  2  7  1  0
  4  3  1  0
  4  5  1  0
  5  6  1  0
  6  4  1  0
  8 20  1  0
  9  8  1  0
  9 10  1  0
 10 23  1  0
 11 23  1  0
 11  7  1  0
 13 12  1  0
 13 14  1  0
 15 26  1  0
 15 16  2  0
 17 18  2  0
 19 14  2  0
 20 21  1  0
 22  3  1  0
 23 12  1  0
  2 21  2  0
  3 24  2  0
  7  8  2  0
 12 25  2  0
 14 15  1  0
 16 17  1  0
 18 19  1  0
M  END
>  <rmsd>  (1) 
0.226892784

$$$$
