MolPort-020-292-491 MCULE-8266593195 PubChem-110264959
     RDKit          3D

 30 33  0  0  0  0  0  0  0  0999 V2000
   16.7878   46.5347    4.0470 C   0  0  0  0  0  0  0  0  0  0  0  0
   15.4482   45.9057    3.9131 C   0  0  0  0  0  0  0  0  0  0  0  0
   14.5764   46.3280    2.9115 C   0  0  0  0  0  0  0  0  0  0  0  0
   13.3293   45.7130    2.8192 C   0  0  0  0  0  0  0  0  0  0  0  0
   13.8515   44.3269    4.6653 C   0  0  0  0  0  0  0  0  0  0  0  0
   14.2114   42.7275    6.6463 C   0  0  0  0  0  0  0  0  0  0  0  0
   13.6411   41.7082    7.4125 C   0  0  0  0  0  0  0  0  0  0  0  0
   14.3622   41.1506    8.4715 C   0  0  0  0  0  0  0  0  0  0  0  0
   16.1960   42.5915    8.0205 C   0  0  0  0  0  0  0  0  0  0  0  0
   15.5033   43.1718    6.9566 C   0  0  0  0  0  0  0  0  0  0  0  0
   17.5668   43.0566    8.3551 C   0  0  0  0  0  0  0  0  0  0  0  0
   13.7489   40.0568    9.2800 C   0  0  2  0  0  0  0  0  0  0  0  0
   13.6448   40.4578   10.7529 C   0  0  0  0  0  0  0  0  0  0  0  0
   13.0045   39.3333   11.5651 C   0  0  0  0  0  0  0  0  0  0  0  0
   13.8183   38.0510   11.4158 C   0  0  0  0  0  0  0  0  0  0  0  0
   14.5497   38.7639    9.1317 C   0  0  0  0  0  0  0  0  0  0  0  0
   13.5434   36.4743    9.4740 C   0  0  0  0  0  0  0  0  0  0  0  0
   13.5979   36.1888    8.0003 C   0  0  0  0  0  0  0  0  0  0  0  0
   12.2697   36.4423    7.2814 C   0  0  0  0  0  0  0  0  0  0  0  0
   11.8227   37.8890    7.3826 C   0  0  0  0  0  0  0  0  0  0  0  0
   10.3197   37.8366    7.5261 C   0  0  0  0  0  0  0  0  0  0  0  0
   10.0311   36.5296    8.2307 C   0  0  0  0  0  0  0  0  0  0  0  0
   11.1390   35.5792    7.8199 C   0  0  0  0  0  0  0  0  0  0  0  0
   12.3697   46.1335    1.7655 C   0  0  0  0  0  0  0  0  0  0  0  0
   12.9907   44.7288    3.6928 N   0  0  0  0  0  0  0  0  0  0  0  0
   15.0733   44.9186    4.7675 N   0  0  0  0  0  0  0  0  0  0  0  0
   13.4512   43.2843    5.5647 N   0  0  0  0  0  0  0  0  0  0  0  0
   15.6176   41.6008    8.7498 N   0  0  0  0  0  0  0  0  0  0  0  0
   13.9758   37.7384    9.9982 N   0  0  0  0  0  0  0  0  0  0  0  0
   13.0968   35.5881   10.2513 O   0  0  0  0  0  0  0  0  0  0  0  0
  1  2  1  0
  2 26  2  0
  3  4  2  0
  5 25  2  0
  5 27  1  0
  7  8  2  0
  9 28  2  0
 10  6  2  0
 11  9  1  0
 12  8  1  6
 12 13  1  0
 13 14  1  0
 14 15  1  0
 15 29  1  0
 16 29  1  0
 16 12  1  0
 18 17  1  0
 18 19  1  0
 19 20  1  0
 20 21  1  0
 21 22  1  0
 22 23  1  0
 23 19  1  0
 24  4  1  0
 27  6  1  0
 29 17  1  0
  2  3  1  0
  4 25  1  0
  5 26  1  0
  6  7  1  0
  8 28  1  0
  9 10  1  0
 17 30  2  0
M  END
>  <rmsd>  (1) 
0.243602931

$$$$
