MolPort-000-013-327 976380 CSSS03436552884 MCULE-2119931216 PubChem-1206670 ZINC000000976380 ZINC00976380
     RDKit          3D

 33 36  0  0  0  0  0  0  0  0999 V2000
   10.0211   39.2031   13.0085 C   0  0  0  0  0  0  0  0  0  0  0  0
   12.0895   38.9443   11.6808 C   0  0  0  0  0  0  0  0  0  0  0  0
   12.7766   38.2510   10.6777 C   0  0  0  0  0  0  0  0  0  0  0  0
   14.0890   38.6055   10.3473 C   0  0  0  0  0  0  0  0  0  0  0  0
   14.7212   39.6594   11.0175 C   0  0  0  0  0  0  0  0  0  0  0  0
   14.0418   40.3509   12.0268 C   0  0  0  0  0  0  0  0  0  0  0  0
   12.7310   39.9973   12.3563 C   0  0  0  0  0  0  0  0  0  0  0  0
   17.1798   39.6559   11.3620 C   0  0  0  0  0  0  0  0  0  0  0  0
   17.2105   37.0834   11.8801 C   0  0  0  0  0  0  0  0  0  0  0  0
   18.5776   36.6751   11.4273 C   0  0  0  0  0  0  0  0  0  0  0  0
   16.5431   40.7676    9.6745 C   0  0  0  0  0  0  0  0  0  0  0  0
   15.7402   41.4386    8.6257 C   0  0  0  0  0  0  0  0  0  0  0  0
   16.3794   42.2748    7.6984 C   0  0  0  0  0  0  0  0  0  0  0  0
   15.6475   42.9063    6.6893 C   0  0  0  0  0  0  0  0  0  0  0  0
   14.2624   42.7112    6.5918 C   0  0  0  0  0  0  0  0  0  0  0  0
   13.9333   44.3072    4.6151 C   0  0  0  0  0  0  0  0  0  0  0  0
   13.0923   44.6496    3.4546 C   0  0  0  0  0  0  0  0  0  0  0  0
   13.4805   45.6684    2.5696 C   0  0  0  0  0  0  0  0  0  0  0  0
   12.6863   45.9823    1.4624 C   0  0  0  0  0  0  0  0  0  0  0  0
   11.4993   45.2793    1.2312 C   0  0  0  0  0  0  0  0  0  0  0  0
   11.1056   44.2633    2.1070 C   0  0  0  0  0  0  0  0  0  0  0  0
   11.8992   43.9496    3.2146 C   0  0  0  0  0  0  0  0  0  0  0  0
   13.6236   41.8740    7.5112 C   0  0  0  0  0  0  0  0  0  0  0  0
   14.3559   41.2451    8.5211 C   0  0  0  0  0  0  0  0  0  0  0  0
   10.7785   38.5691   11.9873 O   0  0  0  0  0  0  0  0  0  0  0  0
   19.5953   37.3614   11.7159 O   0  0  0  0  0  0  0  0  0  0  0  0
   15.0369   44.8972    4.7863 O   0  0  0  0  0  0  0  0  0  0  0  0
   16.0686   40.0124   10.6917 N   0  0  0  0  0  0  0  0  0  0  0  0
   18.7274   35.4879   10.6586 N   0  0  0  0  0  0  0  0  0  0  0  0
   18.2873   40.1616   10.7889 N   0  0  0  0  0  0  0  0  0  0  0  0
   17.8895   40.8588    9.7344 N   0  0  0  0  0  0  0  0  0  0  0  0
   13.4852   43.3137    5.5495 N   0  0  0  0  0  0  0  0  0  0  0  0
   17.2042   38.6348   12.8356 S   0  0  0  0  0  0  0  0  0  0  0  0
  1 25  1  0
  2 25  1  0
  3  4  2  0
  5  6  2  0
  5 28  1  0
  7  2  2  0
  8 33  1  0
  9 33  1  0
  9 10  1  0
 10 29  1  0
 11 12  1  0
 11 28  1  0
 13 14  2  0
 15 32  1  0
 15 23  2  0
 16 17  1  0
 18 19  2  0
 20 21  2  0
 22 17  2  0
 24 12  2  0
 28  8  1  0
 30 31  1  0
 32 16  1  0
  2  3  1  0
  4  5  1  0
  6  7  1  0
  8 30  2  0
 10 26  2  0
 11 31  2  0
 12 13  1  0
 14 15  1  0
 16 27  2  0
 17 18  1  0
 19 20  1  0
 21 22  1  0
 23 24  1  0
M  END
>  <rmsd>  (1) 
0.233579963

$$$$
