MolPort-020-278-647 MCULE-9542232150 PubChem-110255519
     RDKit          3D

 26 28  0  0  0  0  0  0  0  0999 V2000
   17.5651   43.0413    8.3591 C   0  0  0  0  0  0  0  0  0  0  0  0
   16.1928   42.5866    8.0159 C   0  0  0  0  0  0  0  0  0  0  0  0
   15.5098   43.1733    6.9528 C   0  0  0  0  0  0  0  0  0  0  0  0
   14.2190   42.7248    6.6526 C   0  0  0  0  0  0  0  0  0  0  0  0
   14.3478   41.1703    8.4378 C   0  0  0  0  0  0  0  0  0  0  0  0
   13.7052   40.0834    9.2338 C   0  0  2  0  0  0  0  0  0  0  0  0
   13.5590   40.5031   10.6956 C   0  0  0  0  0  0  0  0  0  0  0  0
   13.0022   39.3495   11.5236 C   0  0  0  0  0  0  0  0  0  0  0  0
   13.8677   38.1093   11.3163 C   0  0  0  0  0  0  0  0  0  0  0  0
   14.5220   38.7943    9.1404 C   0  0  0  0  0  0  0  0  0  0  0  0
   14.0128   35.0269   11.8387 C   0  0  0  0  0  0  0  0  0  0  0  0
   14.7205   33.7291   10.0413 C   0  0  0  0  0  0  0  0  0  0  0  0
   13.8492   44.3231    4.6709 C   0  0  0  0  0  0  0  0  0  0  0  0
   12.9565   44.7308    3.6758 C   0  0  0  0  0  0  0  0  0  0  0  0
   13.3296   45.7445    2.7915 C   0  0  0  0  0  0  0  0  0  0  0  0
   14.5859   46.3406    2.9075 C   0  0  0  0  0  0  0  0  0  0  0  0
   15.4533   45.9095    3.9130 C   0  0  0  0  0  0  0  0  0  0  0  0
   13.6696   41.7335    7.4033 N   0  0  0  0  0  0  0  0  0  0  0  0
   15.6041   41.5992    8.7380 N   0  0  0  0  0  0  0  0  0  0  0  0
   13.8676   37.7299    9.9026 N   0  0  0  0  0  0  0  0  0  0  0  0
   13.9758   34.9272   10.3896 N   0  0  0  0  0  0  0  0  0  0  0  0
   13.4546   43.2807    5.5733 N   0  0  0  0  0  0  0  0  0  0  0  0
   15.0709   44.9202    4.7647 N   0  0  0  0  0  0  0  0  0  0  0  0
   14.8258   36.2906    9.7239 S   0  0  0  0  0  0  0  0  0  0  0  0
   15.0667   36.0455    8.2589 O   0  0  0  0  0  0  0  0  0  0  0  0
   16.1537   36.4634   10.4128 O   0  0  0  0  0  0  0  0  0  0  0  0
  1  2  1  0
  2 19  2  0
  3  4  2  0
  4 22  1  0
  5 18  2  0
  6  5  1  6
  6  7  1  0
  7  8  1  0
  8  9  1  0
  9 20  1  0
 10 20  1  0
 10  6  1  0
 11 21  1  0
 12 21  1  0
 13 23  2  0
 14 15  2  0
 16 17  2  0
 22 13  1  0
 24 20  1  0
 24 21  1  0
  2  3  1  0
  4 18  1  0
  5 19  1  0
 13 14  1  0
 15 16  1  0
 17 23  1  0
 24 25  2  0
 24 26  2  0
M  END
>  <rmsd>  (1) 
0.244244605

$$$$
