MolPort-006-580-056 ChemDiv-V019-1727 MCULE-5973113167 PubChem-46041022 ZINC000037545351 ZINC37545351
     RDKit          3D

 29 31  0  0  0  0  0  0  0  0999 V2000
   12.3466   33.3301   10.5105 F   0  0  0  0  0  0  0  0  0  0  0  0
   10.7321   36.9983    6.7304 F   0  0  0  0  0  0  0  0  0  0  0  0
   11.9510   34.2358    9.5845 C   0  0  0  0  0  0  0  0  0  0  0  0
   11.5634   35.5182    9.9825 C   0  0  0  0  0  0  0  0  0  0  0  0
   11.1556   36.4592    9.0291 C   0  0  0  0  0  0  0  0  0  0  0  0
   10.7523   37.8316    9.4673 C   0  0  0  0  0  0  0  0  0  0  0  0
   12.4021   38.5029   11.2299 C   0  0  0  0  0  0  0  0  0  0  0  0
   13.2992   39.6763   11.6081 C   0  0  0  0  0  0  0  0  0  0  0  0
   14.4135   39.7920   10.5809 C   0  0  0  0  0  0  0  0  0  0  0  0
   12.6823   39.3310    8.8607 C   0  0  0  0  0  0  0  0  0  0  0  0
   14.4331   41.1233    8.4531 C   0  0  0  0  0  0  0  0  0  0  0  0
   15.7358   41.5774    8.7176 C   0  0  0  0  0  0  0  0  0  0  0  0
   16.3059   42.5942    7.9486 C   0  0  0  0  0  0  0  0  0  0  0  0
   15.5778   43.1728    6.9076 C   0  0  0  0  0  0  0  0  0  0  0  0
   14.2739   42.7402    6.6300 C   0  0  0  0  0  0  0  0  0  0  0  0
   13.8926   44.3549    4.6751 C   0  0  0  0  0  0  0  0  0  0  0  0
   13.3141   45.8105    2.6836 C   0  0  0  0  0  0  0  0  0  0  0  0
   13.9953   45.1932    1.5041 C   0  0  0  0  0  0  0  0  0  0  0  0
   15.2474   44.7505    1.5869 C   0  0  0  0  0  0  0  0  0  0  0  0
   13.7119   41.7217    7.4062 C   0  0  0  0  0  0  0  0  0  0  0  0
   11.1346   36.1073    7.6703 C   0  0  0  0  0  0  0  0  0  0  0  0
   11.5232   34.8232    7.2757 C   0  0  0  0  0  0  0  0  0  0  0  0
   11.9317   33.8886    8.2312 C   0  0  0  0  0  0  0  0  0  0  0  0
   11.9208   38.6156    9.8517 N   0  0  0  0  0  0  0  0  0  0  0  0
   13.8461   40.0820    9.2646 N   0  0  0  0  0  0  0  0  0  0  0  0
   13.4928   43.3101    5.5707 N   0  0  0  0  0  0  0  0  0  0  0  0
   12.9762   44.7940    3.6709 N   0  0  0  0  0  0  0  0  0  0  0  0
   12.3247   39.3038    7.6512 O   0  0  0  0  0  0  0  0  0  0  0  0
   15.0302   44.8903    4.7706 O   0  0  0  0  0  0  0  0  0  0  0  0
  3  1  1  0
  4  5  2  0
  6  5  1  0
  6 24  1  0
  7 24  1  0
  7  8  1  0
  8  9  1  0
  9 25  1  0
 10 24  1  0
 12 13  2  0
 14 15  2  0
 15 26  1  0
 16 27  1  0
 17 27  1  0
 17 18  1  0
 20 11  2  0
 21  2  1  0
 21 22  2  0
 23  3  2  0
 25 10  1  0
 25 11  1  0
 26 16  1  0
  3  4  1  0
  5 21  1  0
 10 28  2  0
 11 12  1  0
 13 14  1  0
 15 20  1  0
 16 29  2  0
 18 19  2  0
 22 23  1  0
M  END
>  <rmsd>  (1) 
0.24864842

$$$$
