MolPort-046-675-095 MCULE-2555886565 PubChem-137943872
     RDKit          3D

 19 19  0  0  0  0  0  0  0  0999 V2000
   13.4471   39.4804   11.0997 C   0  0  0  0  0  0  0  0  0  0  0  0
   14.5461   40.1719    9.3171 C   0  0  0  0  0  0  0  0  0  0  0  0
   14.8009   41.2763    8.3462 C   0  0  0  0  0  0  0  0  0  0  0  0
   16.0007   41.9897    8.2629 C   0  0  0  0  0  0  0  0  0  0  0  0
   14.2808   42.7097    6.6016 C   0  0  0  0  0  0  0  0  0  0  0  0
   13.8883   44.3691    4.6975 C   0  0  0  0  0  0  0  0  0  0  0  0
   13.2455   45.8827    2.8047 C   0  0  0  0  0  0  0  0  0  0  0  0
   14.4182   45.5256    1.9078 C   0  0  0  0  0  0  0  0  0  0  0  0
   12.0217   46.0817    1.9358 C   0  0  0  0  0  0  0  0  0  0  0  0
   13.5330   47.1837    3.5342 C   0  0  0  0  0  0  0  0  0  0  0  0
   13.8342   41.6772    7.4119 C   0  0  0  0  0  0  0  0  0  0  0  0
   17.2048   41.8134    9.0926 C   0  0  0  0  0  0  0  0  0  0  0  0
   13.5147   40.5303   10.1853 O   0  0  0  0  0  0  0  0  0  0  0  0
   15.0347   44.8853    4.7954 O   0  0  0  0  0  0  0  0  0  0  0  0
   12.9801   44.8293    3.7343 O   0  0  0  0  0  0  0  0  0  0  0  0
   17.2421   40.8562   10.0988 O   0  0  0  0  0  0  0  0  0  0  0  0
   18.2164   42.5361    8.8937 O   0  0  0  0  0  0  0  0  0  0  0  0
   15.8563   43.1253    7.0281 S   0  0  0  0  0  0  0  0  0  0  0  0
   13.4885   43.3037    5.5663 N   0  0  0  0  0  0  0  0  0  0  0  0
  1 13  1  0
  2 13  1  0
  2  3  1  0
  4 18  1  0
  4 12  1  0
  5 18  1  0
  5 19  1  0
  6 15  1  0
  7 15  1  0
  7  8  1  0
  7  9  1  0
  7 10  1  0
 11  3  1  0
 12 16  1  0
 19  6  1  0
  3  4  2  0
  5 11  2  0
  6 14  2  0
 12 17  2  0
M  END
>  <rmsd>  (1) 
0.234009445

$$$$
