MolPort-003-077-942 9599913 CSSS03437082921 MCULE-2999142374 PubChem-18561104 ZINC000009599913 ZINC09599913
     RDKit          3D

 31 35  0  0  0  0  0  0  0  0999 V2000
   12.7494   37.1067    9.4310 F   0  0  0  0  0  0  0  0  0  0  0  0
   13.0740   38.0982   10.2929 C   0  0  0  0  0  0  0  0  0  0  0  0
   14.0741   37.8902   11.2485 C   0  0  0  0  0  0  0  0  0  0  0  0
   14.4112   38.9124   12.1384 C   0  0  0  0  0  0  0  0  0  0  0  0
   13.7427   40.1418   12.0802 C   0  0  0  0  0  0  0  0  0  0  0  0
   14.1420   41.2454   13.0010 C   0  0  0  0  0  0  0  0  0  0  0  0
   15.1886   42.9521   11.4577 C   0  0  0  0  0  0  0  0  0  0  0  0
   16.4090   43.4386   10.7581 C   0  0  0  0  0  0  0  0  0  0  0  0
   15.7789   42.2884    8.4677 C   0  0  0  0  0  0  0  0  0  0  0  0
   14.2640   42.8226    6.6913 C   0  0  0  0  0  0  0  0  0  0  0  0
   13.9079   44.3249    4.6492 C   0  0  0  0  0  0  0  0  0  0  0  0
   12.9431   44.7922    3.5922 C   0  0  1  0  0  0  0  0  0  0  0  0
   12.0344   45.8809    4.1904 C   0  0  0  0  0  0  0  0  0  0  0  0
   11.0336   46.3798    3.1350 C   0  0  2  0  0  0  0  0  0  0  0  0
   10.1693   45.2012    2.6594 C   0  0  0  0  0  0  0  0  0  0  0  0
   11.0613   44.1120    2.0446 C   0  0  1  0  0  0  0  0  0  0  0  0
   11.8308   44.7015    0.8510 C   0  0  0  0  0  0  0  0  0  0  0  0
   12.7023   45.8770    1.3185 C   0  0  1  0  0  0  0  0  0  0  0  0
   11.8043   46.9590    1.9382 C   0  0  0  0  0  0  0  0  0  0  0  0
   13.6973   45.3788    2.3793 C   0  0  0  0  0  0  0  0  0  0  0  0
   12.0664   43.6216    3.1000 C   0  0  0  0  0  0  0  0  0  0  0  0
   12.7460   40.3512   11.1205 C   0  0  0  0  0  0  0  0  0  0  0  0
   12.4098   39.3278   10.2284 C   0  0  0  0  0  0  0  0  0  0  0  0
   15.3009   41.9428   12.4616 N   0  0  0  0  0  0  0  0  0  0  0  0
   14.6439   41.5570    8.4981 N   0  0  0  0  0  0  0  0  0  0  0  0
   13.8007   41.8558    7.5120 N   0  0  0  0  0  0  0  0  0  0  0  0
   13.5029   43.3115    5.5817 N   0  0  0  0  0  0  0  0  0  0  0  0
   14.0639   43.4252   11.1462 O   0  0  0  0  0  0  0  0  0  0  0  0
   15.0351   44.8799    4.7580 O   0  0  0  0  0  0  0  0  0  0  0  0
   17.0892   42.1366    9.6785 S   0  0  0  0  0  0  0  0  0  0  0  0
   15.7868   43.3688    7.1777 S   0  0  0  0  0  0  0  0  0  0  0  0
  2  1  1  0
  3  4  2  0
  5 22  2  0
  6  5  1  0
  6 24  1  0
  8  7  1  0
  8 30  1  0
  9 30  1  0
  9 31  1  0
 10 27  1  0
 10 31  1  0
 12 11  1  1
 12 13  1  0
 14 13  1  1
 14 15  1  0
 16 15  1  1
 16 17  1  0
 16 21  1  0
 18 17  1  1
 18 19  1  0
 18 20  1  0
 19 14  1  0
 20 12  1  0
 21 12  1  0
 23  2  2  0
 24  7  1  0
 25 26  1  0
 27 11  1  0
  2  3  1  0
  4  5  1  0
  7 28  2  0
  9 25  2  0
 10 26  2  0
 11 29  2  0
 22 23  1  0
M  END
>  <rmsd>  (1) 
0.214492649

$$$$
