MolPort-003-082-970 4341985 CSSS03437139713 MCULE-6851591878 PubChem-7200170 ZINC000004341985
     RDKit          3D

 27 29  0  0  0  0  0  0  0  0999 V2000
   13.9098   42.1871    7.8341 C   0  0  0  0  0  0  0  0  0  0  0  0
   12.5243   42.1451    8.3216 C   0  0  0  0  0  0  0  0  0  0  0  0
   10.9772   41.3755   10.2292 C   0  0  0  0  0  0  0  0  0  0  0  0
    9.8157   41.8938    9.6339 C   0  0  0  0  0  0  0  0  0  0  0  0
    8.5760   41.7839   10.2638 C   0  0  0  0  0  0  0  0  0  0  0  0
    8.4807   41.1568   11.5043 C   0  0  0  0  0  0  0  0  0  0  0  0
    9.6241   40.6350   12.1100 C   0  0  0  0  0  0  0  0  0  0  0  0
   10.8751   40.7262   11.4879 C   0  0  0  0  0  0  0  0  0  0  0  0
   13.2490   39.9104   11.6128 C   0  0  0  0  0  0  0  0  0  0  0  0
   13.2032   38.6548   10.7626 C   0  0  0  0  0  0  0  0  0  0  0  0
   16.0137   41.8688    7.7887 C   0  0  0  0  0  0  0  0  0  0  0  0
   15.7185   42.5118    6.6112 C   0  0  0  0  0  0  0  0  0  0  0  0
   16.6955   42.7658    5.6495 C   0  0  0  0  0  0  0  0  0  0  0  0
   18.0142   42.3733    5.9397 C   0  0  0  0  0  0  0  0  0  0  0  0
   18.3206   41.7337    7.1601 C   0  0  0  0  0  0  0  0  0  0  0  0
   17.3108   41.4698    8.1028 C   0  0  0  0  0  0  0  0  0  0  0  0
   14.3563   42.7368    6.6348 C   0  0  0  0  0  0  0  0  0  0  0  0
   13.9405   44.2470    4.6206 C   0  0  0  0  0  0  0  0  0  0  0  0
   13.0460   44.5381    3.4685 C   0  0  0  0  0  0  0  0  0  0  0  0
   12.0347   45.5984    3.8562 C   0  0  0  0  0  0  0  0  0  0  0  0
   11.1270   45.8842    2.6789 C   0  0  0  0  0  0  0  0  0  0  0  0
   11.5958   42.6448    7.6314 O   0  0  0  0  0  0  0  0  0  0  0  0
   11.9668   40.1675   12.1735 O   0  0  0  0  0  0  0  0  0  0  0  0
   14.9305   41.6854    8.5069 O   0  0  0  0  0  0  0  0  0  0  0  0
   15.0103   44.8977    4.7541 O   0  0  0  0  0  0  0  0  0  0  0  0
   12.2526   41.5274    9.5870 N   0  0  0  0  0  0  0  0  0  0  0  0
   13.5267   43.2991    5.6090 N   0  0  0  0  0  0  0  0  0  0  0  0
  1  2  1  0
  1 24  1  0
  2 26  1  0
  4  5  2  0
  6  7  2  0
  8 23  1  0
  8  3  2  0
  9 23  1  0
  9 10  1  0
 11 24  1  0
 12 13  2  0
 12 17  1  0
 14 15  2  0
 16 11  2  0
 17 27  1  0
 19 18  1  0
 19 20  1  0
 20 21  1  0
 26  3  1  0
 27 18  1  0
  2 22  2  0
  3  4  1  0
  5  6  1  0
  7  8  1  0
 11 12  1  0
 13 14  1  0
 15 16  1  0
 17  1  2  0
 18 25  2  0
M  END
>  <rmsd>  (1) 
0.188125938

$$$$
