MolPort-045-964-638 CSSS00160228555 MCULE-5567901419 PubChem-131945763
     RDKit          3D

 26 27  0  0  0  0  0  0  0  0999 V2000
   13.5440   42.2481   14.3428 C   0  0  0  0  0  0  0  0  0  0  0  0
   14.5049   41.0280   12.7760 C   0  0  0  0  0  0  0  0  0  0  0  0
   14.4392   40.4942   11.3526 C   0  0  2  0  0  0  0  0  0  0  0  0
   13.4844   39.3143   11.2609 C   0  0  0  0  0  0  0  0  0  0  0  0
   16.5371   39.1044   11.5905 C   0  0  0  0  0  0  0  0  0  0  0  0
   16.7705   37.9127   10.7227 C   0  0  0  0  0  0  0  0  0  0  0  0
   17.9576   37.8018    9.9901 C   0  0  0  0  0  0  0  0  0  0  0  0
   18.1680   36.6964    9.1601 C   0  0  0  0  0  0  0  0  0  0  0  0
   17.1903   35.7018    9.0587 C   0  0  0  0  0  0  0  0  0  0  0  0
   16.0021   35.8126    9.7876 C   0  0  0  0  0  0  0  0  0  0  0  0
   15.7918   36.9179   10.6178 C   0  0  0  0  0  0  0  0  0  0  0  0
   16.4115   40.8996    9.8392 C   0  0  0  0  0  0  0  0  0  0  0  0
   15.6453   41.5351    8.7422 C   0  0  0  0  0  0  0  0  0  0  0  0
   16.2438   42.5342    7.9614 C   0  0  0  0  0  0  0  0  0  0  0  0
   15.5417   43.1280    6.9090 C   0  0  0  0  0  0  0  0  0  0  0  0
   14.2305   42.7268    6.6158 C   0  0  0  0  0  0  0  0  0  0  0  0
   13.9075   44.3642    4.6702 C   0  0  0  0  0  0  0  0  0  0  0  0
   12.9894   44.8446    3.6052 C   0  0  0  0  0  0  0  0  0  0  0  0
   13.6370   41.7210    7.3839 C   0  0  0  0  0  0  0  0  0  0  0  0
   14.3392   41.1273    8.4363 C   0  0  0  0  0  0  0  0  0  0  0  0
   13.2997   41.6474   13.1081 O   0  0  0  0  0  0  0  0  0  0  0  0
   17.6658   41.0365    9.8627 O   0  0  0  0  0  0  0  0  0  0  0  0
   15.0455   44.8906    4.7880 O   0  0  0  0  0  0  0  0  0  0  0  0
   15.7715   40.1246   10.8720 N   0  0  0  0  0  0  0  0  0  0  0  0
   13.4774   43.3139    5.5456 N   0  0  0  0  0  0  0  0  0  0  0  0
   19.3180   36.5905    8.4523 F   0  0  0  0  0  0  0  0  0  0  0  0
  1 21  1  0
  2 21  1  0
  2  3  1  0
  3  4  1  1
  3 24  1  0
  5 24  1  0
  5  6  1  0
  7  8  2  0
  8 26  1  0
  9 10  2  0
 11  6  2  0
 12 13  1  0
 14 15  2  0
 16 25  1  0
 16 19  2  0
 18 17  1  0
 20 13  2  0
 24 12  1  0
 25 17  1  0
  6  7  1  0
  8  9  1  0
 10 11  1  0
 12 22  2  0
 13 14  1  0
 15 16  1  0
 17 23  2  0
 19 20  1  0
M  END
>  <rmsd>  (1) 
0.232854813

$$$$
