MolPort-002-260-585 1120823 CSSS00132445507 MCULE-6139742585 PubChem-3853618 ZINC000001120823 ZINC01120823
     RDKit          3D

 27 28  0  0  0  0  0  0  0  0999 V2000
   17.4967   41.9941    4.7480 C   0  0  0  0  0  0  0  0  0  0  0  0
   15.6131   42.2763    6.3333 C   0  0  0  0  0  0  0  0  0  0  0  0
   16.3426   41.6816    7.3766 C   0  0  0  0  0  0  0  0  0  0  0  0
   15.7666   41.4816    8.6330 C   0  0  0  0  0  0  0  0  0  0  0  0
   16.0753   40.3674   10.9189 C   0  0  0  0  0  0  0  0  0  0  0  0
   14.7063   39.8367   11.0759 C   0  0  0  0  0  0  0  0  0  0  0  0
   13.9458   40.2672   12.1707 C   0  0  0  0  0  0  0  0  0  0  0  0
   12.6432   39.8012   12.3586 C   0  0  0  0  0  0  0  0  0  0  0  0
   12.0808   38.8887   11.4566 C   0  0  0  0  0  0  0  0  0  0  0  0
   12.8467   38.4370   10.3747 C   0  0  0  0  0  0  0  0  0  0  0  0
   14.1518   38.8983   10.1783 C   0  0  0  0  0  0  0  0  0  0  0  0
   14.4452   41.8885    8.8537 C   0  0  0  0  0  0  0  0  0  0  0  0
   13.7119   42.4869    7.8286 C   0  0  0  0  0  0  0  0  0  0  0  0
   14.2903   42.7062    6.5745 C   0  0  0  0  0  0  0  0  0  0  0  0
   13.9422   44.2856    4.6094 C   0  0  0  0  0  0  0  0  0  0  0  0
   13.0782   44.6206    3.4390 C   0  0  0  0  0  0  0  0  0  0  0  0
   12.6087   46.0604    3.5187 C   0  0  0  0  0  0  0  0  0  0  0  0
   13.8269   44.3919    2.1399 C   0  0  0  0  0  0  0  0  0  0  0  0
   16.1747   42.4136    5.0586 O   0  0  0  0  0  0  0  0  0  0  0  0
   16.8521   40.3528   11.9099 O   0  0  0  0  0  0  0  0  0  0  0  0
   10.1973   37.5093   10.7561 O   0  0  0  0  0  0  0  0  0  0  0  0
   10.0553   38.8047   12.6077 O   0  0  0  0  0  0  0  0  0  0  0  0
   15.0334   44.8937    4.7886 O   0  0  0  0  0  0  0  0  0  0  0  0
   16.5576   40.8907    9.6728 N   0  0  0  0  0  0  0  0  0  0  0  0
   10.7421   38.4098   11.6426 N   0  0  0  0  0  0  0  0  0  0  0  0
   13.4863   43.3126    5.5545 N   0  0  0  0  0  0  0  0  0  0  0  0
   15.0697   38.2187    8.8416 Cl  0  0  0  0  0  0  0  0  0  0  0  0
  1 19  1  0
  2 19  1  0
  3  4  2  0
  4 24  1  0
  5  6  1  0
  7  8  2  0
  9 10  2  0
  9 25  1  0
 11 27  1  0
 11  6  2  0
 12 13  2  0
 14 26  1  0
 14  2  2  0
 16 15  1  0
 16 17  1  0
 16 18  1  0
 24  5  1  0
 25 21  1  0
 26 15  1  0
  2  3  1  0
  4 12  1  0
  5 20  2  0
  6  7  1  0
  8  9  1  0
 10 11  1  0
 13 14  1  0
 15 23  2  0
 25 22  2  0
M  CHG  2  21  -1  25   1
M  END
>  <rmsd>  (1) 
0.239566788

$$$$
