MolPort-000-056-083 1324411 MCULE-3750092769 PubChem-1428095 ZINC000001324411 ZINC01324411
     RDKit          3D

 29 31  0  0  0  0  0  0  0  0999 V2000
   15.3310   45.9431    8.4152 C   0  0  0  0  0  0  0  0  0  0  0  0
   14.8679   43.6492    7.6002 C   0  0  0  0  0  0  0  0  0  0  0  0
   15.5848   43.0777    8.6625 C   0  0  0  0  0  0  0  0  0  0  0  0
   15.6643   41.6922    8.8201 C   0  0  0  0  0  0  0  0  0  0  0  0
   16.1257   39.9975   10.6838 C   0  0  0  0  0  0  0  0  0  0  0  0
   14.7367   39.5713   10.9654 C   0  0  0  0  0  0  0  0  0  0  0  0
   14.4828   38.2741   11.4294 C   0  0  0  0  0  0  0  0  0  0  0  0
   13.1710   37.8837   11.7072 C   0  0  0  0  0  0  0  0  0  0  0  0
   12.3652   40.0293   11.0938 C   0  0  0  0  0  0  0  0  0  0  0  0
   13.6628   40.4567   10.8060 C   0  0  0  0  0  0  0  0  0  0  0  0
   15.0410   40.8489    7.8783 C   0  0  0  0  0  0  0  0  0  0  0  0
   14.5438   38.5535    7.0880 C   0  0  0  0  0  0  0  0  0  0  0  0
   14.3249   41.4204    6.8159 C   0  0  0  0  0  0  0  0  0  0  0  0
   14.2475   42.8059    6.6568 C   0  0  0  0  0  0  0  0  0  0  0  0
   13.8576   44.4402    4.7415 C   0  0  0  0  0  0  0  0  0  0  0  0
   12.8702   45.0440    3.8301 C   0  0  0  0  0  0  0  0  0  0  0  0
   11.5605   44.5452    3.7735 C   0  0  0  0  0  0  0  0  0  0  0  0
   10.6222   45.1188    2.9106 C   0  0  0  0  0  0  0  0  0  0  0  0
   10.9869   46.1958    2.0984 C   0  0  0  0  0  0  0  0  0  0  0  0
   12.2893   46.6997    2.1488 C   0  0  0  0  0  0  0  0  0  0  0  0
   13.2275   46.1260    3.0117 C   0  0  0  0  0  0  0  0  0  0  0  0
   14.7379   45.0386    7.4932 O   0  0  0  0  0  0  0  0  0  0  0  0
   17.0833   39.3377   11.1684 O   0  0  0  0  0  0  0  0  0  0  0  0
   15.1597   39.4590    7.9936 O   0  0  0  0  0  0  0  0  0  0  0  0
   15.0388   44.8823    4.7713 O   0  0  0  0  0  0  0  0  0  0  0  0
   16.4229   41.1772    9.9231 N   0  0  0  0  0  0  0  0  0  0  0  0
   12.1471   38.7614   11.5334 N   0  0  0  0  0  0  0  0  0  0  0  0
   13.4872   43.3200    5.5560 N   0  0  0  0  0  0  0  0  0  0  0  0
    9.7080   46.9777    0.9224 Br  0  0  0  0  0  0  0  0  0  0  0  0
  1 22  1  0
  2 22  1  0
  3  4  2  0
  4 26  1  0
  5  6  1  0
  7  8  2  0
  9 27  2  0
 10  6  2  0
 11 24  1  0
 11 13  2  0
 12 24  1  0
 14 28  1  0
 14  2  2  0
 15 16  1  0
 17 18  2  0
 19 29  1  0
 19 20  2  0
 21 16  2  0
 26  5  1  0
 28 15  1  0
  2  3  1  0
  4 11  1  0
  5 23  2  0
  6  7  1  0
  8 27  1  0
  9 10  1  0
 13 14  1  0
 15 25  2  0
 16 17  1  0
 18 19  1  0
 20 21  1  0
M  END
>  <rmsd>  (1) 
0.247207984

$$$$
