MolPort-020-292-447 MCULE-8894391081 PubChem-110264915
     RDKit          3D

 30 32  0  0  0  0  0  0  0  0999 V2000
   13.7715   32.3291    8.7201 C   0  0  0  0  0  0  0  0  0  0  0  0
   14.1326   33.1266    9.9599 C   0  0  0  0  0  0  0  0  0  0  0  0
   12.4183   34.6069   10.9979 C   0  0  0  0  0  0  0  0  0  0  0  0
   11.0314   34.6441   10.3820 C   0  0  0  0  0  0  0  0  0  0  0  0
   13.8238   35.4655    9.0809 C   0  0  0  0  0  0  0  0  0  0  0  0
   13.1716   36.8088    9.1463 C   0  0  0  0  0  0  0  0  0  0  0  0
   12.9953   38.1647   11.0524 C   0  0  0  0  0  0  0  0  0  0  0  0
   13.5529   39.3916   11.7703 C   0  0  0  0  0  0  0  0  0  0  0  0
   13.7591   40.5559   10.7971 C   0  0  0  0  0  0  0  0  0  0  0  0
   13.7769   40.1050    9.3333 C   0  0  2  0  0  0  0  0  0  0  0  0
   14.4938   38.7572    9.1822 C   0  0  0  0  0  0  0  0  0  0  0  0
   14.4065   41.1423    8.4652 C   0  0  0  0  0  0  0  0  0  0  0  0
   16.2999   42.4464    7.8672 C   0  0  0  0  0  0  0  0  0  0  0  0
   15.5806   43.0538    6.8368 C   0  0  0  0  0  0  0  0  0  0  0  0
   14.2426   42.6980    6.6229 C   0  0  0  0  0  0  0  0  0  0  0  0
   13.6563   41.7337    7.4451 C   0  0  0  0  0  0  0  0  0  0  0  0
   13.8534   44.3139    4.6618 C   0  0  0  0  0  0  0  0  0  0  0  0
   15.4389   45.9013    3.9025 C   0  0  0  0  0  0  0  0  0  0  0  0
   14.5748   46.2932    2.8822 C   0  0  0  0  0  0  0  0  0  0  0  0
   13.3362   45.6607    2.7857 C   0  0  0  0  0  0  0  0  0  0  0  0
   12.3880   46.0432    1.7080 C   0  0  0  0  0  0  0  0  0  0  0  0
   16.7685   46.5509    4.0427 C   0  0  0  0  0  0  0  0  0  0  0  0
   17.7199   42.8161    8.0979 C   0  0  0  0  0  0  0  0  0  0  0  0
   13.4249   34.4004    9.9644 N   0  0  0  0  0  0  0  0  0  0  0  0
   13.9291   37.6846   10.0246 N   0  0  0  0  0  0  0  0  0  0  0  0
   15.7051   41.5101    8.6527 N   0  0  0  0  0  0  0  0  0  0  0  0
   13.4571   43.2791    5.5728 N   0  0  0  0  0  0  0  0  0  0  0  0
   15.0662   44.9240    4.7689 N   0  0  0  0  0  0  0  0  0  0  0  0
   12.9992   44.6874    3.6722 N   0  0  0  0  0  0  0  0  0  0  0  0
   14.7563   35.2863    8.2521 O   0  0  0  0  0  0  0  0  0  0  0  0
  1  2  1  0
  2 24  1  0
  3 24  1  0
  3  4  1  0
  6  5  1  0
  6 25  1  0
  7 25  1  0
  7  8  1  0
  8  9  1  0
  9 10  1  0
 10 11  1  0
 10 12  1  6
 11 25  1  0
 13 26  2  0
 14 15  2  0
 15 27  1  0
 16 12  2  0
 17 29  2  0
 18 28  2  0
 19 20  2  0
 21 20  1  0
 22 18  1  0
 23 13  1  0
 24  5  1  0
 27 17  1  0
  5 30  2  0
 12 26  1  0
 13 14  1  0
 15 16  1  0
 17 28  1  0
 18 19  1  0
 20 29  1  0
M  END
>  <rmsd>  (1) 
0.24941507

$$$$
