MolPort-000-115-472 4931121 MCULE-4916726914 PubChem-3231576 ZINC000004931121 ZINC04931121
     RDKit          3D

 24 25  0  0  0  0  0  0  0  0999 V2000
   11.8174   41.3523    1.9844 C   0  0  0  0  0  0  0  0  0  0  0  0
   11.9035   42.5088    2.9575 C   0  0  0  0  0  0  0  0  0  0  0  0
   12.9522   43.4950    2.4788 C   0  0  0  0  0  0  0  0  0  0  0  0
   13.0785   44.6561    3.4524 C   0  0  0  0  0  0  0  0  0  0  0  0
   13.9377   44.2908    4.6159 C   0  0  0  0  0  0  0  0  0  0  0  0
   14.3049   42.7041    6.5672 C   0  0  0  0  0  0  0  0  0  0  0  0
   13.7844   42.5745    7.8572 C   0  0  0  0  0  0  0  0  0  0  0  0
   15.7645   41.4947    8.6073 C   0  0  0  0  0  0  0  0  0  0  0  0
   16.0232   40.5068   10.9412 C   0  0  0  0  0  0  0  0  0  0  0  0
   14.6608   39.9475   11.0993 C   0  0  0  0  0  0  0  0  0  0  0  0
   13.9555   40.0705   12.3135 C   0  0  0  0  0  0  0  0  0  0  0  0
   12.6808   39.5101   12.4443 C   0  0  0  0  0  0  0  0  0  0  0  0
   12.1034   38.8172   11.3782 C   0  0  0  0  0  0  0  0  0  0  0  0
   12.7997   38.6809   10.1760 C   0  0  0  0  0  0  0  0  0  0  0  0
   14.0725   39.2401   10.0396 C   0  0  0  0  0  0  0  0  0  0  0  0
   16.3171   41.5858    7.3294 C   0  0  0  0  0  0  0  0  0  0  0  0
   15.5876   42.1820    6.2990 C   0  0  0  0  0  0  0  0  0  0  0  0
   16.1705   42.1709    4.9273 C   0  0  0  0  0  0  0  0  0  0  0  0
   15.0307   44.8929    4.7887 O   0  0  0  0  0  0  0  0  0  0  0  0
   16.7838   40.5787   11.9426 O   0  0  0  0  0  0  0  0  0  0  0  0
   13.4879   43.3104    5.5577 N   0  0  0  0  0  0  0  0  0  0  0  0
   14.5181   41.9902    8.8409 N   0  0  0  0  0  0  0  0  0  0  0  0
   16.5344   40.9119    9.6640 N   0  0  0  0  0  0  0  0  0  0  0  0
   14.4841   40.7471   13.3637 F   0  0  0  0  0  0  0  0  0  0  0  0
  1  2  1  0
  2  3  1  0
  3  4  1  0
  4  5  1  0
  5 21  1  0
  7 22  2  0
  8 23  1  0
  8 16  2  0
  9 10  1  0
 11 24  1  0
 11 12  2  0
 13 14  2  0
 15 10  2  0
 17  6  2  0
 18 17  1  0
 21  6  1  0
 23  9  1  0
  5 19  2  0
  6  7  1  0
  8 22  1  0
  9 20  2  0
 10 11  1  0
 12 13  1  0
 14 15  1  0
 16 17  1  0
M  END
>  <rmsd>  (1) 
0.244375452

$$$$
