MolPort-010-852-375 41108824 ChemDiv-G952-3382 MCULE-5744960344 PubChem-52103599 ZINC000041108824
     RDKit          3D

 25 28  0  0  0  0  0  0  0  0999 V2000
   14.5795   41.6552    8.5085 N   0  0  0  0  0  0  0  0  0  0  0  0
   13.6967   41.9083    7.5567 N   0  0  0  0  0  0  0  0  0  0  0  0
   16.5325   41.9696    9.4848 N   0  0  0  0  0  0  0  0  0  0  0  0
   15.8492   41.0620   10.1943 N   0  0  0  0  0  0  0  0  0  0  0  0
   13.4944   43.3121    5.5697 N   0  0  0  0  0  0  0  0  0  0  0  0
   14.2208   42.8400    6.7106 C   0  0  0  0  0  0  0  0  0  0  0  0
   15.7142   42.2971    8.4704 C   0  0  0  0  0  0  0  0  0  0  0  0
   14.6464   40.8728    9.5849 C   0  0  0  0  0  0  0  0  0  0  0  0
   13.5682   39.9519   10.0515 C   0  0  0  0  0  0  0  0  0  0  0  0
   13.0186   40.4258   11.4041 C   0  0  0  0  0  0  0  0  0  0  0  0
   12.3439   39.2785   12.1496 C   0  0  0  0  0  0  0  0  0  0  0  0
   13.3349   38.1467   12.4564 C   0  0  0  0  0  0  0  0  0  0  0  0
   14.4958   38.0558   11.4566 C   0  0  0  0  0  0  0  0  0  0  0  0
   14.0626   38.4960   10.0599 C   0  0  0  0  0  0  0  0  0  0  0  0
   13.9360   44.2988    4.6304 C   0  0  0  0  0  0  0  0  0  0  0  0
   13.0767   44.6285    3.4575 C   0  0  0  0  0  0  0  0  0  0  0  0
   13.1899   43.5551    2.3814 C   0  0  0  0  0  0  0  0  0  0  0  0
   14.5107   43.6093    1.6857 C   0  0  0  0  0  0  0  0  0  0  0  0
   14.8577   44.7170    0.9013 C   0  0  0  0  0  0  0  0  0  0  0  0
   16.0939   44.7536    0.2490 C   0  0  0  0  0  0  0  0  0  0  0  0
   16.9835   43.6823    0.3765 C   0  0  0  0  0  0  0  0  0  0  0  0
   16.6362   42.5735    1.1542 C   0  0  0  0  0  0  0  0  0  0  0  0
   15.4001   42.5363    1.8066 C   0  0  0  0  0  0  0  0  0  0  0  0
   15.8133   43.3464    7.1698 S   0  0  0  0  0  0  0  0  0  0  0  0
   15.0458   44.8784    4.7631 O   0  0  0  0  0  0  0  0  0  0  0  0
  1  2  1  0
  3  4  1  0
  5 15  1  0
  6 24  1  0
  6  5  1  0
  7 24  1  0
  7  1  1  0
  8  1  1  0
  9  8  1  0
  9 10  1  0
 10 11  1  0
 11 12  1  0
 12 13  1  0
 13 14  1  0
 14  9  1  0
 16 15  1  0
 16 17  1  0
 17 18  1  0
 19 20  2  0
 21 22  2  0
 23 18  2  0
  6  2  2  0
  7  3  2  0
  8  4  2  0
 15 25  2  0
 18 19  1  0
 20 21  1  0
 22 23  1  0
M  END
>  <rmsd>  (1) 
0.230953053

$$$$
