MolPort-020-295-152 MCULE-6573795014 PubChem-110267246
     RDKit          3D

 28 31  0  0  0  0  0  0  0  0999 V2000
   11.1696   45.6816    1.5415 C   0  0  0  0  0  0  0  0  0  0  0  0
   13.3661   45.7581    2.8030 C   0  0  0  0  0  0  0  0  0  0  0  0
   15.4464   45.9019    3.9197 C   0  0  0  0  0  0  0  0  0  0  0  0
   13.8503   44.3238    4.6711 C   0  0  0  0  0  0  0  0  0  0  0  0
   12.9673   44.7392    3.6751 C   0  0  0  0  0  0  0  0  0  0  0  0
   14.2274   42.7372    6.6403 C   0  0  0  0  0  0  0  0  0  0  0  0
   16.2169   42.6794    7.9221 C   0  0  0  0  0  0  0  0  0  0  0  0
   15.6908   41.6614    8.7139 C   0  0  0  0  0  0  0  0  0  0  0  0
   14.4011   41.1974    8.4325 C   0  0  0  0  0  0  0  0  0  0  0  0
   13.7774   40.1051    9.2416 C   0  0  2  0  0  0  0  0  0  0  0  0
   13.6321   40.5159   10.7011 C   0  0  0  0  0  0  0  0  0  0  0  0
   12.9941   39.3799   11.4835 C   0  0  0  0  0  0  0  0  0  0  0  0
   13.8328   38.1070   11.3291 C   0  0  0  0  0  0  0  0  0  0  0  0
   14.5883   38.8072    9.1321 C   0  0  0  0  0  0  0  0  0  0  0  0
   12.7207   37.3059    9.3576 C   0  0  0  0  0  0  0  0  0  0  0  0
   12.8794   36.2062    8.3529 C   0  0  0  0  0  0  0  0  0  0  0  0
   11.7460   35.7195    7.6966 C   0  0  0  0  0  0  0  0  0  0  0  0
   11.8846   34.6946    6.7589 C   0  0  0  0  0  0  0  0  0  0  0  0
   13.1478   34.1671    6.4866 C   0  0  0  0  0  0  0  0  0  0  0  0
   14.2586   34.6769    7.1617 C   0  0  0  0  0  0  0  0  0  0  0  0
   12.5010   46.2228    1.7641 N   0  0  0  0  0  0  0  0  0  0  0  0
   14.5967   46.3169    2.9445 N   0  0  0  0  0  0  0  0  0  0  0  0
   15.0722   44.9136    4.7732 N   0  0  0  0  0  0  0  0  0  0  0  0
   13.4488   43.2810    5.5677 N   0  0  0  0  0  0  0  0  0  0  0  0
   15.4809   43.1970    6.9050 N   0  0  0  0  0  0  0  0  0  0  0  0
   13.7005   41.7441    7.4043 N   0  0  0  0  0  0  0  0  0  0  0  0
   14.0071   37.7121    9.9239 N   0  0  0  0  0  0  0  0  0  0  0  0
   14.1037   35.6757    8.0721 N   0  0  0  0  0  0  0  0  0  0  0  0
  1 21  1  0
  3 22  2  0
  4 23  2  0
  4 24  1  0
  5  2  2  0
  6 26  2  0
  7 25  2  0
  8  9  2  0
 10  9  1  6
 10 11  1  0
 11 12  1  0
 12 13  1  0
 13 27  1  0
 14 27  1  0
 14 10  1  0
 15 27  1  0
 15 16  1  0
 16 28  2  0
 17 18  2  0
 19 20  2  0
 21  2  1  0
 24  6  1  0
  2 22  1  0
  3 23  1  0
  4  5  1  0
  6 25  1  0
  7  8  1  0
  9 26  1  0
 16 17  1  0
 18 19  1  0
 20 28  1  0
M  END
>  <rmsd>  (1) 
0.244700938

$$$$
