MolPort-005-018-059 11932735 CHEMBL1518335 CSSS00160014974 PubChem-24790852 ZINC000011932735
     RDKit          3D

 31 34  0  0  0  0  0  0  0  0999 V2000
   15.0626   44.8886    4.8375 O   0  0  0  0  0  0  0  0  0  0  0  0
   13.9286   44.3701    4.6662 C   0  0  0  0  0  0  0  0  0  0  0  0
   13.0505   44.8726    3.5719 C   0  0  0  0  0  0  0  0  0  0  0  0
   12.9809   43.8723    2.4243 C   0  0  0  0  0  0  0  0  0  0  0  0
   14.1292   44.0330    1.4820 C   0  0  0  0  0  0  0  0  0  0  0  0
   15.4280   43.6704    1.8637 C   0  0  0  0  0  0  0  0  0  0  0  0
   16.4892   43.8148    0.9652 C   0  0  0  0  0  0  0  0  0  0  0  0
   16.2558   44.3178   -0.3186 C   0  0  0  0  0  0  0  0  0  0  0  0
   14.9598   44.6740   -0.7046 C   0  0  0  0  0  0  0  0  0  0  0  0
   13.8979   44.5283    0.1940 C   0  0  0  0  0  0  0  0  0  0  0  0
   14.2354   42.6648    6.5328 C   0  0  0  0  0  0  0  0  0  0  0  0
   15.5714   42.8774    6.8151 C   0  0  0  0  0  0  0  0  0  0  0  0
   15.8172   42.0103    7.8736 C   0  0  0  0  0  0  0  0  0  0  0  0
   12.3466   41.2887    7.4066 C   0  0  0  0  0  0  0  0  0  0  0  0
   12.2518   39.7597    7.5402 C   0  0  0  0  0  0  0  0  0  0  0  0
   11.9426   39.3121    8.9709 C   0  0  0  0  0  0  0  0  0  0  0  0
   12.4213   39.6476   11.2480 C   0  0  0  0  0  0  0  0  0  0  0  0
   13.6604   38.9149   11.6379 C   0  0  0  0  0  0  0  0  0  0  0  0
   14.8167   39.5572   11.7822 C   0  0  0  0  0  0  0  0  0  0  0  0
   16.0601   38.8744   12.1666 C   0  0  0  0  0  0  0  0  0  0  0  0
   16.1019   37.4897   12.3965 C   0  0  0  0  0  0  0  0  0  0  0  0
   17.2996   36.8731   12.7721 C   0  0  0  0  0  0  0  0  0  0  0  0
   18.4614   37.6360   12.9167 C   0  0  0  0  0  0  0  0  0  0  0  0
   18.4277   39.0141   12.6811 C   0  0  0  0  0  0  0  0  0  0  0  0
   17.2289   39.6308   12.3090 C   0  0  0  0  0  0  0  0  0  0  0  0
   11.8438   41.4944    9.9197 C   0  0  0  0  0  0  0  0  0  0  0  0
   11.5716   42.0325    8.5017 C   0  0  0  0  0  0  0  0  0  0  0  0
   13.4658   43.3112    5.5109 N   0  0  0  0  0  0  0  0  0  0  0  0
   14.6893   41.3372    8.1830 N   0  0  0  0  0  0  0  0  0  0  0  0
   13.7374   41.7346    7.3579 N   0  0  0  0  0  0  0  0  0  0  0  0
   12.5727   40.2231    9.9211 N   0  0  0  0  0  0  0  0  0  0  0  0
  2 28  1  0
  3  2  1  0
  3  4  1  0
  4  5  1  0
  6  7  2  0
  8  9  2  0
 10  5  2  0
 12 13  1  0
 14 30  1  0
 14 15  1  0
 15 16  1  0
 16 31  1  0
 17 31  1  0
 17 18  1  0
 19 20  1  0
 21 22  2  0
 23 24  2  0
 25 20  2  0
 26 31  1  0
 26 27  1  0
 27 14  1  0
 28 11  1  0
 30 29  1  0
 30 11  1  0
  2  1  2  0
  5  6  1  0
  7  8  1  0
  9 10  1  0
 11 12  2  0
 13 29  2  0
 18 19  2  0
 20 21  1  0
 22 23  1  0
 24 25  1  0
M  END
>  <rmsd>  (1) 
0.24745506

$$$$
