MolPort-007-723-430 15674591 ChemDiv-E157-5444 MCULE-7155321640 PubChem-22517996 ZINC000015674591 ZINC15674591
     RDKit          3D

 26 28  0  0  0  0  0  0  0  0999 V2000
   13.5351   39.3815   11.2701 C   0  0  0  0  0  0  0  0  0  0  0  0
   13.9869   41.8355   11.6039 C   0  0  0  0  0  0  0  0  0  0  0  0
   12.9349   41.9186   12.5323 C   0  0  0  0  0  0  0  0  0  0  0  0
   12.6258   43.1326   13.1525 C   0  0  0  0  0  0  0  0  0  0  0  0
   13.3656   44.2789   12.8523 C   0  0  0  0  0  0  0  0  0  0  0  0
   14.4149   44.2108   11.9334 C   0  0  0  0  0  0  0  0  0  0  0  0
   14.7226   42.9968   11.3132 C   0  0  0  0  0  0  0  0  0  0  0  0
   15.1794   41.5019    8.4098 C   0  0  0  0  0  0  0  0  0  0  0  0
   14.2545   42.7338    6.5862 C   0  0  0  0  0  0  0  0  0  0  0  0
   13.9006   44.3691    4.6704 C   0  0  0  0  0  0  0  0  0  0  0  0
   13.0076   44.9000    3.6067 C   0  0  0  0  0  0  0  0  0  0  0  0
   11.7733   44.3017    3.2383 C   0  0  0  0  0  0  0  0  0  0  0  0
   11.2508   43.0555    3.8677 C   0  0  0  0  0  0  0  0  0  0  0  0
   10.9963   44.8752    2.2259 C   0  0  0  0  0  0  0  0  0  0  0  0
   11.4209   46.0315    1.5707 C   0  0  0  0  0  0  0  0  0  0  0  0
   12.6327   46.6239    1.9210 C   0  0  0  0  0  0  0  0  0  0  0  0
   13.4171   46.0611    2.9286 C   0  0  0  0  0  0  0  0  0  0  0  0
   14.3010   40.5821   10.9628 N   0  0  0  0  0  0  0  0  0  0  0  0
   16.0312   42.4236    7.9099 N   0  0  0  0  0  0  0  0  0  0  0  0
   15.5164   43.1104    6.8918 N   0  0  0  0  0  0  0  0  0  0  0  0
   13.4716   43.3116    5.5374 N   0  0  0  0  0  0  0  0  0  0  0  0
   15.5585   40.4620    9.7676 S   0  0  0  0  0  0  0  0  0  0  0  0
   13.7069   41.5021    7.5924 S   0  0  0  0  0  0  0  0  0  0  0  0
   16.8672   40.8746   10.3808 O   0  0  0  0  0  0  0  0  0  0  0  0
   15.6766   39.0452    9.2789 O   0  0  0  0  0  0  0  0  0  0  0  0
   15.0476   44.8732    4.8192 O   0  0  0  0  0  0  0  0  0  0  0  0
  1 18  1  0
  3  4  2  0
  5  6  2  0
  7  2  2  0
  8 23  1  0
  9 21  1  0
  9 23  1  0
 10 11  1  0
 12 14  2  0
 13 12  1  0
 15 16  2  0
 17 11  2  0
 18  2  1  0
 19 20  1  0
 21 10  1  0
 22 18  1  0
 22  8  1  0
  2  3  1  0
  4  5  1  0
  6  7  1  0
  8 19  2  0
  9 20  2  0
 10 26  2  0
 11 12  1  0
 14 15  1  0
 16 17  1  0
 22 24  2  0
 22 25  2  0
M  END
>  <rmsd>  (1) 
0.200596571

$$$$
