MolPort-009-751-414 62023056 CSSS03437054427 MCULE-8813905927 PubChem-52907960 ZINC000062023056 ZINC62023056
     RDKit          3D

 18 19  0  0  0  0  0  0  0  0999 V2000
   13.3715   39.2430   11.4632 C   0  0  0  0  0  0  0  0  0  0  0  0
   15.0773   40.4420    9.1460 C   0  0  0  0  0  0  0  0  0  0  0  0
   15.0114   41.4753    8.1067 C   0  0  0  0  0  0  0  0  0  0  0  0
   16.0305   42.3474    7.7729 C   0  0  0  0  0  0  0  0  0  0  0  0
   14.3316   42.7146    6.5574 C   0  0  0  0  0  0  0  0  0  0  0  0
   13.8851   44.3844    4.7075 C   0  0  0  0  0  0  0  0  0  0  0  0
   12.9415   44.9127    3.7170 C   0  0  0  0  0  0  0  0  0  0  0  0
   11.6565   44.4566    3.5118 C   0  0  0  0  0  0  0  0  0  0  0  0
   11.1595   45.2479    2.4908 C   0  0  0  0  0  0  0  0  0  0  0  0
   12.1703   46.1286    2.1446 C   0  0  0  0  0  0  0  0  0  0  0  0
   13.9684   38.6482   10.3500 O   0  0  0  0  0  0  0  0  0  0  0  0
   16.1298   40.2926    9.8233 O   0  0  0  0  0  0  0  0  0  0  0  0
   15.5625   43.0991    6.8050 O   0  0  0  0  0  0  0  0  0  0  0  0
   15.0365   44.8890    4.7980 O   0  0  0  0  0  0  0  0  0  0  0  0
   13.2172   45.8965    2.8991 O   0  0  0  0  0  0  0  0  0  0  0  0
   13.9458   39.6036    9.3891 N   0  0  0  0  0  0  0  0  0  0  0  0
   13.4921   43.3034    5.5607 N   0  0  0  0  0  0  0  0  0  0  0  0
   13.9265   41.6993    7.3409 N   0  0  0  0  0  0  0  0  0  0  0  0
  1 11  1  0
  2  3  1  0
  3 18  1  0
  4 13  1  0
  5 13  1  0
  5 17  1  0
  6  7  1  0
  7 15  1  0
  8  9  1  0
 10 15  1  0
 16 11  1  0
 16  2  1  0
 17  6  1  0
  2 12  2  0
  3  4  2  0
  5 18  2  0
  6 14  2  0
  7  8  2  0
  9 10  2  0
M  END
>  <rmsd>  (1) 
0.194543272

$$$$
