MolPort-002-624-954 2447586 LN00658684 PubChem-1621928 ZINC000002447586 ZINC02447586
     RDKit          3D

 29 32  0  0  0  0  0  0  0  0999 V2000
   12.8189   38.9962   11.4749 C   0  0  0  0  0  0  0  0  0  0  0  0
   14.3096   39.2171   11.2997 C   0  0  0  0  0  0  0  0  0  0  0  0
   14.5989   39.8251    9.9392 C   0  0  0  0  0  0  0  0  0  0  0  0
   14.2279   41.2997    9.9271 C   0  0  0  0  0  0  0  0  0  0  0  0
   14.2006   42.8092    6.6880 C   0  0  0  0  0  0  0  0  0  0  0  0
   14.0039   44.2186    4.5692 C   0  0  0  0  0  0  0  0  0  0  0  0
   13.2340   44.4521    3.3151 C   0  0  0  0  0  0  0  0  0  0  0  0
   11.2269   45.6987    4.0850 C   0  0  0  0  0  0  0  0  0  0  0  0
   10.6226   44.5490    4.6205 C   0  0  0  0  0  0  0  0  0  0  0  0
    9.3893   44.6392    5.2721 C   0  0  0  0  0  0  0  0  0  0  0  0
    8.7514   45.8769    5.3910 C   0  0  0  0  0  0  0  0  0  0  0  0
    9.3464   47.0237    4.8578 C   0  0  0  0  0  0  0  0  0  0  0  0
   10.5803   46.9335    4.2064 C   0  0  0  0  0  0  0  0  0  0  0  0
   15.5690   42.6357    6.8267 C   0  0  0  0  0  0  0  0  0  0  0  0
   16.6646   42.8600    6.0005 C   0  0  0  0  0  0  0  0  0  0  0  0
   17.9275   42.5001    6.5017 C   0  0  0  0  0  0  0  0  0  0  0  0
   19.0714   42.7104    5.7298 C   0  0  0  0  0  0  0  0  0  0  0  0
   20.3263   42.3510    6.2273 C   0  0  0  0  0  0  0  0  0  0  0  0
   20.4446   41.7789    7.4974 C   0  0  0  0  0  0  0  0  0  0  0  0
   19.3116   41.5580    8.2870 C   0  0  0  0  0  0  0  0  0  0  0  0
   19.4808   40.9431    9.6345 C   0  0  0  0  0  0  0  0  0  0  0  0
   18.0418   41.9146    7.8023 C   0  0  0  0  0  0  0  0  0  0  0  0
   15.7135   42.0612    8.0547 C   0  0  0  0  0  0  0  0  0  0  0  0
   14.5097   41.8796    8.6225 N   0  0  0  0  0  0  0  0  0  0  0  0
   13.5758   42.3291    7.7917 N   0  0  0  0  0  0  0  0  0  0  0  0
   13.4900   43.3136    5.5508 N   0  0  0  0  0  0  0  0  0  0  0  0
   16.9198   41.6978    8.5569 N   0  0  0  0  0  0  0  0  0  0  0  0
   15.0531   44.8806    4.7831 O   0  0  0  0  0  0  0  0  0  0  0  0
   12.4597   45.6423    3.4255 O   0  0  0  0  0  0  0  0  0  0  0  0
  1  2  1  0
  2  3  1  0
  3  4  1  0
  4 24  1  0
  5 26  1  0
  5 14  1  0
  7  6  1  0
  7 29  1  0
  8 29  1  0
  9 10  2  0
 11 12  2  0
 13  8  2  0
 15 16  2  0
 17 18  2  0
 19 20  2  0
 21 20  1  0
 22 27  2  0
 22 16  1  0
 23 24  1  0
 23 14  2  0
 24 25  1  0
 26  6  1  0
  5 25  2  0
  6 28  2  0
  8  9  1  0
 10 11  1  0
 12 13  1  0
 14 15  1  0
 16 17  1  0
 18 19  1  0
 20 22  1  0
 23 27  1  0
M  END
>  <rmsd>  (1) 
0.202748492

$$$$
