MolPort-002-787-474 9777769 CSC020585273 CSSS00020585273 LN01105203 MCULE-8780350523 PubChem-17094991 ZINC000009777769
     RDKit          3D

 19 19  0  0  0  0  0  0  0  0999 V2000
   11.2285   39.5255   10.7933 C   0  0  0  0  0  0  0  0  0  0  0  0
   12.3346   38.8339   11.5674 C   0  0  0  0  0  0  0  0  0  0  0  0
   13.5954   39.6834   11.5724 C   0  0  0  0  0  0  0  0  0  0  0  0
   14.4004   39.4812   10.2982 C   0  0  0  0  0  0  0  0  0  0  0  0
   14.3727   41.1414    8.4629 C   0  0  0  0  0  0  0  0  0  0  0  0
   15.6701   41.5893    8.7581 C   0  0  0  0  0  0  0  0  0  0  0  0
   16.2521   42.6070    7.9990 C   0  0  0  0  0  0  0  0  0  0  0  0
   15.5421   43.1821    6.9422 C   0  0  0  0  0  0  0  0  0  0  0  0
   14.2451   42.7433    6.6372 C   0  0  0  0  0  0  0  0  0  0  0  0
   13.9013   44.3568    4.6751 C   0  0  0  0  0  0  0  0  0  0  0  0
   12.9570   44.8466    3.6306 C   0  0  0  0  0  0  0  0  0  0  0  0
   12.1532   46.0346    4.1402 C   0  0  0  0  0  0  0  0  0  0  0  0
   11.0874   45.5956    5.0870 C   0  0  0  0  0  0  0  0  0  0  0  0
   13.6696   41.7235    7.4029 C   0  0  0  0  0  0  0  0  0  0  0  0
   13.7613   40.1264    9.2034 O   0  0  0  0  0  0  0  0  0  0  0  0
   15.0385   44.8883    4.7788 O   0  0  0  0  0  0  0  0  0  0  0  0
   10.0682   44.7577    4.6529 O   0  0  0  0  0  0  0  0  0  0  0  0
   11.1072   45.9926    6.2805 O   0  0  0  0  0  0  0  0  0  0  0  0
   13.4848   43.3103    5.5618 N   0  0  0  0  0  0  0  0  0  0  0  0
  1  2  1  0
  2  3  1  0
  3  4  1  0
  4 15  1  0
  5 15  1  0
  6  7  2  0
  8  9  2  0
  9 19  1  0
 11 10  1  0
 11 12  1  0
 12 13  1  0
 13 17  1  0
 14  5  2  0
 19 10  1  0
  5  6  1  0
  7  8  1  0
  9 14  1  0
 10 16  2  0
 13 18  2  0
M  END
>  <rmsd>  (1) 
0.246316254

$$$$
