MolPort-005-100-458 12467958 CHEMBL1308785 CSSS00159514878 PubChem-24819002 ZINC000012467958
     RDKit          3D

 28 31  0  0  0  0  0  0  0  0999 V2000
   15.0618   44.8802    4.8147 O   0  0  0  0  0  0  0  0  0  0  0  0
   13.9185   44.3670    4.6678 C   0  0  0  0  0  0  0  0  0  0  0  0
   14.2175   42.7454    6.6090 C   0  0  0  0  0  0  0  0  0  0  0  0
   15.4804   43.1239    7.0250 C   0  0  0  0  0  0  0  0  0  0  0  0
   15.7292   42.2833    8.1043 C   0  0  0  0  0  0  0  0  0  0  0  0
   12.4523   41.1121    7.2776 C   0  0  0  0  0  0  0  0  0  0  0  0
   11.4718   41.6951    8.3051 C   0  0  0  0  0  0  0  0  0  0  0  0
   11.6222   41.0969    9.7163 C   0  0  0  0  0  0  0  0  0  0  0  0
   12.4116   39.3400   11.0546 C   0  0  0  0  0  0  0  0  0  0  0  0
   13.7127   38.7797   11.5237 C   0  0  0  0  0  0  0  0  0  0  0  0
   14.7379   39.5807   11.7993 C   0  0  0  0  0  0  0  0  0  0  0  0
   16.0398   39.0751   12.2555 C   0  0  0  0  0  0  0  0  0  0  0  0
   16.2814   37.7016   12.4232 C   0  0  0  0  0  0  0  0  0  0  0  0
   17.5332   37.2547   12.8562 C   0  0  0  0  0  0  0  0  0  0  0  0
   18.5497   38.1761   13.1232 C   0  0  0  0  0  0  0  0  0  0  0  0
   18.3143   39.5441   12.9572 C   0  0  0  0  0  0  0  0  0  0  0  0
   17.0623   39.9917   12.5241 C   0  0  0  0  0  0  0  0  0  0  0  0
   12.2199   39.0247    8.7333 C   0  0  0  0  0  0  0  0  0  0  0  0
   12.5693   39.5804    7.3508 C   0  0  0  0  0  0  0  0  0  0  0  0
   13.0122   44.8517    3.5837 C   0  0  0  0  0  0  0  0  0  0  0  0
   13.6410   44.6644    2.2139 C   0  0  0  0  0  0  0  0  0  0  0  0
   13.4789   45.9814    1.4737 C   0  0  0  0  0  0  0  0  0  0  0  0
   12.5677   46.8444    2.3208 C   0  0  0  0  0  0  0  0  0  0  0  0
   12.7238   46.3304    3.7325 C   0  0  0  0  0  0  0  0  0  0  0  0
   13.4699   43.3124    5.5254 N   0  0  0  0  0  0  0  0  0  0  0  0
   14.6714   41.4680    8.2996 N   0  0  0  0  0  0  0  0  0  0  0  0
   13.7622   41.7513    7.3840 N   0  0  0  0  0  0  0  0  0  0  0  0
   12.5802   39.9913    9.7653 N   0  0  0  0  0  0  0  0  0  0  0  0
  2 25  1  0
  4  5  1  0
  6 27  1  0
  6  7  1  0
  7  8  1  0
  8 28  1  0
  9 28  1  0
  9 10  1  0
 11 12  1  0
 13 14  2  0
 15 16  2  0
 17 12  2  0
 18 28  1  0
 18 19  1  0
 19  6  1  0
 20  2  1  0
 20 21  1  0
 21 22  1  0
 22 23  1  0
 23 24  1  0
 24 20  1  0
 25  3  1  0
 27 26  1  0
 27  3  1  0
  2  1  2  0
  3  4  2  0
  5 26  2  0
 10 11  2  0
 12 13  1  0
 14 15  1  0
 16 17  1  0
M  END
>  <rmsd>  (1) 
0.202846587

$$$$
