Molport-053-290-294 PubChem-165990344
     RDKit          3D

 31 35  0  0  0  0  0  0  0  0999 V2000
   13.6505   39.5702   11.6203 C   0  0  0  0  0  0  0  0  0  0  0  0
   12.2589   38.9658   11.3734 C   0  0  0  0  0  0  0  0  0  0  0  0
   11.9412   38.6737    9.9022 C   0  0  1  0  0  0  0  0  0  0  0  0
   12.3955   39.8139    8.9875 C   0  0  0  0  0  0  0  0  0  0  0  0
   14.5165   39.6085   10.3648 C   0  0  0  0  0  0  0  0  0  0  0  0
   14.3915   41.2384    8.4470 C   0  0  0  0  0  0  0  0  0  0  0  0
   14.2512   42.7551    6.6253 C   0  0  0  0  0  0  0  0  0  0  0  0
   16.2636   42.6274    7.8623 C   0  0  0  0  0  0  0  0  0  0  0  0
   15.7078   41.6515    8.6860 C   0  0  0  0  0  0  0  0  0  0  0  0
   13.9145   44.3303    4.6505 C   0  0  0  0  0  0  0  0  0  0  0  0
   13.4802   45.6122    2.5811 C   0  0  0  0  0  0  0  0  0  0  0  0
   13.9563   44.8620    1.3316 C   0  0  0  0  0  0  0  0  0  0  0  0
   15.1517   43.9928    1.6179 C   0  0  0  0  0  0  0  0  0  0  0  0
   16.4255   44.3961    2.0225 C   0  0  0  0  0  0  0  0  0  0  0  0
   17.4050   43.4102    2.2275 C   0  0  0  0  0  0  0  0  0  0  0  0
   17.1051   42.0498    2.0193 C   0  0  0  0  0  0  0  0  0  0  0  0
   15.8240   41.6592    1.5985 C   0  0  0  0  0  0  0  0  0  0  0  0
   14.8689   42.6557    1.4043 C   0  0  0  0  0  0  0  0  0  0  0  0
   13.5005   42.5472    0.9555 C   0  0  0  0  0  0  0  0  0  0  0  0
   12.7666   41.4167    0.6003 C   0  0  0  0  0  0  0  0  0  0  0  0
   11.4407   41.6002    0.1769 C   0  0  0  0  0  0  0  0  0  0  0  0
   10.8830   42.8922    0.1138 C   0  0  0  0  0  0  0  0  0  0  0  0
   11.6440   44.0163    0.4754 C   0  0  0  0  0  0  0  0  0  0  0  0
   12.9592   43.8191    0.8996 C   0  0  0  0  0  0  0  0  0  0  0  0
   13.7732   40.2341    9.2700 N   0  0  0  0  0  0  0  0  0  0  0  0
   13.6966   41.8025    7.4201 N   0  0  0  0  0  0  0  0  0  0  0  0
   15.5307   43.1594    6.8511 N   0  0  0  0  0  0  0  0  0  0  0  0
   13.4785   43.3097    5.5547 N   0  0  0  0  0  0  0  0  0  0  0  0
   15.0410   44.8798    4.7929 O   0  0  0  0  0  0  0  0  0  0  0  0
   13.0685   44.7156    3.6099 O   0  0  0  0  0  0  0  0  0  0  0  0
   12.5456   37.4778    9.5110 O   0  0  0  0  0  0  0  0  0  0  0  0
  1  2  1  0
  2  3  1  0
  3  4  1  0
  3 31  1  6
  4 25  1  0
  5 25  1  0
  5  1  1  0
  7 26  2  0
  7 28  1  0
  8 27  2  0
  9  6  2  0
 10 30  1  0
 11 30  1  0
 11 12  1  0
 12 13  1  0
 12 24  1  0
 14 15  2  0
 16 17  2  0
 18 19  1  0
 18 13  2  0
 20 21  2  0
 22 23  2  0
 24 19  2  0
 25  6  1  0
 28 10  1  0
  6 26  1  0
  7 27  1  0
  8  9  1  0
 10 29  2  0
 13 14  1  0
 15 16  1  0
 17 18  1  0
 19 20  1  0
 21 22  1  0
 23 24  1  0
M  END
>  <rmsd>  (1) 
0.246786132

$$$$
