MolPort-019-898-526 CSSS00159553217 MCULE-8781269075 PubChem-56756144
     RDKit          3D

 27 29  0  0  0  0  0  0  0  0999 V2000
   11.7489   46.5337    3.5620 C   0  0  0  0  0  0  0  0  0  0  0  0
   13.0836   44.7673    3.4889 C   0  0  1  0  0  0  0  0  0  0  0  0
   13.9385   44.3343    4.6374 C   0  0  0  0  0  0  0  0  0  0  0  0
   14.1928   42.8016    6.6585 C   0  0  0  0  0  0  0  0  0  0  0  0
   15.4438   43.2017    7.0888 C   0  0  0  0  0  0  0  0  0  0  0  0
   15.6706   42.4020    8.2038 C   0  0  0  0  0  0  0  0  0  0  0  0
   12.4264   41.1750    7.3351 C   0  0  0  0  0  0  0  0  0  0  0  0
   11.4666   41.6261    8.4449 C   0  0  0  0  0  0  0  0  0  0  0  0
   11.6818   40.8989    9.7857 C   0  0  0  0  0  0  0  0  0  0  0  0
   12.4793   38.9843   10.8931 C   0  0  0  0  0  0  0  0  0  0  0  0
   13.5028   39.3974   11.9386 C   0  0  0  0  0  0  0  0  0  0  0  0
   14.8944   38.9732   11.5095 C   0  0  0  0  0  0  0  0  0  0  0  0
   12.2520   38.9445    8.5644 C   0  0  0  0  0  0  0  0  0  0  0  0
   12.5865   39.6492    7.2485 C   0  0  0  0  0  0  0  0  0  0  0  0
   12.9410   43.6818    2.4659 C   0  0  0  0  0  0  0  0  0  0  0  0
   13.5534   43.8351    1.2171 C   0  0  0  0  0  0  0  0  0  0  0  0
   13.4336   42.8348    0.2477 C   0  0  0  0  0  0  0  0  0  0  0  0
   12.6999   41.6772    0.5236 C   0  0  0  0  0  0  0  0  0  0  0  0
   12.0851   41.5193    1.7691 C   0  0  0  0  0  0  0  0  0  0  0  0
   12.2042   42.5191    2.7387 C   0  0  0  0  0  0  0  0  0  0  0  0
   11.8308   45.1927    3.9408 O   0  0  0  0  0  0  0  0  0  0  0  0
   15.0637   44.8754    4.8023 O   0  0  0  0  0  0  0  0  0  0  0  0
   15.8193   39.3728   12.4725 O   0  0  0  0  0  0  0  0  0  0  0  0
   13.4723   43.3155    5.5312 N   0  0  0  0  0  0  0  0  0  0  0  0
   14.6123   41.5883    8.4042 N   0  0  0  0  0  0  0  0  0  0  0  0
   13.7228   41.8359    7.4595 N   0  0  0  0  0  0  0  0  0  0  0  0
   12.6334   39.7875    9.6908 N   0  0  0  0  0  0  0  0  0  0  0  0
  1 21  1  0
  2 21  1  1
  2  3  1  0
  2 15  1  0
  3 24  1  0
  5  6  1  0
  7 26  1  0
  7  8  1  0
  8  9  1  0
  9 27  1  0
 10 27  1  0
 10 11  1  0
 11 12  1  0
 12 23  1  0
 13 27  1  0
 13 14  1  0
 14  7  1  0
 16 17  2  0
 18 19  2  0
 20 15  2  0
 24  4  1  0
 26 25  1  0
 26  4  1  0
  3 22  2  0
  4  5  2  0
  6 25  2  0
 15 16  1  0
 17 18  1  0
 19 20  1  0
M  END
>  <rmsd>  (1) 
0.23022674

$$$$
