MolPort-002-536-916 1950594 CSSS00160676641 LN00398489 PubChem-1674666 ZINC000001950594
     RDKit          3D

 19 19  0  0  0  0  0  0  0  0999 V2000
   11.2301   39.5241   10.7930 C   0  0  0  0  0  0  0  0  0  0  0  0
   12.3370   38.8336   11.5668 C   0  0  0  0  0  0  0  0  0  0  0  0
   13.5971   39.6840   11.5713 C   0  0  0  0  0  0  0  0  0  0  0  0
   14.4017   39.4825   10.2967 C   0  0  0  0  0  0  0  0  0  0  0  0
   14.3731   41.1434    8.4619 C   0  0  0  0  0  0  0  0  0  0  0  0
   15.6705   41.5912    8.7568 C   0  0  0  0  0  0  0  0  0  0  0  0
   16.2523   42.6090    7.9975 C   0  0  0  0  0  0  0  0  0  0  0  0
   15.5419   43.1842    6.9411 C   0  0  0  0  0  0  0  0  0  0  0  0
   14.2447   42.7456    6.6365 C   0  0  0  0  0  0  0  0  0  0  0  0
   13.9010   44.3584    4.6698 C   0  0  0  0  0  0  0  0  0  0  0  0
   13.0024   44.8304    3.6128 C   0  0  0  0  0  0  0  0  0  0  0  0
   11.7884   44.3156    3.4422 C   0  0  0  0  0  0  0  0  0  0  0  0
   10.8887   44.7871    2.3853 C   0  0  0  0  0  0  0  0  0  0  0  0
   13.6696   41.7256    7.4022 C   0  0  0  0  0  0  0  0  0  0  0  0
   13.7620   40.1282    9.2025 O   0  0  0  0  0  0  0  0  0  0  0  0
   15.0385   44.8874    4.7790 O   0  0  0  0  0  0  0  0  0  0  0  0
    9.6319   44.2132    2.2532 O   0  0  0  0  0  0  0  0  0  0  0  0
   11.2405   45.7048    1.5964 O   0  0  0  0  0  0  0  0  0  0  0  0
   13.4845   43.3116    5.5603 N   0  0  0  0  0  0  0  0  0  0  0  0
  1  2  1  0
  2  3  1  0
  3  4  1  0
  4 15  1  0
  5 15  1  0
  6  7  2  0
  8  9  2  0
  9 19  1  0
 10 11  1  0
 12 13  1  0
 13 17  1  0
 14  5  2  0
 19 10  1  0
  5  6  1  0
  7  8  1  0
  9 14  1  0
 10 16  2  0
 11 12  2  0
 13 18  2  0
M  END
>  <rmsd>  (1) 
0.246040672

$$$$
