MolPort-019-951-899 72401769 CSSS00160620296 MCULE-3708651023 PubChem-60176406 ZINC000072401769
     RDKit          3D

 25 27  0  0  0  0  0  0  0  0999 V2000
   13.3735   37.8895   10.4854 C   0  0  0  0  0  0  0  0  0  0  0  0
   13.5574   39.3185   10.9639 C   0  0  0  0  0  0  0  0  0  0  0  0
   14.8139   39.3710   11.8191 C   0  0  0  0  0  0  0  0  0  0  0  0
   12.3767   39.6997   11.8387 C   0  0  0  0  0  0  0  0  0  0  0  0
   13.6438   40.2529    9.7777 C   0  0  0  0  0  0  0  0  0  0  0  0
   12.5568   40.3380    8.8631 C   0  0  0  0  0  0  0  0  0  0  0  0
   12.6214   41.2019    7.7552 C   0  0  0  0  0  0  0  0  0  0  0  0
   13.7839   41.9466    7.6158 C   0  0  0  0  0  0  0  0  0  0  0  0
   14.2157   42.8691    6.6996 C   0  0  0  0  0  0  0  0  0  0  0  0
   13.9453   44.2874    4.6122 C   0  0  0  0  0  0  0  0  0  0  0  0
   13.0727   44.6665    3.4828 C   0  0  0  0  0  0  0  0  0  0  0  0
   13.5553   45.1328    2.2308 C   0  0  0  0  0  0  0  0  0  0  0  0
   11.3163   45.5352    1.5349 C   0  0  0  0  0  0  0  0  0  0  0  0
   10.8421   45.0420    2.7456 C   0  0  0  0  0  0  0  0  0  0  0  0
   14.9777   45.1120    1.8344 C   0  0  0  0  0  0  0  0  0  0  0  0
   14.8099   41.8491    8.5017 C   0  0  0  0  0  0  0  0  0  0  0  0
   13.4805   43.3149    5.5555 N   0  0  0  0  0  0  0  0  0  0  0  0
   12.6536   45.5665    1.3075 N   0  0  0  0  0  0  0  0  0  0  0  0
   11.7268   44.6238    3.6855 N   0  0  0  0  0  0  0  0  0  0  0  0
   15.4561   43.2921    7.0456 N   0  0  0  0  0  0  0  0  0  0  0  0
   15.8245   42.6625    8.1599 N   0  0  0  0  0  0  0  0  0  0  0  0
   14.7630   41.0216    9.5738 N   0  0  0  0  0  0  0  0  0  0  0  0
   15.0538   44.8623    4.7852 O   0  0  0  0  0  0  0  0  0  0  0  0
   15.4308   45.9942    0.8613 O   0  0  0  0  0  0  0  0  0  0  0  0
   15.7733   44.2566    2.3042 O   0  0  0  0  0  0  0  0  0  0  0  0
  1  2  1  0
  2  3  1  0
  2  4  1  0
  2  5  1  0
  5 22  2  0
  6  7  2  0
  8  9  1  0
  9 17  1  0
 10 11  1  0
 11 19  2  0
 12 18  2  0
 12 15  1  0
 13 14  2  0
 15 24  1  0
 16  8  2  0
 17 10  1  0
 21 20  1  0
 21 16  1  0
  5  6  1  0
  7  8  1  0
  9 20  2  0
 10 23  2  0
 11 12  1  0
 13 18  1  0
 14 19  1  0
 15 25  2  0
 16 22  1  0
M  END
>  <rmsd>  (1) 
0.249180272

$$$$
