MolPort-007-967-220 ChemDiv-L497-0033 MCULE-5991978792 PubChem-46385444 ZINC000033129554
     RDKit          3D

 28 30  0  0  0  0  0  0  0  0999 V2000
   14.2741   41.6869   10.5402 S   0  0  0  0  0  0  0  0  0  0  0  0
   16.1430   41.9527    8.1568 S   0  0  0  0  0  0  0  0  0  0  0  0
   15.2328   42.4000   11.4522 O   0  0  0  0  0  0  0  0  0  0  0  0
   12.8715   42.1168   10.8742 O   0  0  0  0  0  0  0  0  0  0  0  0
   13.1243   47.2251    3.7585 O   0  0  0  0  0  0  0  0  0  0  0  0
   15.0224   44.8842    4.7342 O   0  0  0  0  0  0  0  0  0  0  0  0
   14.4367   39.9703   10.7416 N   0  0  0  0  0  0  0  0  0  0  0  0
   13.5213   43.3113    5.6029 N   0  0  0  0  0  0  0  0  0  0  0  0
   11.9708   45.1986    3.6641 N   0  0  0  0  0  0  0  0  0  0  0  0
   14.0963   39.6453   12.1251 C   0  0  0  0  0  0  0  0  0  0  0  0
   12.8556   38.7790   12.1259 C   0  0  0  0  0  0  0  0  0  0  0  0
   12.7540   38.2634   10.7201 C   0  0  0  0  0  0  0  0  0  0  0  0
   13.4398   39.3232    9.8954 C   0  0  0  0  0  0  0  0  0  0  0  0
   14.6371   42.1234    8.8819 C   0  0  0  0  0  0  0  0  0  0  0  0
   15.6625   42.5227    6.6518 C   0  0  0  0  0  0  0  0  0  0  0  0
   14.3046   42.8502    6.7104 C   0  0  0  0  0  0  0  0  0  0  0  0
   13.9739   44.2037    4.5803 C   0  0  0  0  0  0  0  0  0  0  0  0
   13.1470   44.3975    3.3562 C   0  0  0  0  0  0  0  0  0  0  0  0
   12.0280   46.6128    3.8799 C   0  0  0  0  0  0  0  0  0  0  0  0
   10.8065   47.3533    4.2402 C   0  0  0  0  0  0  0  0  0  0  0  0
   10.8527   48.7394    4.4519 C   0  0  0  0  0  0  0  0  0  0  0  0
    9.6933   49.4410    4.7954 C   0  0  0  0  0  0  0  0  0  0  0  0
    8.4795   48.7618    4.9300 C   0  0  0  0  0  0  0  0  0  0  0  0
    8.4248   47.3812    4.7213 C   0  0  0  0  0  0  0  0  0  0  0  0
    9.5841   46.6795    4.3778 C   0  0  0  0  0  0  0  0  0  0  0  0
    7.2472   49.5075    5.2953 C   0  0  0  0  0  0  0  0  0  0  0  0
   13.7202   42.6089    7.9601 C   0  0  0  0  0  0  0  0  0  0  0  0
   16.5341   42.5106    5.4445 C   0  0  0  0  0  0  0  0  0  0  0  0
  1  7  1  0
  1 14  1  0
  8 17  1  0
  9 19  1  0
 10  7  1  0
 10 11  1  0
 11 12  1  0
 12 13  1  0
 13  7  1  0
 14  2  1  0
 15  2  1  0
 16  8  1  0
 16 27  1  0
 18 17  1  0
 18  9  1  0
 19 20  1  0
 21 22  2  0
 23 24  2  0
 25 20  2  0
 26 23  1  0
 28 15  1  0
  1  3  2  0
  1  4  2  0
 15 16  2  0
 17  6  2  0
 19  5  2  0
 20 21  1  0
 22 23  1  0
 24 25  1  0
 27 14  2  0
M  END
>  <rmsd>  (1) 
0.249592885

$$$$
