MolPort-006-464-510 ChemDiv-V018-5277 MCULE-9359605537 PubChem-1029278 ZINC000000696954 ZINC00696954
     RDKit          3D

 28 31  0  0  0  0  0  0  0  0999 V2000
   21.9190   40.0082   11.0480 C   0  0  0  0  0  0  0  0  0  0  0  0
   20.6142   40.4341   10.4090 C   0  0  0  0  0  0  0  0  0  0  0  0
   18.2105   40.0350   10.7046 C   0  0  0  0  0  0  0  0  0  0  0  0
   16.1182   39.9548   10.6359 C   0  0  0  0  0  0  0  0  0  0  0  0
   14.7200   39.6513   10.9922 C   0  0  0  0  0  0  0  0  0  0  0  0
   14.3021   38.3145   10.9760 C   0  0  0  0  0  0  0  0  0  0  0  0
   12.9887   37.9787   11.3136 C   0  0  0  0  0  0  0  0  0  0  0  0
   12.0852   38.9776   11.6811 C   0  0  0  0  0  0  0  0  0  0  0  0
   12.4969   40.3120   11.7211 C   0  0  0  0  0  0  0  0  0  0  0  0
   13.8099   40.6573   11.3851 C   0  0  0  0  0  0  0  0  0  0  0  0
   14.2162   42.0891   11.4914 C   0  0  0  0  0  0  0  0  0  0  0  0
   15.7447   41.4359    8.6243 C   0  0  0  0  0  0  0  0  0  0  0  0
   14.4673   40.9725    8.2758 C   0  0  0  0  0  0  0  0  0  0  0  0
   13.7348   41.6004    7.2656 C   0  0  0  0  0  0  0  0  0  0  0  0
   14.2710   42.6924    6.5775 C   0  0  0  0  0  0  0  0  0  0  0  0
   13.8824   44.4034    4.7036 C   0  0  0  0  0  0  0  0  0  0  0  0
   12.9249   44.9712    3.6997 C   0  0  0  0  0  0  0  0  0  0  0  0
   12.2423   43.8725    2.9053 C   0  0  0  0  0  0  0  0  0  0  0  0
   10.9165   44.2298    3.5490 C   0  0  0  0  0  0  0  0  0  0  0  0
   11.5997   45.3227    4.3488 C   0  0  0  0  0  0  0  0  0  0  0  0
   15.5526   43.1517    6.9134 C   0  0  0  0  0  0  0  0  0  0  0  0
   16.2846   42.5252    7.9255 C   0  0  0  0  0  0  0  0  0  0  0  0
   19.5324   39.8138   11.0858 O   0  0  0  0  0  0  0  0  0  0  0  0
   15.0367   44.8991    4.7859 O   0  0  0  0  0  0  0  0  0  0  0  0
   17.8446   40.8365    9.6847 N   0  0  0  0  0  0  0  0  0  0  0  0
   16.5250   40.7803    9.6410 N   0  0  0  0  0  0  0  0  0  0  0  0
   17.1633   39.4576   11.3278 N   0  0  0  0  0  0  0  0  0  0  0  0
   13.4862   43.3127    5.5505 N   0  0  0  0  0  0  0  0  0  0  0  0
  1  2  1  0
  2 23  1  0
  3 23  1  0
  3 27  1  0
  4  5  1  0
  6  7  2  0
  8  9  2  0
 10  5  2  0
 11 10  1  0
 13 14  2  0
 15 28  1  0
 15 21  2  0
 17 16  1  0
 17 18  1  0
 18 19  1  0
 19 20  1  0
 20 17  1  0
 22 12  2  0
 26 25  1  0
 26  4  1  0
 26 12  1  0
 28 16  1  0
  3 25  2  0
  4 27  2  0
  5  6  1  0
  7  8  1  0
  9 10  1  0
 12 13  1  0
 14 15  1  0
 16 24  2  0
 21 22  1  0
M  END
>  <rmsd>  (1) 
0.235876486

$$$$
