MolPort-001-939-488 2057877 CSSS00121710954 LN01120534 MCULE-6418752900 PubChem-1722201 ZINC000002057877 ZINC02057877
     RDKit          3D

 22 23  0  0  0  0  0  0  0  0999 V2000
   10.6082   38.9281   10.6502 C   0  0  0  0  0  0  0  0  0  0  0  0
   12.1112   39.0094   10.4912 C   0  0  0  0  0  0  0  0  0  0  0  0
   12.7806   38.5907   11.7864 C   0  0  0  0  0  0  0  0  0  0  0  0
   14.2933   38.6825   11.6586 C   0  0  0  0  0  0  0  0  0  0  0  0
   14.7952   40.0860   11.9804 C   0  0  0  0  0  0  0  0  0  0  0  0
   14.5418   41.0532   10.8343 C   0  0  0  0  0  0  0  0  0  0  0  0
   15.4740   40.7578    9.6721 C   0  0  0  0  0  0  0  0  0  0  0  0
   15.1359   41.6265    8.5114 C   0  0  0  0  0  0  0  0  0  0  0  0
   14.2366   42.7874    6.6243 C   0  0  0  0  0  0  0  0  0  0  0  0
   13.9130   44.3562    4.6509 C   0  0  0  0  0  0  0  0  0  0  0  0
   13.0290   44.8159    3.5654 C   0  0  0  0  0  0  0  0  0  0  0  0
   13.4462   45.8309    2.6911 C   0  0  0  0  0  0  0  0  0  0  0  0
   12.6070   46.2663    1.6615 C   0  0  0  0  0  0  0  0  0  0  0  0
   13.0578   47.3420    0.7406 C   0  0  0  0  0  0  0  0  0  0  0  0
   11.3442   45.6905    1.4983 C   0  0  0  0  0  0  0  0  0  0  0  0
   10.9206   44.6791    2.3645 C   0  0  0  0  0  0  0  0  0  0  0  0
   11.7600   44.2435    3.3942 C   0  0  0  0  0  0  0  0  0  0  0  0
   15.9812   42.5503    8.0046 N   0  0  0  0  0  0  0  0  0  0  0  0
   15.4805   43.1993    6.9547 N   0  0  0  0  0  0  0  0  0  0  0  0
   13.4733   43.3181    5.5368 N   0  0  0  0  0  0  0  0  0  0  0  0
   15.0522   44.8781    4.7957 O   0  0  0  0  0  0  0  0  0  0  0  0
   13.6899   41.5674    7.6448 S   0  0  0  0  0  0  0  0  0  0  0  0
  1  2  1  0
  2  3  1  0
  3  4  1  0
  4  5  1  0
  5  6  1  0
  6  7  1  0
  7  8  1  0
  8 22  1  0
  9 20  1  0
  9 22  1  0
 10 11  1  0
 12 13  2  0
 14 13  1  0
 15 16  2  0
 17 11  2  0
 18 19  1  0
 20 10  1  0
  8 18  2  0
  9 19  2  0
 10 21  2  0
 11 12  1  0
 13 15  1  0
 16 17  1  0
M  END
>  <rmsd>  (1) 
0.230602026

$$$$
