MolPort-046-958-707 MCULE-9654830527 PubChem-110094058
     RDKit          3D

 22 24  0  0  0  0  0  0  0  0999 V2000
   15.9689   36.4419   10.3462 C   0  0  0  0  0  0  0  0  0  0  0  0
   14.5872   36.4618    9.6926 C   0  0  0  0  0  0  0  0  0  0  0  0
   13.7648   35.2722   10.1558 C   0  0  0  0  0  0  0  0  0  0  0  0
   13.8159   38.0880   11.3212 C   0  0  0  0  0  0  0  0  0  0  0  0
   12.9681   39.3426   11.5123 C   0  0  0  0  0  0  0  0  0  0  0  0
   13.5623   40.4892   10.7016 C   0  0  0  0  0  0  0  0  0  0  0  0
   13.7174   40.0777    9.2377 C   0  0  2  0  0  0  0  0  0  0  0  0
   14.5174   38.7777    9.1375 C   0  0  0  0  0  0  0  0  0  0  0  0
   14.3625   41.1663    8.4406 C   0  0  0  0  0  0  0  0  0  0  0  0
   15.6555   41.6180    8.7335 C   0  0  0  0  0  0  0  0  0  0  0  0
   15.5184   43.1699    6.9522 C   0  0  0  0  0  0  0  0  0  0  0  0
   14.2249   42.7237    6.6529 C   0  0  0  0  0  0  0  0  0  0  0  0
   13.8484   44.3220    4.6743 C   0  0  0  0  0  0  0  0  0  0  0  0
   15.4345   45.9087    3.9033 C   0  0  0  0  0  0  0  0  0  0  0  0
   14.5430   46.3193    2.9114 C   0  0  0  0  0  0  0  0  0  0  0  0
   12.9589   44.7358    3.6803 C   0  0  0  0  0  0  0  0  0  0  0  0
   13.8521   37.7180    9.8991 N   0  0  0  0  0  0  0  0  0  0  0  0
   16.2029   42.6087    7.9829 N   0  0  0  0  0  0  0  0  0  0  0  0
   13.6824   41.7315    7.4081 N   0  0  0  0  0  0  0  0  0  0  0  0
   13.4560   43.2792    5.5768 N   0  0  0  0  0  0  0  0  0  0  0  0
   15.0682   44.9206    4.7617 N   0  0  0  0  0  0  0  0  0  0  0  0
   13.3247   45.7239    2.8215 N   0  0  0  0  0  0  0  0  0  0  0  0
  1  2  1  0
  2  3  1  0
  2 17  1  0
  4 17  1  0
  4  5  1  0
  5  6  1  0
  6  7  1  0
  7  8  1  0
  7  9  1  6
  8 17  1  0
  9 19  2  0
 10 18  2  0
 11 12  2  0
 12 20  1  0
 14 21  2  0
 15 22  2  0
 16 13  2  0
 20 13  1  0
  9 10  1  0
 11 18  1  0
 12 19  1  0
 13 21  1  0
 14 15  1  0
 16 22  1  0
M  END
>  <rmsd>  (1) 
0.242535457

$$$$
