MolPort-039-222-430 299785593 CSSS00160175489 MCULE-2234487371 PubChem-118781283 ZINC000299785593
     RDKit          3D

 27 29  0  0  0  0  0  0  0  0999 V2000
   11.2348   39.5378   10.8025 C   0  0  0  0  0  0  0  0  0  0  0  0
   12.3418   38.8440   11.5732 C   0  0  0  0  0  0  0  0  0  0  0  0
   13.6049   39.6899   11.5730 C   0  0  0  0  0  0  0  0  0  0  0  0
   14.4046   39.4845   10.2959 C   0  0  0  0  0  0  0  0  0  0  0  0
   14.3757   41.1439    8.4598 C   0  0  0  0  0  0  0  0  0  0  0  0
   15.6756   41.5875    8.7500 C   0  0  0  0  0  0  0  0  0  0  0  0
   16.2585   42.6026    7.9879 C   0  0  0  0  0  0  0  0  0  0  0  0
   15.5465   43.1793    6.9333 C   0  0  0  0  0  0  0  0  0  0  0  0
   14.2467   42.7450    6.6334 C   0  0  0  0  0  0  0  0  0  0  0  0
   13.8984   44.3582    4.6662 C   0  0  0  0  0  0  0  0  0  0  0  0
   13.4437   45.8042    2.6623 C   0  0  0  0  0  0  0  0  0  0  0  0
   12.3466   46.8462    2.4550 C   0  0  0  0  0  0  0  0  0  0  0  0
   11.0082   46.1767    2.1214 C   0  0  0  0  0  0  0  0  0  0  0  0
   10.6250   45.1820    3.2182 C   0  0  0  0  0  0  0  0  0  0  0  0
   11.7253   44.1427    3.4257 C   0  0  0  0  0  0  0  0  0  0  0  0
   11.1092   46.1917   -0.3653 C   0  0  0  0  0  0  0  0  0  0  0  0
   11.0192   47.5893   -0.4396 C   0  0  0  0  0  0  0  0  0  0  0  0
   11.0622   48.2150   -1.6872 C   0  0  0  0  0  0  0  0  0  0  0  0
   11.2758   46.1146   -2.7719 C   0  0  0  0  0  0  0  0  0  0  0  0
   11.2366   45.4517   -1.5431 C   0  0  0  0  0  0  0  0  0  0  0  0
   13.6708   41.7275    7.4019 C   0  0  0  0  0  0  0  0  0  0  0  0
   13.7636   40.1313    9.2033 O   0  0  0  0  0  0  0  0  0  0  0  0
   15.0381   44.8856    4.7820 O   0  0  0  0  0  0  0  0  0  0  0  0
   11.0678   45.5151    0.8589 O   0  0  0  0  0  0  0  0  0  0  0  0
   13.4848   43.3122    5.5590 N   0  0  0  0  0  0  0  0  0  0  0  0
   13.0057   44.8116    3.6403 N   0  0  0  0  0  0  0  0  0  0  0  0
   11.1888   47.4712   -2.8187 N   0  0  0  0  0  0  0  0  0  0  0  0
  1  2  1  0
  2  3  1  0
  3  4  1  0
  4 22  1  0
  5 22  1  0
  6  7  2  0
  8  9  2  0
  9 25  1  0
 10 26  1  0
 11 26  1  0
 11 12  1  0
 12 13  1  0
 13 14  1  0
 13 24  1  0
 14 15  1  0
 15 26  1  0
 16 24  1  0
 17 18  2  0
 19 27  2  0
 20 16  2  0
 21  5  2  0
 25 10  1  0
  5  6  1  0
  7  8  1  0
  9 21  1  0
 10 23  2  0
 16 17  1  0
 18 27  1  0
 19 20  1  0
M  END
>  <rmsd>  (1) 
0.246350124

$$$$
