MolPort-001-980-411 5007089 CHEMBL1312536 CSSS00121700322 LN01130057 MCULE-6991564078 PubChem-3141658 ZINC000005007089
     RDKit          3D

 29 33  0  0  0  0  0  0  0  0999 V2000
   14.2894   42.7172    6.5773 C   0  0  0  0  0  0  0  0  0  0  0  0
   13.9644   44.2623    4.5820 C   0  0  0  0  0  0  0  0  0  0  0  0
   13.1201   44.5672    3.3751 C   0  0  2  0  0  0  0  0  0  0  0  0
   13.8980   45.4108    2.3411 C   0  0  0  0  0  0  0  0  0  0  0  0
   13.0094   45.7147    1.1245 C   0  0  1  0  0  0  0  0  0  0  0  0
   12.5735   44.3919    0.4753 C   0  0  0  0  0  0  0  0  0  0  0  0
   11.7871   43.5442    1.4880 C   0  0  2  0  0  0  0  0  0  0  0  0
   10.5459   44.3258    1.9496 C   0  0  0  0  0  0  0  0  0  0  0  0
   10.9719   45.6501    2.6043 C   0  0  2  0  0  0  0  0  0  0  0  0
   11.7628   46.4878    1.5867 C   0  0  0  0  0  0  0  0  0  0  0  0
   11.8679   45.3497    3.8162 C   0  0  0  0  0  0  0  0  0  0  0  0
   12.6818   43.2507    2.7025 C   0  0  0  0  0  0  0  0  0  0  0  0
   15.0956   41.5695    8.6588 C   0  0  0  0  0  0  0  0  0  0  0  0
   16.0713   41.6620    7.6578 C   0  0  0  0  0  0  0  0  0  0  0  0
   17.4498   41.0991    7.7918 C   0  0  0  0  0  0  0  0  0  0  0  0
   15.6148   42.2895    6.4828 C   0  0  0  0  0  0  0  0  0  0  0  0
   16.4061   42.3709    5.2790 C   0  0  0  0  0  0  0  0  0  0  0  0
   15.2694   40.9951   10.0141 C   0  0  0  0  0  0  0  0  0  0  0  0
   12.9242   40.0607   10.1831 C   0  0  0  0  0  0  0  0  0  0  0  0
   12.7779   38.5713   10.4823 C   0  0  0  0  0  0  0  0  0  0  0  0
   12.8440   38.3345   11.9900 C   0  0  0  0  0  0  0  0  0  0  0  0
   14.1607   38.8650   12.5549 C   0  0  0  0  0  0  0  0  0  0  0  0
   14.3023   40.3523   12.2408 C   0  0  0  0  0  0  0  0  0  0  0  0
   13.4932   43.3150    5.5480 N   0  0  0  0  0  0  0  0  0  0  0  0
   17.0387   42.4320    4.3120 N   0  0  0  0  0  0  0  0  0  0  0  0
   14.1473   40.5640   10.8038 N   0  0  0  0  0  0  0  0  0  0  0  0
   15.0345   44.8975    4.7910 O   0  0  0  0  0  0  0  0  0  0  0  0
   16.4322   40.8974   10.4936 O   0  0  0  0  0  0  0  0  0  0  0  0
   13.6804   42.2800    8.0768 S   0  0  0  0  0  0  0  0  0  0  0  0
  1 24  1  0
  1 29  1  0
  3  2  1  1
  3  4  1  0
  5  4  1  1
  5  6  1  0
  7  6  1  6
  7  8  1  0
  7 12  1  0
  9  8  1  6
  9 10  1  0
  9 11  1  0
 10  5  1  0
 11  3  1  0
 12  3  1  0
 13 29  1  0
 13 18  1  0
 14 16  1  0
 15 14  1  0
 16 17  1  0
 18 26  1  0
 19 26  1  0
 19 20  1  0
 20 21  1  0
 21 22  1  0
 22 23  1  0
 23 26  1  0
 24  2  1  0
  2 27  2  0
 13 14  2  0
 16  1  2  0
 18 28  2  0
 17 25  3  0
M  END
>  <rmsd>  (1) 
0.209770977

$$$$
