MolPort-020-278-625 MCULE-3634150499 PubChem-110255497
     RDKit          3D

 26 29  0  0  0  0  0  0  0  0999 V2000
   17.5901   43.0321    8.3309 C   0  0  0  0  0  0  0  0  0  0  0  0
   16.2154   42.5782    7.9967 C   0  0  0  0  0  0  0  0  0  0  0  0
   15.5242   43.1681    6.9407 C   0  0  0  0  0  0  0  0  0  0  0  0
   14.2312   42.7202    6.6488 C   0  0  0  0  0  0  0  0  0  0  0  0
   14.3739   41.1601    8.4280 C   0  0  0  0  0  0  0  0  0  0  0  0
   13.7380   40.0701    9.2249 C   0  0  2  0  0  0  0  0  0  0  0  0
   13.6045   40.4806   10.6927 C   0  0  0  0  0  0  0  0  0  0  0  0
   12.9520   39.3612   11.5010 C   0  0  0  0  0  0  0  0  0  0  0  0
   13.7750   38.0823   11.3785 C   0  0  0  0  0  0  0  0  0  0  0  0
   14.5405   38.7752    9.0994 C   0  0  0  0  0  0  0  0  0  0  0  0
   13.5534   36.4840    9.4308 C   0  0  0  0  0  0  0  0  0  0  0  0
   13.3462   35.0198    7.5727 C   0  0  0  0  0  0  0  0  0  0  0  0
   12.7781   34.0482    8.3970 C   0  0  0  0  0  0  0  0  0  0  0  0
   12.9817   35.5033   10.2535 C   0  0  0  0  0  0  0  0  0  0  0  0
   13.8462   44.3247    4.6749 C   0  0  0  0  0  0  0  0  0  0  0  0
   12.9459   44.7352    3.6879 C   0  0  0  0  0  0  0  0  0  0  0  0
   13.3120   45.7519    2.8041 C   0  0  0  0  0  0  0  0  0  0  0  0
   14.5690   46.3481    2.9126 C   0  0  0  0  0  0  0  0  0  0  0  0
   15.4439   45.9139    3.9101 C   0  0  0  0  0  0  0  0  0  0  0  0
   13.6877   41.7262    7.4003 N   0  0  0  0  0  0  0  0  0  0  0  0
   15.6323   41.5882    8.7200 N   0  0  0  0  0  0  0  0  0  0  0  0
   13.9573   37.7546    9.9658 N   0  0  0  0  0  0  0  0  0  0  0  0
   13.7202   36.2124    8.1061 N   0  0  0  0  0  0  0  0  0  0  0  0
   12.6082   34.3110    9.7191 N   0  0  0  0  0  0  0  0  0  0  0  0
   13.4586   43.2794    5.5770 N   0  0  0  0  0  0  0  0  0  0  0  0
   15.0682   44.9218    4.7615 N   0  0  0  0  0  0  0  0  0  0  0  0
  1  2  1  0
  2 21  2  0
  3  4  2  0
  4 25  1  0
  5 20  2  0
  6  5  1  6
  6  7  1  0
  7  8  1  0
  8  9  1  0
  9 22  1  0
 10 22  1  0
 10  6  1  0
 12 23  2  0
 13 24  2  0
 14 11  2  0
 15 26  2  0
 16 17  2  0
 18 19  2  0
 22 11  1  0
 25 15  1  0
  2  3  1  0
  4 20  1  0
  5 21  1  0
 11 23  1  0
 12 13  1  0
 14 24  1  0
 15 16  1  0
 17 18  1  0
 19 26  1  0
M  END
>  <rmsd>  (1) 
0.24019368

$$$$
