MolPort-039-210-472 CSSS03437008378 MCULE-4993795903 PubChem-121017025
     RDKit          3D

 24 26  0  0  0  0  0  0  0  0999 V2000
    9.7480   46.6205    1.0264 C   0  0  0  0  0  0  0  0  0  0  0  0
   10.7072   46.1640    2.0732 C   0  0  0  0  0  0  0  0  0  0  0  0
   10.4228   45.0630    2.9029 C   0  0  0  0  0  0  0  0  0  0  0  0
    9.1482   44.2992    2.7768 C   0  0  0  0  0  0  0  0  0  0  0  0
   11.3501   44.6679    3.8723 C   0  0  0  0  0  0  0  0  0  0  0  0
   12.5572   45.3584    4.0196 C   0  0  0  0  0  0  0  0  0  0  0  0
   12.8363   46.4538    3.1967 C   0  0  0  0  0  0  0  0  0  0  0  0
   11.9141   46.8539    2.2263 C   0  0  0  0  0  0  0  0  0  0  0  0
   14.2193   42.5121    6.6260 C   0  0  0  0  0  0  0  0  0  0  0  0
   14.0510   41.1964    6.9908 C   0  0  0  0  0  0  0  0  0  0  0  0
   15.1619   39.6981    8.6308 C   0  0  0  0  0  0  0  0  0  0  0  0
   14.5553   39.7674   10.0233 C   0  0  1  0  0  0  0  0  0  0  0  0
   13.0260   39.7526    9.9360 C   0  0  0  0  0  0  0  0  0  0  0  0
   12.4485   39.8446   11.3457 C   0  0  0  0  0  0  0  0  0  0  0  0
   13.1041   38.8093   12.2560 C   0  0  0  0  0  0  0  0  0  0  0  0
   14.6232   38.9131   12.1143 C   0  0  0  0  0  0  0  0  0  0  0  0
   15.2568   43.0344    7.3752 C   0  0  0  0  0  0  0  0  0  0  0  0
   13.7107   44.8633    5.2438 S   0  0  0  0  0  0  0  0  0  0  0  0
   13.5303   45.7162    6.4677 O   0  0  0  0  0  0  0  0  0  0  0  0
   15.1058   45.0221    4.7073 O   0  0  0  0  0  0  0  0  0  0  0  0
   14.9982   38.6670   10.7803 O   0  0  0  0  0  0  0  0  0  0  0  0
   13.4426   43.2001    5.6455 N   0  0  0  0  0  0  0  0  0  0  0  0
   14.9805   40.9612    7.9334 N   0  0  0  0  0  0  0  0  0  0  0  0
   15.7017   42.0452    8.1746 N   0  0  0  0  0  0  0  0  0  0  0  0
  1  2  1  0
  3  5  2  0
  4  3  1  0
  6  7  2  0
  8  2  2  0
 10 23  1  0
 11 23  1  0
 12 11  1  6
 12 13  1  0
 12 21  1  0
 13 14  1  0
 14 15  1  0
 15 16  1  0
 16 21  1  0
 17  9  1  0
 18  6  1  0
 18 22  1  0
 22  9  1  0
 23 24  1  0
  2  3  1  0
  5  6  1  0
  7  8  1  0
  9 10  2  0
 17 24  2  0
 18 19  2  0
 18 20  2  0
M  END
>  <rmsd>  (1) 
0.238469258

$$$$
