MolPort-001-571-316 CSSS00132419744 MCULE-7383928779 PubChem-4029104
     RDKit          3D

 27 29  0  0  0  0  0  0  0  0999 V2000
   13.4841   39.3053   11.3617 C   0  0  0  0  0  0  0  0  0  0  0  0
   14.3860   39.3306   10.1424 C   0  0  1  0  0  0  0  0  0  0  0  0
   14.3591   41.0496    8.3636 C   0  0  0  0  0  0  0  0  0  0  0  0
   15.6643   41.4723    8.6618 C   0  0  0  0  0  0  0  0  0  0  0  0
   16.2533   42.5054    7.9297 C   0  0  0  0  0  0  0  0  0  0  0  0
   15.5423   43.1214    6.8970 C   0  0  0  0  0  0  0  0  0  0  0  0
   14.2373   42.7085    6.5892 C   0  0  0  0  0  0  0  0  0  0  0  0
   13.8973   44.3842    4.6740 C   0  0  0  0  0  0  0  0  0  0  0  0
   12.9799   44.8904    3.6378 C   0  0  0  0  0  0  0  0  0  0  0  0
   11.7004   44.3345    3.4911 C   0  0  0  0  0  0  0  0  0  0  0  0
   10.8294   44.8139    2.5083 C   0  0  0  0  0  0  0  0  0  0  0  0
   11.2313   45.8529    1.6648 C   0  0  0  0  0  0  0  0  0  0  0  0
   12.5041   46.4127    1.8037 C   0  0  0  0  0  0  0  0  0  0  0  0
   13.3752   45.9334    2.7865 C   0  0  0  0  0  0  0  0  0  0  0  0
   13.6552   41.6725    7.3278 C   0  0  0  0  0  0  0  0  0  0  0  0
   14.7535   37.9427    9.7167 C   0  0  0  0  0  0  0  0  0  0  0  0
   16.1662   37.5179    9.6760 C   0  0  0  0  0  0  0  0  0  0  0  0
   16.5005   36.2172    9.2697 C   0  0  0  0  0  0  0  0  0  0  0  0
   17.8373   35.8107    9.2259 C   0  0  0  0  0  0  0  0  0  0  0  0
   18.8510   36.7018    9.5875 C   0  0  0  0  0  0  0  0  0  0  0  0
   20.2720   36.2698    9.5406 C   0  0  0  0  0  0  0  0  0  0  0  0
   18.5284   37.9994    9.9932 C   0  0  0  0  0  0  0  0  0  0  0  0
   17.1917   38.4057   10.0372 C   0  0  0  0  0  0  0  0  0  0  0  0
   13.7429   40.0165    9.0754 O   0  0  0  0  0  0  0  0  0  0  0  0
   15.0450   44.8928    4.7953 O   0  0  0  0  0  0  0  0  0  0  0  0
   13.8428   37.1390    9.3751 O   0  0  0  0  0  0  0  0  0  0  0  0
   13.4762   43.3162    5.5367 N   0  0  0  0  0  0  0  0  0  0  0  0
  2  1  1  1
  2 24  1  0
  2 16  1  0
  3 24  1  0
  4  5  2  0
  6  7  2  0
  7 27  1  0
  8  9  1  0
 10 11  2  0
 12 13  2  0
 14  9  2  0
 15  3  2  0
 16 17  1  0
 18 19  2  0
 20 22  2  0
 21 20  1  0
 23 17  2  0
 27  8  1  0
  3  4  1  0
  5  6  1  0
  7 15  1  0
  8 25  2  0
  9 10  1  0
 11 12  1  0
 13 14  1  0
 16 26  2  0
 17 18  1  0
 19 20  1  0
 22 23  1  0
M  END
>  <rmsd>  (1) 
0.232180491

$$$$
