MolPort-002-603-648 2374897 CHEMBL1575533 CSSS00160651546 LN00678916 MCULE-6865837890 PubChem-662949 ZINC000002374897
     RDKit          3D

 30 34  0  0  0  0  0  0  0  0999 V2000
   15.2393   41.1341    7.9289 C   0  0  0  0  0  0  0  0  0  0  0  0
   14.2628   39.5328   10.0883 C   0  0  0  0  0  0  0  0  0  0  0  0
   13.1493   38.6960    9.9488 C   0  0  0  0  0  0  0  0  0  0  0  0
   12.1883   38.6337   10.9623 C   0  0  0  0  0  0  0  0  0  0  0  0
   12.3364   39.4117   12.1150 C   0  0  0  0  0  0  0  0  0  0  0  0
   13.4459   40.2509   12.2545 C   0  0  0  0  0  0  0  0  0  0  0  0
   14.4076   40.3123   11.2415 C   0  0  0  0  0  0  0  0  0  0  0  0
   11.3146   39.3458   13.1921 C   0  0  0  0  0  0  0  0  0  0  0  0
   15.7776   42.3658    8.2336 C   0  0  0  0  0  0  0  0  0  0  0  0
   16.8874   44.0540    9.4023 C   0  0  0  0  0  0  0  0  0  0  0  0
   17.7331   44.4771   10.4300 C   0  0  0  0  0  0  0  0  0  0  0  0
   18.0168   45.8378   10.5846 C   0  0  0  0  0  0  0  0  0  0  0  0
   17.4551   46.7808    9.7164 C   0  0  0  0  0  0  0  0  0  0  0  0
   16.6038   46.3728    8.6846 C   0  0  0  0  0  0  0  0  0  0  0  0
   16.3133   45.0171    8.5157 C   0  0  0  0  0  0  0  0  0  0  0  0
   15.2405   43.2830    7.3740 C   0  0  0  0  0  0  0  0  0  0  0  0
   13.8244   44.4932    4.8761 C   0  0  0  0  0  0  0  0  0  0  0  0
   12.7416   45.2189    4.1468 C   0  0  0  0  0  0  0  0  0  0  0  0
   12.6576   46.6514    4.6425 C   0  0  0  0  0  0  0  0  0  0  0  0
   11.6508   45.6297    5.1194 C   0  0  0  0  0  0  0  0  0  0  0  0
   14.3620   41.3813    6.8742 C   0  0  0  0  0  0  0  0  0  0  0  0
   15.4594   39.6325    8.8108 S   0  0  0  0  0  0  0  0  0  0  0  0
   16.8397   39.5863    9.4034 O   0  0  0  0  0  0  0  0  0  0  0  0
   15.3070   38.4700    7.8700 O   0  0  0  0  0  0  0  0  0  0  0  0
   15.0161   44.8922    4.7809 O   0  0  0  0  0  0  0  0  0  0  0  0
   16.5918   42.7285    9.2545 N   0  0  0  0  0  0  0  0  0  0  0  0
   15.4763   44.6111    7.5152 N   0  0  0  0  0  0  0  0  0  0  0  0
   14.3826   42.6884    6.5212 N   0  0  0  0  0  0  0  0  0  0  0  0
   13.5139   43.2955    5.5968 N   0  0  0  0  0  0  0  0  0  0  0  0
   13.4906   40.4184    6.2888 N   0  0  0  0  0  0  0  0  0  0  0  0
  1  9  1  0
  3  4  2  0
  5  6  2  0
  7  2  2  0
  8  5  1  0
 10 26  2  0
 11 12  2  0
 13 14  2  0
 15 27  2  0
 15 10  1  0
 16 28  1  0
 16  9  2  0
 18 17  1  0
 18 19  1  0
 19 20  1  0
 20 18  1  0
 21 30  1  0
 22  1  1  0
 22  2  1  0
 28 29  1  0
 28 21  1  0
 29 17  1  0
  2  3  1  0
  4  5  1  0
  6  7  1  0
  9 26  1  0
 10 11  1  0
 12 13  1  0
 14 15  1  0
 16 27  1  0
 17 25  2  0
 21  1  2  0
 22 23  2  0
 22 24  2  0
M  END
>  <rmsd>  (1) 
0.225087047

$$$$
