Molport-047-072-371 PubChem-132765989
     RDKit          3D

 28 31  0  0  0  0  0  0  0  0999 V2000
   17.5965   43.1540    8.1843 C   0  0  0  0  0  0  0  0  0  0  0  0
   16.2266   42.6425    7.9204 C   0  0  0  0  0  0  0  0  0  0  0  0
   14.2314   42.7175    6.6484 C   0  0  0  0  0  0  0  0  0  0  0  0
   13.8724   44.3167    4.7027 C   0  0  0  0  0  0  0  0  0  0  0  0
   14.1449   46.0242    3.0163 C   0  0  0  0  0  0  0  0  0  0  0  0
   13.6900   41.6972    7.4297 C   0  0  0  0  0  0  0  0  0  0  0  0
   14.4605   41.1664    8.4640 C   0  0  0  0  0  0  0  0  0  0  0  0
   13.9007   40.0732    9.3120 C   0  0  2  0  0  0  0  0  0  0  0  0
   13.8028   40.5146   10.7750 C   0  0  0  0  0  0  0  0  0  0  0  0
   13.3014   39.4013   11.7091 C   0  0  0  0  0  0  0  0  0  0  0  0
   13.1811   38.0421   11.0179 C   0  0  0  0  0  0  0  0  0  0  0  0
   14.7476   38.8038    9.1876 C   0  0  0  0  0  0  0  0  0  0  0  0
   15.1032   36.5679   10.2601 C   0  0  0  0  0  0  0  0  0  0  0  0
   15.1003   35.6934   11.4482 C   0  0  0  0  0  0  0  0  0  0  0  0
   14.5754   36.0342   12.6197 C   0  0  0  0  0  0  0  0  0  0  0  0
   14.6047   35.1182   13.7607 C   0  0  0  0  0  0  0  0  0  0  0  0
   14.0818   35.3992   15.0025 C   0  0  0  0  0  0  0  0  0  0  0  0
   14.3317   34.2639   15.7541 C   0  0  0  0  0  0  0  0  0  0  0  0
   14.9872   33.3727   14.9212 C   0  0  0  0  0  0  0  0  0  0  0  0
   15.4883   43.1697    6.9093 N   0  0  0  0  0  0  0  0  0  0  0  0
   13.4506   43.2707    5.5836 N   0  0  0  0  0  0  0  0  0  0  0  0
   15.0733   44.9274    4.7576 N   0  0  0  0  0  0  0  0  0  0  0  0
   15.2200   45.8686    3.8259 N   0  0  0  0  0  0  0  0  0  0  0  0
   15.7132   41.6481    8.6902 N   0  0  0  0  0  0  0  0  0  0  0  0
   14.3563   37.7977   10.1808 N   0  0  0  0  0  0  0  0  0  0  0  0
   12.9308   44.9412    3.4649 S   0  0  0  0  0  0  0  0  0  0  0  0
   15.8078   36.2107    9.2785 O   0  0  0  0  0  0  0  0  0  0  0  0
   15.1316   33.9200   13.7387 O   0  0  0  0  0  0  0  0  0  0  0  0
  1  2  1  0
  2 24  2  0
  3 20  2  0
  3 21  1  0
  4 26  1  0
  5 26  1  0
  6  7  2  0
  8  7  1  6
  8  9  1  0
  9 10  1  0
 10 11  1  0
 11 25  1  0
 12 25  1  0
 12  8  1  0
 13 14  1  0
 15 16  1  0
 16 28  1  0
 17 18  1  0
 19 28  1  0
 21  4  1  0
 22 23  1  0
 25 13  1  0
  2 20  1  0
  3  6  1  0
  4 22  2  0
  5 23  2  0
  7 24  1  0
 13 27  2  0
 14 15  2  0
 16 17  2  0
 18 19  2  0
M  END
>  <rmsd>  (1) 
0.246579915

$$$$
