MolPort-020-278-713 MCULE-1926765994 PubChem-110255584
     RDKit          3D

 23 25  0  0  0  0  0  0  0  0999 V2000
   17.6023   43.1843    8.1655 C   0  0  0  0  0  0  0  0  0  0  0  0
   16.2339   42.6671    7.9048 C   0  0  0  0  0  0  0  0  0  0  0  0
   14.4744   41.1856    8.4538 C   0  0  0  0  0  0  0  0  0  0  0  0
   13.7003   41.7116    7.4197 C   0  0  0  0  0  0  0  0  0  0  0  0
   14.2363   42.7327    6.6354 C   0  0  0  0  0  0  0  0  0  0  0  0
   13.8453   44.3258    4.6751 C   0  0  0  0  0  0  0  0  0  0  0  0
   12.9530   44.7458    3.6851 C   0  0  0  0  0  0  0  0  0  0  0  0
   13.3304   45.7644    2.8081 C   0  0  0  0  0  0  0  0  0  0  0  0
   14.5903   46.3525    2.9267 C   0  0  0  0  0  0  0  0  0  0  0  0
   15.4569   45.9087    3.9273 C   0  0  0  0  0  0  0  0  0  0  0  0
   13.9198   40.0918    9.3047 C   0  0  2  0  0  0  0  0  0  0  0  0
   13.8195   40.5373   10.7670 C   0  0  0  0  0  0  0  0  0  0  0  0
   13.3663   39.4163   11.7170 C   0  0  0  0  0  0  0  0  0  0  0  0
   13.2058   38.0634   11.0225 C   0  0  0  0  0  0  0  0  0  0  0  0
   14.7688   38.8247    9.1801 C   0  0  0  0  0  0  0  0  0  0  0  0
   15.1047   36.5911   10.2746 C   0  0  0  0  0  0  0  0  0  0  0  0
   14.7213   35.5477   11.2695 C   0  0  0  0  0  0  0  0  0  0  0  0
   15.7255   41.6723    8.6773 N   0  0  0  0  0  0  0  0  0  0  0  0
   15.4920   43.1896    6.8939 N   0  0  0  0  0  0  0  0  0  0  0  0
   13.4495   43.2799    5.5706 N   0  0  0  0  0  0  0  0  0  0  0  0
   15.0705   44.9149    4.7720 N   0  0  0  0  0  0  0  0  0  0  0  0
   14.3537   37.8084   10.1519 N   0  0  0  0  0  0  0  0  0  0  0  0
   16.1052   36.3856    9.5368 O   0  0  0  0  0  0  0  0  0  0  0  0
  1  2  1  0
  2 19  2  0
  3 18  2  0
  4  5  2  0
  5 20  1  0
  6 21  2  0
  7  8  2  0
  9 10  2  0
 11  3  1  6
 11 12  1  0
 12 13  1  0
 13 14  1  0
 14 22  1  0
 15 22  1  0
 15 11  1  0
 17 16  1  0
 20  6  1  0
 22 16  1  0
  2 18  1  0
  3  4  1  0
  5 19  1  0
  6  7  1  0
  8  9  1  0
 10 21  1  0
 16 23  2  0
M  END
>  <rmsd>  (1) 
0.248135343

$$$$
