MolPort-005-042-860 12430712 CHEMBL1307508 CSSS00159470275 MCULE-3771434084 PubChem-24791307 PubChem-44251546 ZINC000012430712
     RDKit          3D

 31 34  0  0  0  0  0  0  0  0999 V2000
    9.8570   42.9276    4.0349 C   0  0  0  0  0  0  0  0  0  0  0  0
   11.7034   44.4579    3.4000 C   0  0  0  0  0  0  0  0  0  0  0  0
   13.0226   44.9293    3.6152 C   0  0  0  0  0  0  0  0  0  0  0  0
   13.5194   45.9552    2.7942 C   0  0  0  0  0  0  0  0  0  0  0  0
   12.7374   46.5074    1.7792 C   0  0  0  0  0  0  0  0  0  0  0  0
   11.4413   46.0416    1.5682 C   0  0  0  0  0  0  0  0  0  0  0  0
   10.9282   45.0246    2.3730 C   0  0  0  0  0  0  0  0  0  0  0  0
   13.9082   44.3863    4.6756 C   0  0  0  0  0  0  0  0  0  0  0  0
   14.2222   42.7154    6.5813 C   0  0  0  0  0  0  0  0  0  0  0  0
   15.4926   43.0712    6.9933 C   0  0  0  0  0  0  0  0  0  0  0  0
   15.7412   42.2049    8.0523 C   0  0  0  0  0  0  0  0  0  0  0  0
   12.4405   41.0954    7.2336 C   0  0  0  0  0  0  0  0  0  0  0  0
   12.5345   39.5607    7.2522 C   0  0  0  0  0  0  0  0  0  0  0  0
   12.2411   38.9613    8.6304 C   0  0  0  0  0  0  0  0  0  0  0  0
   12.4752   39.2226   10.9529 C   0  0  0  0  0  0  0  0  0  0  0  0
   13.8484   38.8067   11.4525 C   0  0  0  0  0  0  0  0  0  0  0  0
   14.6565   40.0335   11.8452 C   0  0  0  0  0  0  0  0  0  0  0  0
   16.0606   39.6560   12.1701 C   0  0  0  0  0  0  0  0  0  0  0  0
   16.3468   38.8718   13.2955 C   0  0  0  0  0  0  0  0  0  0  0  0
   17.6703   38.5371   13.5973 C   0  0  0  0  0  0  0  0  0  0  0  0
   18.7100   38.9892   12.7787 C   0  0  0  0  0  0  0  0  0  0  0  0
   18.4266   39.7778   11.6595 C   0  0  0  0  0  0  0  0  0  0  0  0
   17.1032   40.1127   11.3568 C   0  0  0  0  0  0  0  0  0  0  0  0
   11.6117   40.9886    9.6717 C   0  0  0  0  0  0  0  0  0  0  0  0
   11.4835   41.6618    8.2931 C   0  0  0  0  0  0  0  0  0  0  0  0
   11.1730   43.4388    4.2008 O   0  0  0  0  0  0  0  0  0  0  0  0
   15.0606   44.8762    4.8308 O   0  0  0  0  0  0  0  0  0  0  0  0
   13.4687   43.3132    5.5186 N   0  0  0  0  0  0  0  0  0  0  0  0
   14.6754   41.3981    8.2407 N   0  0  0  0  0  0  0  0  0  0  0  0
   13.7618   41.7108    7.3390 N   0  0  0  0  0  0  0  0  0  0  0  0
   12.5994   39.9102    9.6785 N   0  0  0  0  0  0  0  0  0  0  0  0
  1 26  1  0
  2 26  1  0
  3  4  2  0
  3  8  1  0
  5  6  2  0
  7  2  2  0
  8 28  1  0
 10 11  1  0
 12 30  1  0
 12 13  1  0
 13 14  1  0
 14 31  1  0
 15 31  1  0
 15 16  1  0
 16 17  1  0
 17 18  1  0
 19 20  2  0
 21 22  2  0
 23 18  2  0
 24 31  1  0
 24 25  1  0
 25 12  1  0
 28  9  1  0
 30 29  1  0
 30  9  1  0
  2  3  1  0
  4  5  1  0
  6  7  1  0
  8 27  2  0
  9 10  2  0
 11 29  2  0
 18 19  1  0
 20 21  1  0
 22 23  1  0
M  END
>  <rmsd>  (1) 
0.211161926

$$$$
