MolPort-002-625-187 9359837 PubChem-2044515 ZINC000009359837 ZINC09359837
     RDKit          3D

 26 29  0  0  0  0  0  0  0  0999 V2000
   14.2913   38.7764   11.6936 C   0  0  0  0  0  0  0  0  0  0  0  0
   13.0451   39.4409   11.1394 C   0  0  0  0  0  0  0  0  0  0  0  0
   13.3333   40.0599    9.7837 C   0  0  0  0  0  0  0  0  0  0  0  0
   14.1283   41.3448    9.9459 C   0  0  0  0  0  0  0  0  0  0  0  0
   14.1607   42.8252    6.6910 C   0  0  0  0  0  0  0  0  0  0  0  0
   14.0220   44.2087    4.5505 C   0  0  0  0  0  0  0  0  0  0  0  0
   13.3245   44.3872    3.2679 C   0  0  0  0  0  0  0  0  0  0  0  0
   11.5078   43.8210    1.8388 C   0  0  0  0  0  0  0  0  0  0  0  0
   11.9785   44.6926    0.8548 C   0  0  0  0  0  0  0  0  0  0  0  0
   13.1453   45.4202    1.0916 C   0  0  0  0  0  0  0  0  0  0  0  0
   13.8247   45.2701    2.3016 C   0  0  0  0  0  0  0  0  0  0  0  0
   15.5242   42.6372    6.8570 C   0  0  0  0  0  0  0  0  0  0  0  0
   16.6367   42.8333    6.0449 C   0  0  0  0  0  0  0  0  0  0  0  0
   17.8846   42.4585    6.5723 C   0  0  0  0  0  0  0  0  0  0  0  0
   19.0492   42.6378    5.8226 C   0  0  0  0  0  0  0  0  0  0  0  0
   20.2865   42.2598    6.3534 C   0  0  0  0  0  0  0  0  0  0  0  0
   20.3650   41.7002    7.6333 C   0  0  0  0  0  0  0  0  0  0  0  0
   19.2071   41.5127    8.3949 C   0  0  0  0  0  0  0  0  0  0  0  0
   17.9635   41.8864    7.8800 C   0  0  0  0  0  0  0  0  0  0  0  0
   15.6396   42.0758    8.0951 C   0  0  0  0  0  0  0  0  0  0  0  0
   14.4248   41.9160    8.6416 N   0  0  0  0  0  0  0  0  0  0  0  0
   13.5100   42.3643    7.7879 N   0  0  0  0  0  0  0  0  0  0  0  0
   13.4780   43.3181    5.5318 N   0  0  0  0  0  0  0  0  0  0  0  0
   12.1834   43.6879    3.0119 N   0  0  0  0  0  0  0  0  0  0  0  0
   16.8310   41.6950    8.6208 N   0  0  0  0  0  0  0  0  0  0  0  0
   15.0641   44.8735    4.7988 O   0  0  0  0  0  0  0  0  0  0  0  0
  1  2  1  0
  2  3  1  0
  3  4  1  0
  4 21  1  0
  5 23  1  0
  5 12  1  0
  6  7  1  0
  8 24  2  0
  9 10  2  0
 11  7  2  0
 13 14  2  0
 15 16  2  0
 17 18  2  0
 19 25  2  0
 19 14  1  0
 20 21  1  0
 20 12  2  0
 21 22  1  0
 23  6  1  0
  5 22  2  0
  6 26  2  0
  7 24  1  0
  8  9  1  0
 10 11  1  0
 12 13  1  0
 14 15  1  0
 16 17  1  0
 18 19  1  0
 20 25  1  0
M  END
>  <rmsd>  (1) 
0.247805923

$$$$
