MolPort-002-774-665 36613764 CHEMBL4969407 CSSS00132998851 MCULE-8260149572 PubChem-19590890 ZINC000036613764 ZINC36613764
     RDKit          3D

 21 23  0  0  0  0  0  0  0  0999 V2000
   12.9885   38.5943   10.9462 C   0  0  0  0  0  0  0  0  0  0  0  0
   13.6767   39.8429   11.4651 C   0  0  0  0  0  0  0  0  0  0  0  0
   13.7469   40.8999   10.3779 C   0  0  0  0  0  0  0  0  0  0  0  0
   14.8240   40.5482    9.3649 C   0  0  0  0  0  0  0  0  0  0  0  0
   14.3200   42.7777    6.6518 C   0  0  0  0  0  0  0  0  0  0  0  0
   13.8922   44.3414    4.6839 C   0  0  0  0  0  0  0  0  0  0  0  0
   12.9541   44.7790    3.6442 C   0  0  0  0  0  0  0  0  0  0  0  0
   11.2358   45.0112    2.3673 C   0  0  0  0  0  0  0  0  0  0  0  0
   11.6862   44.2640    3.4411 C   0  0  0  0  0  0  0  0  0  0  0  0
    9.9173   44.8324    1.6866 C   0  0  0  0  0  0  0  0  0  0  0  0
    9.2013   46.1669    1.5825 C   0  0  0  0  0  0  0  0  0  0  0  0
    8.7904   45.1732    2.6450 C   0  0  0  0  0  0  0  0  0  0  0  0
   15.6100   43.1854    6.9723 C   0  0  0  0  0  0  0  0  0  0  0  0
   15.9161   42.3705    8.0458 C   0  0  0  0  0  0  0  0  0  0  0  0
   17.2063   42.3845    8.7911 C   0  0  0  0  0  0  0  0  0  0  0  0
   14.8777   41.5607    8.3207 N   0  0  0  0  0  0  0  0  0  0  0  0
   13.8953   41.7973    7.4707 N   0  0  0  0  0  0  0  0  0  0  0  0
   13.5096   43.3015    5.5936 N   0  0  0  0  0  0  0  0  0  0  0  0
   13.2295   45.7445    2.7477 N   0  0  0  0  0  0  0  0  0  0  0  0
   12.1775   45.8828    1.9600 N   0  0  0  0  0  0  0  0  0  0  0  0
   15.0261   44.8855    4.7663 O   0  0  0  0  0  0  0  0  0  0  0  0
  1  2  1  0
  2  3  1  0
  3  4  1  0
  4 16  1  0
  5 18  1  0
  5 13  1  0
  6  7  1  0
  9  7  1  0
 10  8  1  0
 10 11  1  0
 11 12  1  0
 12 10  1  0
 14 16  1  0
 15 14  1  0
 16 17  1  0
 18  6  1  0
 20 19  1  0
 20  8  1  0
  5 17  2  0
  6 21  2  0
  7 19  2  0
  8  9  2  0
 13 14  2  0
M  END
>  <rmsd>  (1) 
0.163212791

$$$$
