MolPort-003-020-506 4087324 CHEMBL1459600 CSSS03437084380 LN01391650 MCULE-9036670436 PubChem-4617706 ZINC000004087324
     RDKit          3D

 25 27  0  0  0  0  0  0  0  0999 V2000
   14.2495   42.7309    6.6108 C   0  0  0  0  0  0  0  0  0  0  0  0
   13.8465   44.4808    4.8085 C   0  0  0  0  0  0  0  0  0  0  0  0
   12.8313   45.1527    3.9219 C   0  0  0  0  0  0  0  0  0  0  0  0
   13.1924   46.6096    3.6842 C   0  0  0  0  0  0  0  0  0  0  0  0
   12.7801   44.4368    2.5868 C   0  0  0  0  0  0  0  0  0  0  0  0
   11.4533   45.1065    4.5579 C   0  0  0  0  0  0  0  0  0  0  0  0
   15.2567   41.1960    8.3000 C   0  0  0  0  0  0  0  0  0  0  0  0
   15.5352   42.5379    8.5490 C   0  0  0  0  0  0  0  0  0  0  0  0
   16.3276   43.0015    9.7273 C   0  0  0  0  0  0  0  0  0  0  0  0
   14.9646   43.4077    7.6029 C   0  0  0  0  0  0  0  0  0  0  0  0
   15.0190   44.8437    7.7260 C   0  0  0  0  0  0  0  0  0  0  0  0
   15.6525   40.0384    9.1577 C   0  0  0  0  0  0  0  0  0  0  0  0
   14.5829   39.7327   10.1506 C   0  0  0  0  0  0  0  0  0  0  0  0
   14.5922   40.3673   11.4137 C   0  0  0  0  0  0  0  0  0  0  0  0
   13.5772   40.1065   12.3520 C   0  0  0  0  0  0  0  0  0  0  0  0
   12.5766   39.2111   11.9831 C   0  0  0  0  0  0  0  0  0  0  0  0
   12.5632   38.6039   10.7690 C   0  0  0  0  0  0  0  0  0  0  0  0
   10.7362   37.8696   11.9151 C   0  0  0  0  0  0  0  0  0  0  0  0
   13.5498   38.8367    9.8145 C   0  0  0  0  0  0  0  0  0  0  0  0
   13.4811   43.3093    5.5492 N   0  0  0  0  0  0  0  0  0  0  0  0
   15.0623   45.9957    7.8272 N   0  0  0  0  0  0  0  0  0  0  0  0
   15.0455   44.8753    4.8076 O   0  0  0  0  0  0  0  0  0  0  0  0
   11.4611   37.7774   10.6804 O   0  0  0  0  0  0  0  0  0  0  0  0
   11.4836   38.7953   12.7169 O   0  0  0  0  0  0  0  0  0  0  0  0
   14.2837   41.0824    6.9326 S   0  0  0  0  0  0  0  0  0  0  0  0
  1 20  1  0
  1 25  1  0
  3  2  1  0
  3  4  1  0
  3  5  1  0
  3  6  1  0
  7 25  1  0
  8 10  1  0
  9  8  1  0
 10 11  1  0
 12  7  1  0
 12 13  1  0
 14 15  2  0
 16 17  2  0
 16 24  1  0
 17 23  1  0
 18 23  1  0
 18 24  1  0
 19 13  2  0
 20  2  1  0
  2 22  2  0
  7  8  2  0
 10  1  2  0
 13 14  1  0
 15 16  1  0
 17 19  1  0
 11 21  3  0
M  END
>  <rmsd>  (1) 
0.248034239

$$$$
