MolPort-002-774-359 36613522 CSSS00132994710 MCULE-5866297063 PubChem-44821590 ZINC000036613522 ZINC36613522
     RDKit          3D

 30 33  0  0  0  0  0  0  0  0999 V2000
   13.0690   39.5206   12.0418 C   0  0  0  0  0  0  0  0  0  0  0  0
   14.0637   39.3669   10.9104 C   0  0  0  0  0  0  0  0  0  0  0  0
   14.9133   40.2147    9.0591 C   0  0  0  0  0  0  0  0  0  0  0  0
   13.8481   41.5942    7.2862 C   0  0  0  0  0  0  0  0  0  0  0  0
   14.2667   42.6537    6.5142 C   0  0  0  0  0  0  0  0  0  0  0  0
   13.8910   44.4125    4.7095 C   0  0  0  0  0  0  0  0  0  0  0  0
   12.9695   45.0032    3.7161 C   0  0  0  0  0  0  0  0  0  0  0  0
   11.6657   44.5397    3.5085 C   0  0  0  0  0  0  0  0  0  0  0  0
   10.9140   43.5233    4.0800 C   0  0  0  0  0  0  0  0  0  0  0  0
    8.5265   44.8092    1.7315 C   0  0  0  0  0  0  0  0  0  0  0  0
   10.8542   45.1165    2.5814 C   0  0  0  0  0  0  0  0  0  0  0  0
   12.5077   46.6641    1.9595 C   0  0  0  0  0  0  0  0  0  0  0  0
   13.3840   46.0890    2.9165 C   0  0  0  0  0  0  0  0  0  0  0  0
   12.9493   47.8020    1.1251 C   0  0  0  0  0  0  0  0  0  0  0  0
   14.2402   48.3368    1.2605 C   0  0  0  0  0  0  0  0  0  0  0  0
   14.6487   49.4123    0.4676 C   0  0  0  0  0  0  0  0  0  0  0  0
   13.7706   49.9704   -0.4746 C   0  0  0  0  0  0  0  0  0  0  0  0
   15.4347   51.6463   -1.2098 C   0  0  0  0  0  0  0  0  0  0  0  0
   12.4847   49.4399   -0.6116 C   0  0  0  0  0  0  0  0  0  0  0  0
   12.0763   48.3640    0.1818 C   0  0  0  0  0  0  0  0  0  0  0  0
   15.5693   42.9499    6.8725 C   0  0  0  0  0  0  0  0  0  0  0  0
   13.9718   40.4659   10.0579 O   0  0  0  0  0  0  0  0  0  0  0  0
   15.0524   44.8873    4.8377 O   0  0  0  0  0  0  0  0  0  0  0  0
   14.1486   51.0462   -1.2826 O   0  0  0  0  0  0  0  0  0  0  0  0
   14.8900   41.2870    8.0792 N   0  0  0  0  0  0  0  0  0  0  0  0
   13.4695   43.3087    5.5219 N   0  0  0  0  0  0  0  0  0  0  0  0
    9.6939   43.5307    3.4789 N   0  0  0  0  0  0  0  0  0  0  0  0
    9.6688   44.4998    2.5730 N   0  0  0  0  0  0  0  0  0  0  0  0
   11.2431   46.1598    1.8087 N   0  0  0  0  0  0  0  0  0  0  0  0
   15.9206   42.0825    7.8418 N   0  0  0  0  0  0  0  0  0  0  0  0
  1  2  1  0
  2 22  1  0
  3 22  1  0
  3 25  1  0
  5 26  1  0
  5 21  1  0
  6  7  1  0
  8  9  1  0
 10 28  1  0
 11  8  2  0
 12 29  2  0
 12 14  1  0
 13  7  2  0
 15 16  2  0
 17 24  1  0
 17 19  2  0
 18 24  1  0
 20 14  2  0
 25  4  1  0
 25 30  1  0
 26  6  1  0
 28 27  1  0
 28 11  1  0
  4  5  2  0
  6 23  2  0
  7  8  1  0
  9 27  2  0
 11 29  1  0
 12 13  1  0
 14 15  1  0
 16 17  1  0
 19 20  1  0
 21 30  2  0
M  END
>  <rmsd>  (1) 
0.238755152

$$$$
