Molport-052-049-202 MCULE-4619615168 PubChem-110093683
     RDKit          3D

 27 30  0  0  0  0  0  0  0  0999 V2000
   12.8920   39.3455   11.4788 C   0  0  0  0  0  0  0  0  0  0  0  0
   13.5769   40.4617   10.6939 C   0  0  0  0  0  0  0  0  0  0  0  0
   13.7343   40.0604    9.2254 C   0  0  2  0  0  0  0  0  0  0  0  0
   14.5140   38.7500    9.1040 C   0  0  0  0  0  0  0  0  0  0  0  0
   13.6971   38.0553   11.3592 C   0  0  0  0  0  0  0  0  0  0  0  0
   13.3369   36.5462    9.3503 C   0  0  0  0  0  0  0  0  0  0  0  0
   13.0498   35.3223   10.1354 C   0  0  0  0  0  0  0  0  0  0  0  0
   12.2032   34.3371    9.6032 C   0  0  0  0  0  0  0  0  0  0  0  0
   11.9411   33.1638   10.3166 C   0  0  0  0  0  0  0  0  0  0  0  0
   12.5298   32.9607   11.5671 C   0  0  0  0  0  0  0  0  0  0  0  0
   13.3828   33.9289   12.1020 C   0  0  0  0  0  0  0  0  0  0  0  0
   13.6440   35.1016   11.3874 C   0  0  0  0  0  0  0  0  0  0  0  0
   14.3898   41.1491    8.4370 C   0  0  0  0  0  0  0  0  0  0  0  0
   14.2466   42.7216    6.6519 C   0  0  0  0  0  0  0  0  0  0  0  0
   15.5437   43.1729    6.9314 C   0  0  0  0  0  0  0  0  0  0  0  0
   16.2635   42.5981    7.9787 C   0  0  0  0  0  0  0  0  0  0  0  0
   15.6885   41.5804    8.7388 C   0  0  0  0  0  0  0  0  0  0  0  0
   13.8423   44.3234    4.6802 C   0  0  0  0  0  0  0  0  0  0  0  0
   15.4151   45.9137    3.8898 C   0  0  0  0  0  0  0  0  0  0  0  0
   14.5096   46.3241    2.9106 C   0  0  0  0  0  0  0  0  0  0  0  0
   12.9387   44.7368    3.6988 C   0  0  0  0  0  0  0  0  0  0  0  0
   13.8952   37.7312    9.9479 N   0  0  0  0  0  0  0  0  0  0  0  0
   13.7094   41.7268    7.4099 N   0  0  0  0  0  0  0  0  0  0  0  0
   13.4637   43.2786    5.5864 N   0  0  0  0  0  0  0  0  0  0  0  0
   15.0622   44.9240    4.7517 N   0  0  0  0  0  0  0  0  0  0  0  0
   13.2911   45.7267    2.8365 N   0  0  0  0  0  0  0  0  0  0  0  0
   13.0898   36.5430    8.1127 O   0  0  0  0  0  0  0  0  0  0  0  0
  1  2  1  0
  2  3  1  0
  3  4  1  0
  3 13  1  6
  4 22  1  0
  5 22  1  0
  5  1  1  0
  6  7  1  0
  8  9  2  0
 10 11  2  0
 12  7  2  0
 14 23  2  0
 14 24  1  0
 15 16  2  0
 17 13  2  0
 19 25  2  0
 20 26  2  0
 21 18  2  0
 22  6  1  0
 24 18  1  0
  6 27  2  0
  7  8  1  0
  9 10  1  0
 11 12  1  0
 13 23  1  0
 14 15  1  0
 16 17  1  0
 18 25  1  0
 19 20  1  0
 21 26  1  0
M  END
>  <rmsd>  (1) 
0.244887888

$$$$
