MolPort-039-210-464 CSSS03436984975 MCULE-9477908329 PubChem-121017021
     RDKit          3D

 17 18  0  0  0  0  0  0  0  0999 V2000
   13.3799   45.9168    6.5643 C   0  0  0  0  0  0  0  0  0  0  0  0
   14.2127   42.5356    6.6241 C   0  0  0  0  0  0  0  0  0  0  0  0
   14.0410   41.2320    7.0287 C   0  0  0  0  0  0  0  0  0  0  0  0
   15.1637   39.7736    8.6965 C   0  0  0  0  0  0  0  0  0  0  0  0
   14.5840   39.8874   10.0976 C   0  0  1  0  0  0  0  0  0  0  0  0
   13.0460   39.9113   10.0433 C   0  0  0  0  0  0  0  0  0  0  0  0
   12.4282   39.0168   11.1211 C   0  0  0  0  0  0  0  0  0  0  0  0
   13.1950   39.1141   12.4423 C   0  0  0  0  0  0  0  0  0  0  0  0
   14.7154   39.1492   12.2169 C   0  0  0  0  0  0  0  0  0  0  0  0
   15.2627   43.0723    7.3455 C   0  0  0  0  0  0  0  0  0  0  0  0
   13.6986   44.8487    5.1795 S   0  0  0  0  0  0  0  0  0  0  0  0
   12.7660   45.2090    4.0583 O   0  0  0  0  0  0  0  0  0  0  0  0
   15.1170   45.0200    4.7139 O   0  0  0  0  0  0  0  0  0  0  0  0
   15.0484   38.8217   10.8894 O   0  0  0  0  0  0  0  0  0  0  0  0
   13.4280   43.2001    5.6334 N   0  0  0  0  0  0  0  0  0  0  0  0
   14.9804   41.0179    7.9666 N   0  0  0  0  0  0  0  0  0  0  0  0
   15.7114   42.1037    8.1674 N   0  0  0  0  0  0  0  0  0  0  0  0
  1 11  1  0
  3 16  1  0
  4 16  1  0
  5  4  1  6
  5  6  1  0
  5 14  1  0
  6  7  1  0
  7  8  1  0
  8  9  1  0
  9 14  1  0
 10  2  1  0
 11 15  1  0
 15  2  1  0
 16 17  1  0
  2  3  2  0
 10 17  2  0
 11 12  2  0
 11 13  2  0
M  END
>  <rmsd>  (1) 
0.234140739

$$$$
