MolPort-003-112-226 8959242 CSSS03437111492 IFPSXIOGDDLVEH-UHFFFAOYSA-N MCULE-9135975262 PubChem-40887138 ZINC000008959242 ZINC08959242
     RDKit          3D

 34 36  0  0  0  0  0  0  0  0999 V2000
    9.1055   43.0819    3.2224 C   0  0  0  0  0  0  0  0  0  0  0  0
   10.8203   44.7146    2.4843 C   0  0  0  0  0  0  0  0  0  0  0  0
   11.7102   44.2758    3.4777 C   0  0  0  0  0  0  0  0  0  0  0  0
   12.9785   44.8440    3.6161 C   0  0  0  0  0  0  0  0  0  0  0  0
   13.3629   45.8673    2.7469 C   0  0  0  0  0  0  0  0  0  0  0  0
   12.4946   46.3254    1.7456 C   0  0  0  0  0  0  0  0  0  0  0  0
   14.1508   47.9840    0.9433 C   0  0  0  0  0  0  0  0  0  0  0  0
   11.2180   45.7545    1.6057 C   0  0  0  0  0  0  0  0  0  0  0  0
    9.0810   45.8040    0.2954 C   0  0  0  0  0  0  0  0  0  0  0  0
   13.8975   44.3695    4.6657 C   0  0  0  0  0  0  0  0  0  0  0  0
   14.2488   42.7372    6.6156 C   0  0  0  0  0  0  0  0  0  0  0  0
   15.5529   43.1546    6.9054 C   0  0  0  0  0  0  0  0  0  0  0  0
   16.2886   42.5749    7.9448 C   0  0  0  0  0  0  0  0  0  0  0  0
   15.6890   41.5652    8.7430 C   0  0  0  0  0  0  0  0  0  0  0  0
   14.3892   41.1409    8.4261 C   0  0  0  0  0  0  0  0  0  0  0  0
   13.6777   41.7173    7.3745 C   0  0  0  0  0  0  0  0  0  0  0  0
   16.1920   39.5581   10.1670 C   0  0  0  0  0  0  0  0  0  0  0  0
   15.3415   39.3080   11.4104 C   0  0  0  0  0  0  0  0  0  0  0  0
   13.8678   39.5668   11.1491 C   0  0  0  0  0  0  0  0  0  0  0  0
   13.2658   38.4146   10.3678 C   0  0  0  0  0  0  0  0  0  0  0  0
   13.1422   39.7038   12.4705 C   0  0  0  0  0  0  0  0  0  0  0  0
   17.0731   41.8069   10.8184 C   0  0  0  0  0  0  0  0  0  0  0  0
   18.2981   42.5688   10.4008 C   0  0  0  0  0  0  0  0  0  0  0  0
   18.1307   44.0473   10.7160 C   0  0  0  0  0  0  0  0  0  0  0  0
   19.4939   42.0458   11.1738 C   0  0  0  0  0  0  0  0  0  0  0  0
   18.5852   42.3790    8.9184 C   0  0  0  0  0  0  0  0  0  0  0  0
    9.5554   44.1264    2.3693 O   0  0  0  0  0  0  0  0  0  0  0  0
   12.8801   47.3509    0.8745 O   0  0  0  0  0  0  0  0  0  0  0  0
   10.3955   46.2583    0.5838 O   0  0  0  0  0  0  0  0  0  0  0  0
   15.0398   44.8918    4.7795 O   0  0  0  0  0  0  0  0  0  0  0  0
   16.7030   41.8502   12.0241 O   0  0  0  0  0  0  0  0  0  0  0  0
   17.6066   43.0171    8.1071 O   0  0  0  0  0  0  0  0  0  0  0  0
   13.4838   43.3163    5.5500 N   0  0  0  0  0  0  0  0  0  0  0  0
   16.3471   40.9875    9.8872 N   0  0  0  0  0  0  0  0  0  0  0  0
  1 27  1  0
  2 27  1  0
  3  4  2  0
  4 10  1  0
  5  6  2  0
  6 28  1  0
  7 28  1  0
  8 29  1  0
  8  2  2  0
  9 29  1  0
 10 33  1  0
 12 13  2  0
 13 32  1  0
 14 15  2  0
 14 34  1  0
 16 11  2  0
 17 34  1  0
 17 18  1  0
 18 19  1  0
 19 20  1  0
 19 21  1  0
 23 22  1  0
 23 24  1  0
 23 25  1  0
 23 26  1  0
 26 32  1  0
 33 11  1  0
 34 22  1  0
  2  3  1  0
  4  5  1  0
  6  8  1  0
 10 30  2  0
 11 12  1  0
 13 14  1  0
 15 16  1  0
 22 31  2  0
M  END
>  <rmsd>  (1) 
0.231041625

$$$$
