MolPort-035-884-037 5462314 PubChem-6013747 ZINC000005462314 ZINC05462314
     RDKit          3D

 23 24  0  0  0  0  0  0  0  0999 V2000
   19.1971   40.1229    4.4949 C   0  0  0  0  0  0  0  0  0  0  0  0
   18.6425   41.5306    4.4307 C   0  0  0  0  0  0  0  0  0  0  0  0
   16.4219   42.0810    5.3413 C   0  0  0  0  0  0  0  0  0  0  0  0
   15.5607   42.2717    6.5186 C   0  0  0  0  0  0  0  0  0  0  0  0
   15.8639   41.8532    7.8014 C   0  0  0  0  0  0  0  0  0  0  0  0
   14.2600   42.7542    6.5935 C   0  0  0  0  0  0  0  0  0  0  0  0
   13.9543   44.2907    4.6040 C   0  0  0  0  0  0  0  0  0  0  0  0
   13.1470   44.6390    3.4220 C   0  0  0  0  0  0  0  0  0  0  0  0
   11.9175   44.0047    3.1919 C   0  0  0  0  0  0  0  0  0  0  0  0
   11.1519   44.3326    2.0691 C   0  0  0  0  0  0  0  0  0  0  0  0
   11.6107   45.2971    1.1679 C   0  0  0  0  0  0  0  0  0  0  0  0
   12.8350   45.9336    1.3891 C   0  0  0  0  0  0  0  0  0  0  0  0
   13.6006   45.6056    2.5119 C   0  0  0  0  0  0  0  0  0  0  0  0
   14.6576   41.7612    9.9718 C   0  0  0  0  0  0  0  0  0  0  0  0
   14.0530   40.4066   10.1261 C   0  0  0  0  0  0  0  0  0  0  0  0
   13.8525   39.9026   11.3389 C   0  0  0  0  0  0  0  0  0  0  0  0
   13.2488   38.5502   11.4921 C   0  0  0  0  0  0  0  0  0  0  0  0
   17.7646   41.7448    5.5257 O   0  0  0  0  0  0  0  0  0  0  0  0
   15.9458   42.1831    4.1782 O   0  0  0  0  0  0  0  0  0  0  0  0
   15.0531   44.8755    4.8110 O   0  0  0  0  0  0  0  0  0  0  0  0
   14.7772   42.0921    8.5625 N   0  0  0  0  0  0  0  0  0  0  0  0
   13.7966   42.6181    7.8467 N   0  0  0  0  0  0  0  0  0  0  0  0
   13.4752   43.3133    5.5353 N   0  0  0  0  0  0  0  0  0  0  0  0
  1  2  1  0
  2 18  1  0
  3 18  1  0
  3  4  1  0
  5 21  1  0
  6 23  1  0
  6  4  1  0
  7  8  1  0
  9 10  2  0
 11 12  2  0
 13  8  2  0
 14 21  1  0
 14 15  1  0
 17 16  1  0
 21 22  1  0
 23  7  1  0
  3 19  2  0
  4  5  2  0
  6 22  2  0
  7 20  2  0
  8  9  1  0
 10 11  1  0
 12 13  1  0
 15 16  2  0
M  END
>  <rmsd>  (1) 
0.185133532

$$$$
