MolPort-001-982-606 203121 CHEMBL1566340 CSSS00159737014 ChemDiv-5254-2769 MCULE-4065647770 PubChem-752229 ZINC000000203121 ZINC00203121
     RDKit          3D

 22 25  0  0  0  0  0  0  0  0999 V2000
   12.8603   44.9781    3.8213 C   0  0  0  0  0  0  0  0  0  0  0  0
   13.8647   44.4019    4.7524 C   0  0  0  0  0  0  0  0  0  0  0  0
   14.3745   42.6509    6.5149 C   0  0  0  0  0  0  0  0  0  0  0  0
   14.0609   41.5879    7.3253 C   0  0  0  0  0  0  0  0  0  0  0  0
   12.7751   40.8691    7.4182 C   0  0  0  0  0  0  0  0  0  0  0  0
   10.7630   40.3121    7.0481 C   0  0  0  0  0  0  0  0  0  0  0  0
    9.4540   40.1998    6.5866 C   0  0  0  0  0  0  0  0  0  0  0  0
    8.6444   39.2068    7.1698 C   0  0  0  0  0  0  0  0  0  0  0  0
    9.1554   38.3663    8.1846 C   0  0  0  0  0  0  0  0  0  0  0  0
   10.4830   38.5069    8.6291 C   0  0  0  0  0  0  0  0  0  0  0  0
   11.2555   39.4994    8.0265 C   0  0  0  0  0  0  0  0  0  0  0  0
   13.4115   39.2570    9.2756 C   0  0  0  0  0  0  0  0  0  0  0  0
   13.2654   40.0085   10.5853 C   0  0  0  0  0  0  0  0  0  0  0  0
   12.5572   39.1234   11.5897 C   0  0  0  0  0  0  0  0  0  0  0  0
   14.0598   39.2915   11.6562 C   0  0  0  0  0  0  0  0  0  0  0  0
   15.0217   44.8970    4.8000 O   0  0  0  0  0  0  0  0  0  0  0  0
   16.0685   42.1627    7.6578 O   0  0  0  0  0  0  0  0  0  0  0  0
   13.5007   43.2935    5.5801 N   0  0  0  0  0  0  0  0  0  0  0  0
   15.6520   42.9963    6.7453 N   0  0  0  0  0  0  0  0  0  0  0  0
   15.1641   41.3026    8.0396 N   0  0  0  0  0  0  0  0  0  0  0  0
   11.7016   41.1881    6.6451 N   0  0  0  0  0  0  0  0  0  0  0  0
   12.5303   39.8348    8.2681 N   0  0  0  0  0  0  0  0  0  0  0  0
  1  2  1  0
  2 18  1  0
  4  5  1  0
  4  3  1  0
  6 21  1  0
  7  8  2  0
  9 10  2  0
 11 22  1  0
 11  6  2  0
 12 22  1  0
 12 13  1  0
 13 14  1  0
 14 15  1  0
 15 13  1  0
 17 20  1  0
 18  3  1  0
 19 17  1  0
 22  5  1  0
  2 16  2  0
  3 19  2  0
  4 20  2  0
  5 21  2  0
  6  7  1  0
  8  9  1  0
 10 11  1  0
M  END
>  <rmsd>  (1) 
0.247106656

$$$$
