MolPort-003-112-240 8959267 CSSS03436958108 MCULE-7209072938 PubChem-40887163 VPMSTIFGMPMPIM-UHFFFAOYSA-N ZINC000008959267
     RDKit          3D

 25 27  0  0  0  0  0  0  0  0999 V2000
   16.3761   40.8986    9.8182 N   0  0  0  0  0  0  0  0  0  0  0  0
   13.4818   43.3145    5.5476 N   0  0  0  0  0  0  0  0  0  0  0  0
   16.1687   39.4778   10.1078 C   0  0  0  0  0  0  0  0  0  0  0  0
   15.3459   39.2671   11.3770 C   0  0  0  0  0  0  0  0  0  0  0  0
   13.8772   39.5875   11.1588 C   0  0  0  0  0  0  0  0  0  0  0  0
   13.1981   39.7588   12.5007 C   0  0  0  0  0  0  0  0  0  0  0  0
   13.2040   38.4595   10.4007 C   0  0  0  0  0  0  0  0  0  0  0  0
   15.7076   41.4991    8.6909 C   0  0  0  0  0  0  0  0  0  0  0  0
   14.3847   41.1216    8.4114 C   0  0  0  0  0  0  0  0  0  0  0  0
   13.6659   41.7191    7.3767 C   0  0  0  0  0  0  0  0  0  0  0  0
   14.2526   42.7144    6.5973 C   0  0  0  0  0  0  0  0  0  0  0  0
   15.5788   43.0844    6.8486 C   0  0  0  0  0  0  0  0  0  0  0  0
   16.3211   42.4825    7.8706 C   0  0  0  0  0  0  0  0  0  0  0  0
   18.6340   42.1980    8.7735 C   0  0  0  0  0  0  0  0  0  0  0  0
   18.4047   42.4046   10.2632 C   0  0  0  0  0  0  0  0  0  0  0  0
   18.2962   43.8893   10.5762 C   0  0  0  0  0  0  0  0  0  0  0  0
   19.6078   41.8460   10.9991 C   0  0  0  0  0  0  0  0  0  0  0  0
   17.1691   41.6851   10.7240 C   0  0  0  0  0  0  0  0  0  0  0  0
   13.9062   44.3597    4.6607 C   0  0  0  0  0  0  0  0  0  0  0  0
   12.9691   44.8565    3.6084 C   0  0  0  0  0  0  0  0  0  0  0  0
   13.5960   44.6894    2.2359 C   0  0  0  0  0  0  0  0  0  0  0  0
   12.5463   43.7097    2.7081 C   0  0  0  0  0  0  0  0  0  0  0  0
   17.6569   42.8793    7.9972 O   0  0  0  0  0  0  0  0  0  0  0  0
   16.8475   41.7361   11.9432 O   0  0  0  0  0  0  0  0  0  0  0  0
   15.0400   44.8964    4.7854 O   0  0  0  0  0  0  0  0  0  0  0  0
  1  8  1  0
  2 19  1  0
  3  1  1  0
  3  4  1  0
  4  5  1  0
  5  6  1  0
  5  7  1  0
  9 10  2  0
 11 12  2  0
 11  2  1  0
 13 23  1  0
 13  8  2  0
 14 23  1  0
 14 15  1  0
 15 16  1  0
 15 17  1  0
 15 18  1  0
 18  1  1  0
 20 19  1  0
 20 21  1  0
 21 22  1  0
 22 20  1  0
  8  9  1  0
 10 11  1  0
 12 13  1  0
 18 24  2  0
 19 25  2  0
M  END
>  <rmsd>  (1) 
0.231355131

$$$$
