MolPort-020-278-773 MCULE-9791678562 PubChem-110255643
     RDKit          3D

 25 27  0  0  0  0  0  0  0  0999 V2000
   17.6032   43.1837    8.1660 C   0  0  0  0  0  0  0  0  0  0  0  0
   16.2347   42.6670    7.9048 C   0  0  0  0  0  0  0  0  0  0  0  0
   14.4745   41.1861    8.4531 C   0  0  0  0  0  0  0  0  0  0  0  0
   13.7010   41.7126    7.4189 C   0  0  0  0  0  0  0  0  0  0  0  0
   14.2374   42.7335    6.6348 C   0  0  0  0  0  0  0  0  0  0  0  0
   13.8464   44.3270    4.6743 C   0  0  0  0  0  0  0  0  0  0  0  0
   15.4430   45.9055    3.9219 C   0  0  0  0  0  0  0  0  0  0  0  0
   14.5657   46.3366    2.9288 C   0  0  0  0  0  0  0  0  0  0  0  0
   13.3161   45.7261    2.8409 C   0  0  0  0  0  0  0  0  0  0  0  0
   13.9193   40.0925    9.3039 C   0  0  2  0  0  0  0  0  0  0  0  0
   13.8177   40.5385   10.7660 C   0  0  0  0  0  0  0  0  0  0  0  0
   13.3648   39.4175   11.7162 C   0  0  0  0  0  0  0  0  0  0  0  0
   13.2039   38.0647   11.0216 C   0  0  0  0  0  0  0  0  0  0  0  0
   14.7684   38.8254    9.1802 C   0  0  0  0  0  0  0  0  0  0  0  0
   15.1042   36.5926   10.2766 C   0  0  0  0  0  0  0  0  0  0  0  0
   14.7052   35.5382   11.2555 C   0  0  0  0  0  0  0  0  0  0  0  0
   13.3706   33.8413   11.7052 C   0  0  0  0  0  0  0  0  0  0  0  0
   15.7257   41.6724    8.6770 N   0  0  0  0  0  0  0  0  0  0  0  0
   15.4932   43.1899    6.8938 N   0  0  0  0  0  0  0  0  0  0  0  0
   13.4509   43.2811    5.5700 N   0  0  0  0  0  0  0  0  0  0  0  0
   15.0708   44.9140    4.7726 N   0  0  0  0  0  0  0  0  0  0  0  0
   12.9801   44.7375    3.7103 N   0  0  0  0  0  0  0  0  0  0  0  0
   14.3519   37.8091   10.1514 N   0  0  0  0  0  0  0  0  0  0  0  0
   16.1005   36.3839    9.5337 O   0  0  0  0  0  0  0  0  0  0  0  0
   13.7714   34.6839   10.6697 O   0  0  0  0  0  0  0  0  0  0  0  0
  1  2  1  0
  2 19  2  0
  3 18  2  0
  4  5  2  0
  5 20  1  0
  6 22  2  0
  7 21  2  0
  8  9  2  0
 10  3  1  6
 10 11  1  0
 11 12  1  0
 12 13  1  0
 13 23  1  0
 14 23  1  0
 14 10  1  0
 16 15  1  0
 16 25  1  0
 17 25  1  0
 20  6  1  0
 23 15  1  0
  2 18  1  0
  3  4  1  0
  5 19  1  0
  6 21  1  0
  7  8  1  0
  9 22  1  0
 15 24  2  0
M  END
>  <rmsd>  (1) 
0.247926652

$$$$
