MolPort-004-979-229 CSSS00159754183 MCULE-9377558138 PubChem-45159487
     RDKit          3D

 28 30  0  0  0  0  0  0  0  0999 V2000
   18.0942   47.6971   12.0366 C   0  0  0  0  0  0  0  0  0  0  0  0
   17.3497   46.7915   11.0761 C   0  0  0  0  0  0  0  0  0  0  0  0
   17.9096   46.9345    9.6674 C   0  0  1  0  0  0  0  0  0  0  0  0
   19.2606   46.2482    9.5336 C   0  0  0  0  0  0  0  0  0  0  0  0
   16.5090   45.0647    8.5762 C   0  0  0  0  0  0  0  0  0  0  0  0
   16.9375   44.0667    9.4856 C   0  0  0  0  0  0  0  0  0  0  0  0
   15.6290   42.4681    8.3735 C   0  0  0  0  0  0  0  0  0  0  0  0
   15.2098   40.0891    9.0099 C   0  0  0  0  0  0  0  0  0  0  0  0
   14.3257   40.1928   10.2441 C   0  0  2  0  0  0  0  0  0  0  0  0
   14.5654   39.0116   11.1432 C   0  0  0  0  0  0  0  0  0  0  0  0
   13.2416   38.8247   11.8151 C   0  0  0  0  0  0  0  0  0  0  0  0
   12.2819   39.6499   10.9801 C   0  0  0  0  0  0  0  0  0  0  0  0
   14.2151   41.4322    7.1064 C   0  0  0  0  0  0  0  0  0  0  0  0
   13.3481   40.3738    6.5444 C   0  0  0  0  0  0  0  0  0  0  0  0
   12.6146   38.0236    6.5277 C   0  0  0  0  0  0  0  0  0  0  0  0
   14.3026   42.7458    6.6355 C   0  0  0  0  0  0  0  0  0  0  0  0
   13.8527   44.4458    4.7855 C   0  0  0  0  0  0  0  0  0  0  0  0
   12.8214   45.0676    3.9158 C   0  0  0  0  0  0  0  0  0  0  0  0
   15.1981   43.3971    7.4667 C   0  0  0  0  0  0  0  0  0  0  0  0
   15.6098   44.7233    7.5523 C   0  0  0  0  0  0  0  0  0  0  0  0
   16.9667   46.4198    8.6764 N   0  0  0  0  0  0  0  0  0  0  0  0
   16.4855   42.7825    9.3776 N   0  0  0  0  0  0  0  0  0  0  0  0
   15.0497   41.2708    8.1683 N   0  0  0  0  0  0  0  0  0  0  0  0
   13.5087   43.3082    5.5808 N   0  0  0  0  0  0  0  0  0  0  0  0
   12.9716   40.1911    9.8781 O   0  0  0  0  0  0  0  0  0  0  0  0
   12.5312   40.6516    5.6249 O   0  0  0  0  0  0  0  0  0  0  0  0
   13.4353   39.0680    7.0287 O   0  0  0  0  0  0  0  0  0  0  0  0
   15.0300   44.8910    4.7632 O   0  0  0  0  0  0  0  0  0  0  0  0
  1  2  1  0
  3  2  1  0
  3  4  1  1
  3 21  1  0
  6 22  2  0
  7 23  1  0
  8 23  1  0
  9  8  1  6
  9 10  1  0
  9 25  1  0
 10 11  1  0
 11 12  1  0
 12 25  1  0
 13 14  1  0
 14 27  1  0
 15 27  1  0
 16 24  1  0
 16 19  1  0
 18 17  1  0
 19  7  2  0
 20  5  2  0
 21  5  1  0
 23 13  1  0
 24 17  1  0
  5  6  1  0
  7 22  1  0
 13 16  2  0
 14 26  2  0
 17 28  2  0
 19 20  1  0
M  END
>  <rmsd>  (1) 
0.155582905

$$$$
