MolPort-020-278-648 MCULE-3254278991 PubChem-110255520
     RDKit          3D

 27 29  0  0  0  0  0  0  0  0999 V2000
   11.6011   44.1224    3.5228 C   0  0  0  0  0  0  0  0  0  0  0  0
   12.9497   44.7400    3.6675 C   0  0  0  0  0  0  0  0  0  0  0  0
   13.8434   44.3233    4.6682 C   0  0  0  0  0  0  0  0  0  0  0  0
   15.4535   45.9081    3.9127 C   0  0  0  0  0  0  0  0  0  0  0  0
   14.5902   46.3453    2.9079 C   0  0  0  0  0  0  0  0  0  0  0  0
   13.3323   45.7550    2.7885 C   0  0  0  0  0  0  0  0  0  0  0  0
   14.2311   42.7267    6.6530 C   0  0  0  0  0  0  0  0  0  0  0  0
   14.3739   41.1747    8.4392 C   0  0  0  0  0  0  0  0  0  0  0  0
   16.2136   42.5934    8.0040 C   0  0  0  0  0  0  0  0  0  0  0  0
   15.5229   43.1778    6.9447 C   0  0  0  0  0  0  0  0  0  0  0  0
   17.5874   43.0508    8.3378 C   0  0  0  0  0  0  0  0  0  0  0  0
   13.7389   40.0859    9.2380 C   0  0  2  0  0  0  0  0  0  0  0  0
   13.6125   40.4919   10.6985 C   0  0  0  0  0  0  0  0  0  0  0  0
   12.9522   39.3650   11.4736 C   0  0  0  0  0  0  0  0  0  0  0  0
   13.7718   38.0813   11.3269 C   0  0  0  0  0  0  0  0  0  0  0  0
   14.5455   38.7899    9.1176 C   0  0  0  0  0  0  0  0  0  0  0  0
   13.8419   35.5143    7.6275 C   0  0  0  0  0  0  0  0  0  0  0  0
   11.6356   35.9876    7.0369 C   0  0  0  0  0  0  0  0  0  0  0  0
   15.0663   44.9185    4.7610 N   0  0  0  0  0  0  0  0  0  0  0  0
   13.4588   43.2794    5.5777 N   0  0  0  0  0  0  0  0  0  0  0  0
   13.6883   41.7350    7.4081 N   0  0  0  0  0  0  0  0  0  0  0  0
   15.6314   41.6056    8.7307 N   0  0  0  0  0  0  0  0  0  0  0  0
   13.9841   37.6955    9.9231 N   0  0  0  0  0  0  0  0  0  0  0  0
   12.8508   36.5751    7.5747 N   0  0  0  0  0  0  0  0  0  0  0  0
   12.5228   37.0708    9.2056 S   0  0  0  0  0  0  0  0  0  0  0  0
   12.0420   35.8936   10.0104 O   0  0  0  0  0  0  0  0  0  0  0  0
   11.4504   38.1258    9.1945 O   0  0  0  0  0  0  0  0  0  0  0  0
  1  2  1  0
  3 19  2  0
  3 20  1  0
  4  5  2  0
  6  2  2  0
  8 21  2  0
  9 22  2  0
 10  7  2  0
 11  9  1  0
 12  8  1  6
 12 13  1  0
 13 14  1  0
 14 15  1  0
 15 23  1  0
 16 23  1  0
 16 12  1  0
 17 24  1  0
 18 24  1  0
 20  7  1  0
 25 23  1  0
 25 24  1  0
  2  3  1  0
  4 19  1  0
  5  6  1  0
  7 21  1  0
  8 22  1  0
  9 10  1  0
 25 26  2  0
 25 27  2  0
M  END
>  <rmsd>  (1) 
0.244352147

$$$$
