MolPort-051-589-860
     RDKit          3D

 31 33  0  0  0  0  0  0  0  0999 V2000
   17.1867   42.2860    8.6272 C   0  0  0  0  0  0  0  0  0  0  0  0
   15.5586   43.0709    6.9303 C   0  0  0  0  0  0  0  0  0  0  0  0
   14.2694   42.7163    6.5787 C   0  0  0  0  0  0  0  0  0  0  0  0
   13.8986   44.3813    4.6854 C   0  0  0  0  0  0  0  0  0  0  0  0
   13.2916   45.9138    2.7962 C   0  0  0  0  0  0  0  0  0  0  0  0
   14.4745   45.5565    1.9127 C   0  0  0  0  0  0  0  0  0  0  0  0
   13.5770   47.2071    3.5400 C   0  0  0  0  0  0  0  0  0  0  0  0
   12.0814   46.1274    1.9120 C   0  0  0  0  0  0  0  0  0  0  0  0
   14.8463   41.4530    8.1786 C   0  0  0  0  0  0  0  0  0  0  0  0
   14.7887   40.4044    9.2131 C   0  0  0  0  0  0  0  0  0  0  0  0
   13.4263   38.6169   10.3928 C   0  0  0  0  0  0  0  0  0  0  0  0
   12.9271   39.2667   11.6741 C   0  0  0  0  0  0  0  0  0  0  0  0
   14.0869   39.7131   12.5511 C   0  0  0  0  0  0  0  0  0  0  0  0
   14.1520   37.6978   14.1730 C   0  0  0  0  0  0  0  0  0  0  0  0
   15.1596   36.7468   14.6282 C   0  0  0  0  0  0  0  0  0  0  0  0
   15.0797   35.7195   15.5658 C   0  0  0  0  0  0  0  0  0  0  0  0
   16.2390   34.9600   15.8034 C   0  0  0  0  0  0  0  0  0  0  0  0
   17.4365   35.2399   15.1108 C   0  0  0  0  0  0  0  0  0  0  0  0
   17.4928   36.2835   14.1702 C   0  0  0  0  0  0  0  0  0  0  0  0
   16.3312   37.0207   13.9506 C   0  0  0  0  0  0  0  0  0  0  0  0
   16.0755   38.1475   13.0605 C   0  0  0  0  0  0  0  0  0  0  0  0
   15.9043   42.2605    7.9432 N   0  0  0  0  0  0  0  0  0  0  0  0
   13.4820   43.3115    5.5408 N   0  0  0  0  0  0  0  0  0  0  0  0
   13.8141   41.7093    7.3495 N   0  0  0  0  0  0  0  0  0  0  0  0
   13.6007   39.6209    9.3529 N   0  0  0  0  0  0  0  0  0  0  0  0
   14.7160   38.5630   13.1861 N   0  0  0  0  0  0  0  0  0  0  0  0
   15.0475   44.8889    4.8042 O   0  0  0  0  0  0  0  0  0  0  0  0
   13.0069   44.8547    3.7134 O   0  0  0  0  0  0  0  0  0  0  0  0
   15.7787   40.1905    9.9624 O   0  0  0  0  0  0  0  0  0  0  0  0
   12.9641   37.7682   14.5858 O   0  0  0  0  0  0  0  0  0  0  0  0
   16.9189   38.6927   12.3008 O   0  0  0  0  0  0  0  0  0  0  0  0
  1 22  1  0
  3 23  1  0
  3 24  1  0
  4 28  1  0
  5 28  1  0
  5  6  1  0
  5  7  1  0
  5  8  1  0
  9 10  1  0
  9 22  1  0
 10 25  1  0
 11 25  1  0
 11 12  1  0
 12 13  1  0
 13 26  1  0
 14 15  1  0
 16 17  2  0
 18 19  2  0
 20 21  1  0
 20 15  2  0
 21 26  1  0
 22  2  1  0
 23  4  1  0
 26 14  1  0
  2  3  2  0
  4 27  2  0
  9 24  2  0
 10 29  2  0
 14 30  2  0
 15 16  1  0
 17 18  1  0
 19 20  1  0
 21 31  2  0
M  END
>  <rmsd>  (1) 
0.199387506

$$$$
