MolPort-002-278-585 1077129 CHEMBL1366508 CSSS00160326221 ChemDiv-D039-0089 MCULE-8992737878 PubChem-1264627 ZINC000001077129 ZINC01077129
     RDKit          3D

 30 32  0  0  0  0  0  0  0  0999 V2000
   12.7798   39.2599   11.8276 C   0  0  0  0  0  0  0  0  0  0  0  0
   13.9091   38.9262   10.8756 C   0  0  0  0  0  0  0  0  0  0  0  0
   15.0115   40.6664    9.5252 C   0  0  0  0  0  0  0  0  0  0  0  0
   14.9591   41.6184    8.3969 C   0  0  0  0  0  0  0  0  0  0  0  0
   15.9558   42.4943    7.9826 C   0  0  0  0  0  0  0  0  0  0  0  0
   17.3011   42.6513    8.6035 C   0  0  0  0  0  0  0  0  0  0  0  0
   14.3079   42.8006    6.6473 C   0  0  0  0  0  0  0  0  0  0  0  0
   13.9060   44.3271    4.6569 C   0  0  0  0  0  0  0  0  0  0  0  0
   13.3059   45.5508    2.4992 C   0  0  0  0  0  0  0  0  0  0  0  0
   12.4019   46.2597    1.7359 C   0  0  0  0  0  0  0  0  0  0  0  0
   10.9403   46.3927    2.0049 C   0  0  0  0  0  0  0  0  0  0  0  0
   12.4500   47.7197   -0.2807 C   0  0  0  0  0  0  0  0  0  0  0  0
   14.5168   45.7074    1.8480 C   0  0  0  0  0  0  0  0  0  0  0  0
   15.3731   46.8965   -0.1728 C   0  0  0  0  0  0  0  0  0  0  0  0
   16.7076   47.0221    0.2470 C   0  0  0  0  0  0  0  0  0  0  0  0
   17.7067   47.3935   -0.6571 C   0  0  0  0  0  0  0  0  0  0  0  0
   17.3827   47.6405   -1.9931 C   0  0  0  0  0  0  0  0  0  0  0  0
   16.0603   47.5143   -2.4246 C   0  0  0  0  0  0  0  0  0  0  0  0
   15.0622   47.1427   -1.5194 C   0  0  0  0  0  0  0  0  0  0  0  0
   13.9013   41.8234    7.5298 C   0  0  0  0  0  0  0  0  0  0  0  0
   12.5770   41.1374    7.5306 C   0  0  0  0  0  0  0  0  0  0  0  0
   13.9107   39.8519    9.7991 O   0  0  0  0  0  0  0  0  0  0  0  0
   16.0480   40.5900   10.2400 O   0  0  0  0  0  0  0  0  0  0  0  0
   15.0319   44.8820    4.7695 O   0  0  0  0  0  0  0  0  0  0  0  0
   15.6039   45.1524    2.1609 O   0  0  0  0  0  0  0  0  0  0  0  0
   15.5620   43.2173    6.9145 N   0  0  0  0  0  0  0  0  0  0  0  0
   13.5021   43.3091    5.5777 N   0  0  0  0  0  0  0  0  0  0  0  0
   12.9895   44.7418    3.6400 N   0  0  0  0  0  0  0  0  0  0  0  0
   13.0575   46.8299    0.7015 N   0  0  0  0  0  0  0  0  0  0  0  0
   14.3470   46.4993    0.7635 N   0  0  0  0  0  0  0  0  0  0  0  0
  1  2  1  0
  2 22  1  0
  3 22  1  0
  3  4  1  0
  5 26  1  0
  6  5  1  0
  7 27  1  0
  8 28  1  0
 10 29  1  0
 11 10  1  0
 12 29  1  0
 13  9  1  0
 15 16  2  0
 17 18  2  0
 19 14  2  0
 20  4  1  0
 21 20  1  0
 26  7  1  0
 27  8  1  0
 28  9  1  0
 29 30  1  0
 30 13  1  0
 30 14  1  0
  3 23  2  0
  4  5  2  0
  7 20  2  0
  8 24  2  0
  9 10  2  0
 13 25  2  0
 14 15  1  0
 16 17  1  0
 18 19  1  0
M  END
>  <rmsd>  (1) 
0.197364062

$$$$
