MolPort-003-077-992 4328288 CSSS03437148118 MCULE-1950111006 PubChem-7191022 ZINC000004328288 ZINC04328288
     RDKit          3D

 28 30  0  0  0  0  0  0  0  0999 V2000
   12.7947   47.2045    0.8869 F   0  0  0  0  0  0  0  0  0  0  0  0
   12.4334   46.2225    1.7468 C   0  0  0  0  0  0  0  0  0  0  0  0
   11.1732   45.6281    1.6391 C   0  0  0  0  0  0  0  0  0  0  0  0
   10.8009   44.6143    2.5259 C   0  0  0  0  0  0  0  0  0  0  0  0
   11.6891   44.1947    3.5206 C   0  0  0  0  0  0  0  0  0  0  0  0
   12.9560   44.7856    3.6362 C   0  0  0  0  0  0  0  0  0  0  0  0
   13.3215   45.8026    2.7414 C   0  0  0  0  0  0  0  0  0  0  0  0
   13.8920   44.3420    4.6844 C   0  0  0  0  0  0  0  0  0  0  0  0
   14.2939   42.7553    6.6532 C   0  0  0  0  0  0  0  0  0  0  0  0
   15.8829   42.0873    8.3159 C   0  0  0  0  0  0  0  0  0  0  0  0
   18.0835   40.6128    8.3348 C   0  0  0  0  0  0  0  0  0  0  0  0
   17.2956   39.3512    8.2313 C   0  0  0  0  0  0  0  0  0  0  0  0
   16.1072   37.4454    9.3735 C   0  0  0  0  0  0  0  0  0  0  0  0
   15.3546   37.3088   10.6877 C   0  0  0  0  0  0  0  0  0  0  0  0
   14.3450   38.4001   10.8365 C   0  0  0  0  0  0  0  0  0  0  0  0
   13.2354   38.4643    9.9835 C   0  0  0  0  0  0  0  0  0  0  0  0
   12.3020   39.4957   10.1246 C   0  0  0  0  0  0  0  0  0  0  0  0
   12.4749   40.4639   11.1183 C   0  0  0  0  0  0  0  0  0  0  0  0
   13.5796   40.3993   11.9730 C   0  0  0  0  0  0  0  0  0  0  0  0
   14.5129   39.3676   11.8331 C   0  0  0  0  0  0  0  0  0  0  0  0
   15.0276   44.8819    4.7771 O   0  0  0  0  0  0  0  0  0  0  0  0
   16.9176   38.9469    7.1000 O   0  0  0  0  0  0  0  0  0  0  0  0
   13.5029   43.2995    5.5900 N   0  0  0  0  0  0  0  0  0  0  0  0
   13.8404   41.7693    7.4567 N   0  0  0  0  0  0  0  0  0  0  0  0
   14.7233   41.3986    8.3820 N   0  0  0  0  0  0  0  0  0  0  0  0
   16.9506   38.6293    9.4130 N   0  0  0  0  0  0  0  0  0  0  0  0
   17.2581   41.8175    9.4287 S   0  0  0  0  0  0  0  0  0  0  0  0
   15.8617   43.2231    7.0750 S   0  0  0  0  0  0  0  0  0  0  0  0
  2  1  1  0
  3  4  2  0
  5  6  2  0
  6  8  1  0
  7  2  2  0
  8 23  1  0
  9 28  1  0
 10 27  1  0
 10 28  1  0
 11 27  1  0
 11 12  1  0
 12 26  1  0
 13 26  1  0
 13 14  1  0
 14 15  1  0
 16 17  2  0
 18 19  2  0
 20 15  2  0
 23  9  1  0
 24 25  1  0
  2  3  1  0
  4  5  1  0
  6  7  1  0
  8 21  2  0
  9 24  2  0
 10 25  2  0
 12 22  2  0
 15 16  1  0
 17 18  1  0
 19 20  1  0
M  END
>  <rmsd>  (1) 
0.244044706

$$$$
