MolPort-047-071-888 PubChem-132766130
     RDKit          3D

 30 33  0  0  0  0  0  0  0  0999 V2000
   12.2928   46.1143    1.8020 C   0  0  0  0  0  0  0  0  0  0  0  0
   13.2752   45.7018    2.8377 C   0  0  0  0  0  0  0  0  0  0  0  0
   14.5202   46.3243    2.9044 C   0  0  0  0  0  0  0  0  0  0  0  0
   15.4139   45.9094    3.8896 C   0  0  0  0  0  0  0  0  0  0  0  0
   16.7520   46.5467    3.9959 C   0  0  0  0  0  0  0  0  0  0  0  0
   13.8415   44.3228    4.6761 C   0  0  0  0  0  0  0  0  0  0  0  0
   14.2466   42.7275    6.6539 C   0  0  0  0  0  0  0  0  0  0  0  0
   15.5414   43.1833    6.9364 C   0  0  0  0  0  0  0  0  0  0  0  0
   16.2602   42.6125    7.9866 C   0  0  0  0  0  0  0  0  0  0  0  0
   15.6864   41.5943    8.7467 C   0  0  0  0  0  0  0  0  0  0  0  0
   14.3896   41.1589    8.4425 C   0  0  0  0  0  0  0  0  0  0  0  0
   13.7369   40.0671    9.2287 C   0  0  2  0  0  0  0  0  0  0  0  0
   13.5874   40.4581   10.7013 C   0  0  0  0  0  0  0  0  0  0  0  0
   12.9007   39.3392   11.4819 C   0  0  0  0  0  0  0  0  0  0  0  0
   13.6987   38.0453   11.3509 C   0  0  0  0  0  0  0  0  0  0  0  0
   14.5108   38.7554    9.0920 C   0  0  0  0  0  0  0  0  0  0  0  0
   13.4643   36.4777    9.3961 C   0  0  0  0  0  0  0  0  0  0  0  0
   13.6393   36.1847    7.9645 C   0  0  0  0  0  0  0  0  0  0  0  0
   13.2508   35.0319    7.4270 C   0  0  0  0  0  0  0  0  0  0  0  0
   13.4265   34.7445    5.9995 C   0  0  0  0  0  0  0  0  0  0  0  0
   13.9870   35.5790    5.0578 C   0  0  0  0  0  0  0  0  0  0  0  0
   13.3819   33.7388    4.1331 C   0  0  0  0  0  0  0  0  0  0  0  0
   15.0616   44.9220    4.7533 N   0  0  0  0  0  0  0  0  0  0  0  0
   13.4646   43.2797    5.5851 N   0  0  0  0  0  0  0  0  0  0  0  0
   13.7105   41.7322    7.4121 N   0  0  0  0  0  0  0  0  0  0  0  0
   13.8942   37.7359    9.9372 N   0  0  0  0  0  0  0  0  0  0  0  0
   13.9547   34.9337    3.8777 N   0  0  0  0  0  0  0  0  0  0  0  0
   13.0449   33.5905    5.4298 N   0  0  0  0  0  0  0  0  0  0  0  0
   12.9597   44.7176    3.7197 N   0  0  0  0  0  0  0  0  0  0  0  0
   12.9317   35.6183   10.1518 O   0  0  0  0  0  0  0  0  0  0  0  0
  1  2  1  0
  2 29  2  0
  3  4  2  0
  5  4  1  0
  6 23  2  0
  6 24  1  0
  7 25  2  0
  8  9  2  0
 10 11  2  0
 12 11  1  6
 12 13  1  0
 13 14  1  0
 14 15  1  0
 15 26  1  0
 16 26  1  0
 16 12  1  0
 17 18  1  0
 19 20  1  0
 21 27  1  0
 22 28  1  0
 24  7  1  0
 26 17  1  0
 28 20  1  0
  2  3  1  0
  4 23  1  0
  6 29  1  0
  7  8  1  0
  9 10  1  0
 11 25  1  0
 17 30  2  0
 18 19  2  0
 20 21  2  0
 22 27  2  0
M  END
>  <rmsd>  (1) 
0.245132372

$$$$
