MolPort-002-609-612 2406069 LN00636618 PubChem-1617097 ZINC000002406069 ZINC02406069
     RDKit          3D

 30 33  0  0  0  0  0  0  0  0999 V2000
   12.7763   39.6702   11.7357 C   0  0  0  0  0  0  0  0  0  0  0  0
   13.7748   38.9517   10.8477 C   0  0  0  0  0  0  0  0  0  0  0  0
   13.9139   39.6699    9.5176 C   0  0  0  0  0  0  0  0  0  0  0  0
   14.7433   40.9327    9.6811 C   0  0  0  0  0  0  0  0  0  0  0  0
   14.3486   42.7001    6.5979 C   0  0  0  0  0  0  0  0  0  0  0  0
   13.9368   44.2693    4.6282 C   0  0  0  0  0  0  0  0  0  0  0  0
   13.0325   44.6057    3.4922 C   0  0  0  0  0  0  0  0  0  0  0  0
   12.0480   45.6488    3.8986 C   0  0  0  0  0  0  0  0  0  0  0  0
   12.3617   47.0042    3.7507 C   0  0  0  0  0  0  0  0  0  0  0  0
   11.4465   47.9828    4.1495 C   0  0  0  0  0  0  0  0  0  0  0  0
   10.2145   47.6153    4.7018 C   0  0  0  0  0  0  0  0  0  0  0  0
    8.0505   48.3347    5.6594 C   0  0  0  0  0  0  0  0  0  0  0  0
    9.9056   46.2533    4.8536 C   0  0  0  0  0  0  0  0  0  0  0  0
   10.8204   45.2746    4.4550 C   0  0  0  0  0  0  0  0  0  0  0  0
   15.7196   42.4972    6.5577 C   0  0  0  0  0  0  0  0  0  0  0  0
   16.7135   42.7666    5.6232 C   0  0  0  0  0  0  0  0  0  0  0  0
   18.0173   42.3465    5.9379 C   0  0  0  0  0  0  0  0  0  0  0  0
   19.0654   42.5976    5.0506 C   0  0  0  0  0  0  0  0  0  0  0  0
   20.3609   42.1779    5.3621 C   0  0  0  0  0  0  0  0  0  0  0  0
   20.6156   41.5043    6.5604 C   0  0  0  0  0  0  0  0  0  0  0  0
   19.5802   41.2409    7.4630 C   0  0  0  0  0  0  0  0  0  0  0  0
   19.8939   40.5179    8.7284 C   0  0  0  0  0  0  0  0  0  0  0  0
   18.2713   41.6572    7.1659 C   0  0  0  0  0  0  0  0  0  0  0  0
   15.9957   41.8261    7.7119 C   0  0  0  0  0  0  0  0  0  0  0  0
   14.8656   41.6180    8.4040 N   0  0  0  0  0  0  0  0  0  0  0  0
   13.8485   42.1426    7.7283 N   0  0  0  0  0  0  0  0  0  0  0  0
   13.5199   43.3000    5.5949 N   0  0  0  0  0  0  0  0  0  0  0  0
   17.2428   41.4005    8.0330 N   0  0  0  0  0  0  0  0  0  0  0  0
   15.0165   44.9018    4.7678 O   0  0  0  0  0  0  0  0  0  0  0  0
    9.3213   48.6176    5.0899 O   0  0  0  0  0  0  0  0  0  0  0  0
  1  2  1  0
  2  3  1  0
  3  4  1  0
  4 25  1  0
  5 27  1  0
  5 15  1  0
  7  6  1  0
  7  8  1  0
  9 10  2  0
 11 30  1  0
 11 13  2  0
 12 30  1  0
 14  8  2  0
 16 17  2  0
 18 19  2  0
 20 21  2  0
 22 21  1  0
 23 28  2  0
 23 17  1  0
 24 25  1  0
 24 15  2  0
 25 26  1  0
 27  6  1  0
  5 26  2  0
  6 29  2  0
  8  9  1  0
 10 11  1  0
 13 14  1  0
 15 16  1  0
 17 18  1  0
 19 20  1  0
 21 23  1  0
 24 28  1  0
M  END
>  <rmsd>  (1) 
0.162935242

$$$$
