MolPort-047-017-569 Molport-047-017-570 257224536 MCULE-3685565728 MCULE-4369250661 PubChem-110111171 ZINC000257224536
     RDKit          3D

 22 24  0  0  0  0  0  0  0  0999 V2000
   13.0668   37.3347   14.4197 C   0  0  0  0  0  0  0  0  0  0  0  0
   13.7576   38.0681   12.3066 C   0  0  1  0  0  0  0  0  0  0  0  0
   12.5526   38.1214   11.3628 C   0  0  0  0  0  0  0  0  0  0  0  0
   12.1157   39.5638   11.0930 C   0  0  0  0  0  0  0  0  0  0  0  0
   13.2675   40.4100   10.5471 C   0  0  2  0  0  0  0  0  0  0  0  0
   13.6276   39.9881    9.1236 C   0  0  0  0  0  0  0  0  0  0  0  0
   14.2949   41.0943    8.3748 C   0  0  0  0  0  0  0  0  0  0  0  0
   15.5963   41.4908    8.6983 C   0  0  0  0  0  0  0  0  0  0  0  0
   16.1993   42.5132    7.9664 C   0  0  0  0  0  0  0  0  0  0  0  0
   15.5036   43.1217    6.9216 C   0  0  0  0  0  0  0  0  0  0  0  0
   14.2035   42.6973    6.6148 C   0  0  0  0  0  0  0  0  0  0  0  0
   13.8520   44.3431    4.6685 C   0  0  0  0  0  0  0  0  0  0  0  0
   12.9643   44.7814    3.6820 C   0  0  0  0  0  0  0  0  0  0  0  0
   13.3485   45.8100    2.8199 C   0  0  0  0  0  0  0  0  0  0  0  0
   14.6109   46.3904    2.9494 C   0  0  0  0  0  0  0  0  0  0  0  0
   15.4728   45.9287    3.9458 C   0  0  0  0  0  0  0  0  0  0  0  0
   14.4741   40.3511   11.4904 C   0  0  0  0  0  0  0  0  0  0  0  0
   14.9111   38.9088   11.7574 C   0  0  0  0  0  0  0  0  0  0  0  0
   13.3897   38.5182   13.6417 N   0  0  0  0  0  0  0  0  0  0  0  0
   13.4456   43.2860    5.5482 N   0  0  0  0  0  0  0  0  0  0  0  0
   15.0797   44.9253    4.7759 N   0  0  0  0  0  0  0  0  0  0  0  0
   13.6398   41.6967    7.3456 N   0  0  0  0  0  0  0  0  0  0  0  0
  1 19  1  0
  2 19  1  1
  2  3  1  0
  3  4  1  0
  4  5  1  0
  5  6  1  6
  5 17  1  0
  6  7  1  0
  7 22  2  0
  8  9  2  0
 10 11  2  0
 11 20  1  0
 12 21  2  0
 13 14  2  0
 15 16  2  0
 17 18  1  0
 18  2  1  0
 20 12  1  0
  7  8  1  0
  9 10  1  0
 11 22  1  0
 12 13  1  0
 14 15  1  0
 16 21  1  0
M  END
>  <rmsd>  (1) 
0.245685354

$$$$
