MolPort-008-385-482 10773408 CSSS00160349912 MCULE-6486063186 PubChem-41656383 ZINC000010773408 ZINC10773408
     RDKit          3D

 24 26  0  0  0  0  0  0  0  0999 V2000
   13.1831   39.2705   11.1661 C   0  0  0  0  0  0  0  0  0  0  0  0
   15.0283   40.8567   11.6300 C   0  0  0  0  0  0  0  0  0  0  0  0
   16.2993   41.3515   11.2860 C   0  0  0  0  0  0  0  0  0  0  0  0
   17.0564   40.7728   10.1305 C   0  0  0  0  0  0  0  0  0  0  0  0
   17.2713   41.8074    9.0286 C   0  0  0  0  0  0  0  0  0  0  0  0
   16.0537   42.0367    8.1871 C   0  0  0  0  0  0  0  0  0  0  0  0
   14.3734   42.7338    6.6191 C   0  0  0  0  0  0  0  0  0  0  0  0
   13.8669   44.3619    4.7091 C   0  0  0  0  0  0  0  0  0  0  0  0
   12.8747   44.8305    3.7256 C   0  0  0  0  0  0  0  0  0  0  0  0
   11.6018   44.2438    3.6682 C   0  0  0  0  0  0  0  0  0  0  0  0
   10.6598   44.6877    2.7355 C   0  0  0  0  0  0  0  0  0  0  0  0
   10.9836   45.7216    1.8529 C   0  0  0  0  0  0  0  0  0  0  0  0
   12.2492   46.3118    1.9028 C   0  0  0  0  0  0  0  0  0  0  0  0
   13.1913   45.8681    2.8356 C   0  0  0  0  0  0  0  0  0  0  0  0
   16.8759   42.3801   12.0431 C   0  0  0  0  0  0  0  0  0  0  0  0
   16.1885   42.9288   13.1279 C   0  0  0  0  0  0  0  0  0  0  0  0
   14.9219   42.4492   13.4660 C   0  0  0  0  0  0  0  0  0  0  0  0
   14.3446   41.4174   12.7222 C   0  0  0  0  0  0  0  0  0  0  0  0
   14.4658   39.8135   10.8848 O   0  0  0  0  0  0  0  0  0  0  0  0
   15.0074   44.8981    4.7501 O   0  0  0  0  0  0  0  0  0  0  0  0
   14.8960   41.3448    8.2953 N   0  0  0  0  0  0  0  0  0  0  0  0
   13.9640   41.7327    7.4265 N   0  0  0  0  0  0  0  0  0  0  0  0
   13.5265   43.3001    5.6118 N   0  0  0  0  0  0  0  0  0  0  0  0
   15.9619   43.1894    6.9645 S   0  0  0  0  0  0  0  0  0  0  0  0
  1 19  1  0
  2 19  1  0
  3 15  2  0
  4  3  1  0
  4  5  1  0
  5  6  1  0
  6 24  1  0
  7 23  1  0
  7 24  1  0
  8  9  1  0
 10 11  2  0
 12 13  2  0
 14  9  2  0
 16 17  2  0
 18  2  2  0
 21 22  1  0
 23  8  1  0
  2  3  1  0
  6 21  2  0
  7 22  2  0
  8 20  2  0
  9 10  1  0
 11 12  1  0
 13 14  1  0
 15 16  1  0
 17 18  1  0
M  END
>  <rmsd>  (1) 
0.227145448

$$$$
