MolPort-004-984-431 CSSS00160433007 MCULE-7777915856 PubChem-45161700
     RDKit          3D

 35 38  0  0  0  0  0  0  0  0999 V2000
   11.7616   39.6589    4.8140 C   0  0  0  0  0  0  0  0  0  0  0  0
   13.3770   40.3814    6.5265 C   0  0  0  0  0  0  0  0  0  0  0  0
   14.2034   41.4566    7.1170 C   0  0  0  0  0  0  0  0  0  0  0  0
   14.2762   42.7699    6.6450 C   0  0  0  0  0  0  0  0  0  0  0  0
   13.8547   44.4502    4.7698 C   0  0  0  0  0  0  0  0  0  0  0  0
   12.8431   45.0771    3.9016 C   0  0  0  0  0  0  0  0  0  0  0  0
   13.1774   46.1818    3.1039 C   0  0  0  0  0  0  0  0  0  0  0  0
   12.2153   46.7780    2.2833 C   0  0  0  0  0  0  0  0  0  0  0  0
   10.9122   46.2739    2.2542 C   0  0  0  0  0  0  0  0  0  0  0  0
   10.5709   45.1739    3.0453 C   0  0  0  0  0  0  0  0  0  0  0  0
   11.5328   44.5780    3.8663 C   0  0  0  0  0  0  0  0  0  0  0  0
   15.1280   43.4444    7.5022 C   0  0  0  0  0  0  0  0  0  0  0  0
   15.5036   44.7808    7.5969 C   0  0  0  0  0  0  0  0  0  0  0  0
   16.3636   45.1471    8.6466 C   0  0  0  0  0  0  0  0  0  0  0  0
   17.7373   47.0862    9.7041 C   0  0  1  0  0  0  0  0  0  0  0  0
   17.4361   46.7034   11.1486 C   0  0  0  0  0  0  0  0  0  0  0  0
   19.2039   46.8701    9.2864 C   0  0  0  0  0  0  0  0  0  0  0  0
   19.4168   47.3746    7.8708 C   0  0  0  0  0  0  0  0  0  0  0  0
   19.6083   45.4077    9.3466 C   0  0  0  0  0  0  0  0  0  0  0  0
   16.7827   44.1619    9.5740 C   0  0  0  0  0  0  0  0  0  0  0  0
   15.5524   42.5278    8.4245 C   0  0  0  0  0  0  0  0  0  0  0  0
   15.1918   40.1331    9.0389 C   0  0  0  0  0  0  0  0  0  0  0  0
   14.3383   40.2287   10.2939 C   0  0  2  0  0  0  0  0  0  0  0  0
   14.6443   39.0661   11.2069 C   0  0  0  0  0  0  0  0  0  0  0  0
   13.3036   38.6696   11.7465 C   0  0  0  0  0  0  0  0  0  0  0  0
   12.3455   39.6340   11.0879 C   0  0  0  0  0  0  0  0  0  0  0  0
   12.5729   40.6547    5.4181 O   0  0  0  0  0  0  0  0  0  0  0  0
   13.4013   39.2200    7.0172 O   0  0  0  0  0  0  0  0  0  0  0  0
   15.0379   44.8857    4.7709 O   0  0  0  0  0  0  0  0  0  0  0  0
   20.0350   47.5977   10.1389 O   0  0  0  0  0  0  0  0  0  0  0  0
   12.9756   40.1852    9.9635 O   0  0  0  0  0  0  0  0  0  0  0  0
   13.5019   43.3134    5.5675 N   0  0  0  0  0  0  0  0  0  0  0  0
   16.7668   46.5189    8.7620 N   0  0  0  0  0  0  0  0  0  0  0  0
   16.3677   42.8661    9.4551 N   0  0  0  0  0  0  0  0  0  0  0  0
   15.0083   41.3165    8.2055 N   0  0  0  0  0  0  0  0  0  0  0  0
  1 27  1  0
  2 27  1  0
  2  3  1  0
  4 32  1  0
  4 12  1  0
  5  6  1  0
  7  8  2  0
  9 10  2  0
 11  6  2  0
 13 14  2  0
 14 33  1  0
 15 33  1  0
 15 16  1  1
 15 17  1  0
 17 18  1  0
 17 19  1  0
 17 30  1  0
 20 34  2  0
 21 35  1  0
 21 12  2  0
 22 35  1  0
 23 22  1  6
 23 24  1  0
 23 31  1  0
 24 25  1  0
 25 26  1  0
 26 31  1  0
 32  5  1  0
 35  3  1  0
  2 28  2  0
  3  4  2  0
  5 29  2  0
  6  7  1  0
  8  9  1  0
 10 11  1  0
 12 13  1  0
 14 20  1  0
 21 34  1  0
M  END
>  <rmsd>  (1) 
0.170577064

$$$$
