MolPort-023-267-087 77485327 CSSS00159611192 MCULE-1191038835 PubChem-70766615 ZINC000077485327 ZINC77485327
     RDKit          3D

 26 28  0  0  0  0  0  0  0  0999 V2000
   11.9685   46.6467    4.2387 C   0  0  0  0  0  0  0  0  0  0  0  0
   11.7914   45.2077    3.7912 C   0  0  0  0  0  0  0  0  0  0  0  0
   13.1301   44.6042    3.3959 C   0  0  0  0  0  0  0  0  0  0  0  0
   13.9517   44.2822    4.5987 C   0  0  0  0  0  0  0  0  0  0  0  0
   14.2554   42.7754    6.6223 C   0  0  0  0  0  0  0  0  0  0  0  0
   15.5552   42.2559    6.4320 C   0  0  0  0  0  0  0  0  0  0  0  0
   16.1912   42.1839    5.0858 C   0  0  0  0  0  0  0  0  0  0  0  0
   16.2549   41.7232    7.5188 C   0  0  0  0  0  0  0  0  0  0  0  0
   15.6742   41.6766    8.7930 C   0  0  0  0  0  0  0  0  0  0  0  0
   14.3804   42.1828    8.9725 C   0  0  0  0  0  0  0  0  0  0  0  0
   13.6743   42.7157    7.8926 C   0  0  0  0  0  0  0  0  0  0  0  0
   17.7231   41.4465   10.1377 C   0  0  0  0  0  0  0  0  0  0  0  0
   18.0669   40.8918   11.3557 C   0  0  0  0  0  0  0  0  0  0  0  0
   16.0066   40.4526   10.9763 C   0  0  0  0  0  0  0  0  0  0  0  0
   14.6770   39.8286   11.1355 C   0  0  0  0  0  0  0  0  0  0  0  0
   13.9351   39.3838   10.0376 C   0  0  0  0  0  0  0  0  0  0  0  0
   12.2425   38.5754   11.4744 C   0  0  0  0  0  0  0  0  0  0  0  0
   10.9374   37.8846   11.6581 C   0  0  0  0  0  0  0  0  0  0  0  0
   11.1555   36.3881   11.7626 C   0  0  0  0  0  0  0  0  0  0  0  0
   14.1619   39.5870   12.4116 C   0  0  0  0  0  0  0  0  0  0  0  0
   15.0433   44.8839    4.7814 O   0  0  0  0  0  0  0  0  0  0  0  0
   13.4788   43.3189    5.5470 N   0  0  0  0  0  0  0  0  0  0  0  0
   16.4266   41.1695    9.9074 N   0  0  0  0  0  0  0  0  0  0  0  0
   16.9898   40.2722   11.8796 N   0  0  0  0  0  0  0  0  0  0  0  0
   12.7368   38.7726   10.2240 N   0  0  0  0  0  0  0  0  0  0  0  0
   12.9597   38.9719   12.5586 N   0  0  0  0  0  0  0  0  0  0  0  0
  1  2  1  0
  2  3  1  0
  3  4  1  0
  4 22  1  0
  6  8  2  0
  7  6  1  0
  9 10  2  0
  9 23  1  0
 11  5  2  0
 13 24  1  0
 14 15  1  0
 14 23  1  0
 16 25  2  0
 17 26  2  0
 18 17  1  0
 18 19  1  0
 20 15  2  0
 22  5  1  0
 23 12  1  0
  4 21  2  0
  5  6  1  0
  8  9  1  0
 10 11  1  0
 12 13  2  0
 14 24  2  0
 15 16  1  0
 17 25  1  0
 20 26  1  0
M  END
>  <rmsd>  (1) 
0.241068497

$$$$
