MolPort-047-071-853 PubChem-132765792
     RDKit          3D

 29 32  0  0  0  0  0  0  0  0999 V2000
   11.6273   44.1636    3.4734 C   0  0  0  0  0  0  0  0  0  0  0  0
   12.9793   44.7660    3.6478 C   0  0  0  0  0  0  0  0  0  0  0  0
   13.3884   45.7846    2.7852 C   0  0  0  0  0  0  0  0  0  0  0  0
   14.6502   46.3604    2.9329 C   0  0  0  0  0  0  0  0  0  0  0  0
   15.4905   45.9052    3.9492 C   0  0  0  0  0  0  0  0  0  0  0  0
   13.8504   44.3313    4.6606 C   0  0  0  0  0  0  0  0  0  0  0  0
   14.2115   42.7349    6.6296 C   0  0  0  0  0  0  0  0  0  0  0  0
   13.6591   41.7131    7.4057 C   0  0  0  0  0  0  0  0  0  0  0  0
   14.3980   41.1674    8.4579 C   0  0  0  0  0  0  0  0  0  0  0  0
   15.6860   41.6522    8.7200 C   0  0  0  0  0  0  0  0  0  0  0  0
   16.2064   42.6740    7.9244 C   0  0  0  0  0  0  0  0  0  0  0  0
   13.7978   40.0709    9.2789 C   0  0  2  0  0  0  0  0  0  0  0  0
   13.6713   40.4843   10.7476 C   0  0  0  0  0  0  0  0  0  0  0  0
   13.0376   39.3597   11.5642 C   0  0  0  0  0  0  0  0  0  0  0  0
   13.8714   38.0882   11.4370 C   0  0  0  0  0  0  0  0  0  0  0  0
   14.6091   38.7813    9.1476 C   0  0  0  0  0  0  0  0  0  0  0  0
   13.6386   36.4795    9.5156 C   0  0  0  0  0  0  0  0  0  0  0  0
   13.7876   36.1667    8.0853 C   0  0  0  0  0  0  0  0  0  0  0  0
   13.4211   34.9938    7.5769 C   0  0  0  0  0  0  0  0  0  0  0  0
   13.5707   34.6868    6.1505 C   0  0  0  0  0  0  0  0  0  0  0  0
   14.0832   35.5209    5.1813 C   0  0  0  0  0  0  0  0  0  0  0  0
   13.5112   33.6479    4.3029 C   0  0  0  0  0  0  0  0  0  0  0  0
   15.0777   44.9122    4.7815 N   0  0  0  0  0  0  0  0  0  0  0  0
   13.4415   43.2846    5.5539 N   0  0  0  0  0  0  0  0  0  0  0  0
   15.4661   43.1889    6.9065 N   0  0  0  0  0  0  0  0  0  0  0  0
   14.0436   37.7592   10.0246 N   0  0  0  0  0  0  0  0  0  0  0  0
   14.0417   34.8545    4.0135 N   0  0  0  0  0  0  0  0  0  0  0  0
   13.2102   33.5124    5.6097 N   0  0  0  0  0  0  0  0  0  0  0  0
   13.1503   35.6183   10.2984 O   0  0  0  0  0  0  0  0  0  0  0  0
  1  2  1  0
  3  4  2  0
  5 23  2  0
  6 24  1  0
  6  2  2  0
  7 25  2  0
  8  9  2  0
 10 11  2  0
 12  9  1  6
 12 13  1  0
 13 14  1  0
 14 15  1  0
 15 26  1  0
 16 26  1  0
 16 12  1  0
 17 18  1  0
 19 20  1  0
 21 27  1  0
 22 28  1  0
 24  7  1  0
 26 17  1  0
 28 20  1  0
  2  3  1  0
  4  5  1  0
  6 23  1  0
  7  8  1  0
  9 10  1  0
 11 25  1  0
 17 29  2  0
 18 19  2  0
 20 21  2  0
 22 27  2  0
M  END
>  <rmsd>  (1) 
0.24447678

$$$$
