MolPort-010-852-089 41108806 ChemDiv-G952-0652 MCULE-7816905175 PubChem-52103581 ZINC000041108806
     RDKit          3D

 27 32  0  0  0  0  0  0  0  0999 V2000
   15.0453   44.8757    4.7661 O   0  0  0  0  0  0  0  0  0  0  0  0
   13.9423   44.2841    4.6095 C   0  0  0  0  0  0  0  0  0  0  0  0
   14.2235   42.8405    6.7064 C   0  0  0  0  0  0  0  0  0  0  0  0
   15.7261   42.2809    8.4531 C   0  0  0  0  0  0  0  0  0  0  0  0
   14.6387   40.8958    9.5974 C   0  0  0  0  0  0  0  0  0  0  0  0
   13.5486   39.9987   10.0825 C   0  0  0  0  0  0  0  0  0  0  0  0
   13.0551   40.4452   11.4684 C   0  0  0  0  0  0  0  0  0  0  0  0
   13.6927   39.6220   12.5856 C   0  0  0  0  0  0  0  0  0  0  0  0
   13.3570   38.1314   12.4433 C   0  0  0  0  0  0  0  0  0  0  0  0
   13.1874   37.6736   10.9876 C   0  0  0  0  0  0  0  0  0  0  0  0
   14.0071   38.5345   10.0316 C   0  0  0  0  0  0  0  0  0  0  0  0
   13.0445   44.6577    3.4603 C   0  0  2  0  0  0  0  0  0  0  0  0
   13.8503   45.3030    2.3115 C   0  0  0  0  0  0  0  0  0  0  0  0
   12.9143   45.6956    1.1575 C   0  0  1  0  0  0  0  0  0  0  0  0
   12.2043   44.4378    0.6328 C   0  0  0  0  0  0  0  0  0  0  0  0
   11.3876   43.7876    1.7606 C   0  0  2  0  0  0  0  0  0  0  0  0
   10.3437   44.7919    2.2745 C   0  0  0  0  0  0  0  0  0  0  0  0
   11.0443   46.0526    2.8055 C   0  0  2  0  0  0  0  0  0  0  0  0
   11.8644   46.6923    1.6738 C   0  0  0  0  0  0  0  0  0  0  0  0
   11.9870   45.6617    3.9547 C   0  0  0  0  0  0  0  0  0  0  0  0
   12.3314   43.4046    2.9116 C   0  0  0  0  0  0  0  0  0  0  0  0
   13.4950   43.3139    5.5674 N   0  0  0  0  0  0  0  0  0  0  0  0
   13.6860   41.9356    7.5730 N   0  0  0  0  0  0  0  0  0  0  0  0
   14.5740   41.6730    8.5173 N   0  0  0  0  0  0  0  0  0  0  0  0
   16.5544   41.9348    9.4530 N   0  0  0  0  0  0  0  0  0  0  0  0
   15.8585   41.0521   10.1817 N   0  0  0  0  0  0  0  0  0  0  0  0
   15.8369   43.3062    7.1345 S   0  0  0  0  0  0  0  0  0  0  0  0
  2 22  1  0
  3 27  1  0
  4 27  1  0
  5 24  1  0
  6  5  1  0
  6  7  1  0
  7  8  1  0
  8  9  1  0
  9 10  1  0
 10 11  1  0
 11  6  1  0
 12  2  1  1
 12 13  1  0
 14 13  1  1
 14 15  1  0
 16 15  1  6
 16 17  1  0
 16 21  1  0
 18 17  1  6
 18 19  1  0
 18 20  1  0
 19 14  1  0
 20 12  1  0
 21 12  1  0
 22  3  1  0
 24 23  1  0
 24  4  1  0
 25 26  1  0
  2  1  2  0
  3 23  2  0
  4 25  2  0
  5 26  2  0
M  END
>  <rmsd>  (1) 
0.227660626

$$$$
