MolPort-001-550-176 1150979 CSC028001457 CSSS00028001457 MCULE-9900168954 PubChem-1321321 Z29703923 ZINC000001150979 ZINC01150979
     RDKit          3D

 30 32  0  0  0  0  0  0  0  0999 V2000
    9.6687   39.1312   11.6643 C   0  0  0  0  0  0  0  0  0  0  0  0
   12.1080   38.7449   11.5290 C   0  0  0  0  0  0  0  0  0  0  0  0
   12.3582   40.0511   11.0805 C   0  0  0  0  0  0  0  0  0  0  0  0
   13.6645   40.4621   10.8044 C   0  0  0  0  0  0  0  0  0  0  0  0
   14.7384   39.5749   10.9645 C   0  0  0  0  0  0  0  0  0  0  0  0
   14.4848   38.2744   11.4236 C   0  0  0  0  0  0  0  0  0  0  0  0
   13.1783   37.8622   11.7008 C   0  0  0  0  0  0  0  0  0  0  0  0
   16.1277   40.0025   10.6870 C   0  0  0  0  0  0  0  0  0  0  0  0
   15.6675   41.6947    8.8209 C   0  0  0  0  0  0  0  0  0  0  0  0
   15.0431   40.8508    7.8806 C   0  0  0  0  0  0  0  0  0  0  0  0
   14.5424   38.5547    7.0941 C   0  0  0  0  0  0  0  0  0  0  0  0
   14.3261   41.4214    6.8182 C   0  0  0  0  0  0  0  0  0  0  0  0
   14.2488   42.8068    6.6581 C   0  0  0  0  0  0  0  0  0  0  0  0
   13.8569   44.4394    4.7416 C   0  0  0  0  0  0  0  0  0  0  0  0
   12.8686   45.0424    3.8306 C   0  0  0  0  0  0  0  0  0  0  0  0
   13.2251   46.1237    3.0107 C   0  0  0  0  0  0  0  0  0  0  0  0
   12.2860   46.6964    2.1479 C   0  0  0  0  0  0  0  0  0  0  0  0
   10.9834   46.1927    2.0991 C   0  0  0  0  0  0  0  0  0  0  0  0
   10.6197   45.1163    2.9127 C   0  0  0  0  0  0  0  0  0  0  0  0
   11.5588   44.5435    3.7755 C   0  0  0  0  0  0  0  0  0  0  0  0
   14.8702   43.6508    7.6000 C   0  0  0  0  0  0  0  0  0  0  0  0
   15.3345   45.9454    8.4126 C   0  0  0  0  0  0  0  0  0  0  0  0
   15.5881   43.0801    8.6621 C   0  0  0  0  0  0  0  0  0  0  0  0
   10.8131   38.3017   11.8117 O   0  0  0  0  0  0  0  0  0  0  0  0
   17.0845   39.3448   11.1760 O   0  0  0  0  0  0  0  0  0  0  0  0
   15.1614   39.4610    7.9970 O   0  0  0  0  0  0  0  0  0  0  0  0
   15.0380   44.8816    4.7699 O   0  0  0  0  0  0  0  0  0  0  0  0
   14.7404   45.0402    7.4920 O   0  0  0  0  0  0  0  0  0  0  0  0
   16.4260   41.1807    9.9245 N   0  0  0  0  0  0  0  0  0  0  0  0
   13.4873   43.3201    5.5577 N   0  0  0  0  0  0  0  0  0  0  0  0
  1 24  1  0
  2 24  1  0
  3  4  2  0
  5  6  2  0
  5  8  1  0
  7  2  2  0
  8 29  1  0
 10 26  1  0
 10 12  2  0
 11 26  1  0
 13 30  1  0
 13 21  2  0
 14 15  1  0
 16 17  2  0
 18 19  2  0
 20 15  2  0
 21 28  1  0
 22 28  1  0
 23  9  2  0
 29  9  1  0
 30 14  1  0
  2  3  1  0
  4  5  1  0
  6  7  1  0
  8 25  2  0
  9 10  1  0
 12 13  1  0
 14 27  2  0
 15 16  1  0
 17 18  1  0
 19 20  1  0
 21 23  1  0
M  END
>  <rmsd>  (1) 
0.248260707

$$$$
