MolPort-029-902-000 96162757 CSSS00159880895 MCULE-9601715621 PubChem-72915617 ZINC000096162757 ZINC96162757
     RDKit          3D

 28 30  0  0  0  0  0  0  0  0999 V2000
   12.7296   49.0890    1.9777 N   0  0  0  0  0  0  0  0  0  0  0  0
   13.0542   44.8189    3.5878 N   0  0  0  0  0  0  0  0  0  0  0  0
   13.4716   43.3212    5.5271 N   0  0  0  0  0  0  0  0  0  0  0  0
   13.7226   48.4082    2.7354 C   0  0  0  0  0  0  0  0  0  0  0  0
   13.3448   47.2456    3.5826 C   0  0  0  0  0  0  0  0  0  0  0  0
   13.4153   45.9664    2.7654 C   0  0  0  0  0  0  0  0  0  0  0  0
   11.7856   44.1552    3.3083 C   0  0  0  0  0  0  0  0  0  0  0  0
   12.0119   42.8274    2.6641 C   0  0  0  0  0  0  0  0  0  0  0  0
   12.4951   42.7537    1.3520 C   0  0  0  0  0  0  0  0  0  0  0  0
   12.7099   41.5084    0.7536 C   0  0  0  0  0  0  0  0  0  0  0  0
   12.4398   40.3355    1.4647 C   0  0  0  0  0  0  0  0  0  0  0  0
   11.9550   40.4075    2.7742 C   0  0  0  0  0  0  0  0  0  0  0  0
   11.7410   41.6525    3.3733 C   0  0  0  0  0  0  0  0  0  0  0  0
   13.9148   44.3641    4.6461 C   0  0  0  0  0  0  0  0  0  0  0  0
   14.2019   42.7458    6.6184 C   0  0  0  0  0  0  0  0  0  0  0  0
   13.6006   41.7280    7.3664 C   0  0  0  0  0  0  0  0  0  0  0  0
   14.2721   41.1397    8.4432 C   0  0  0  0  0  0  0  0  0  0  0  0
   14.2094   39.5067   10.3117 C   0  0  0  0  0  0  0  0  0  0  0  0
   13.4791   38.2089   10.6068 C   0  0  0  0  0  0  0  0  0  0  0  0
   12.6566   38.4542   11.8521 C   0  0  0  0  0  0  0  0  0  0  0  0
   13.3869   39.5433   12.5992 C   0  0  0  0  0  0  0  0  0  0  0  0
   14.0244   40.4009   11.5285 C   0  0  0  0  0  0  0  0  0  0  0  0
   15.5657   41.5761    8.7700 C   0  0  0  0  0  0  0  0  0  0  0  0
   16.1741   42.5906    8.0276 C   0  0  0  0  0  0  0  0  0  0  0  0
   15.4944   43.1736    6.9556 C   0  0  0  0  0  0  0  0  0  0  0  0
   14.9252   48.7715    2.6652 O   0  0  0  0  0  0  0  0  0  0  0  0
   15.0535   44.8858    4.7948 O   0  0  0  0  0  0  0  0  0  0  0  0
   13.6350   40.1247    9.1651 O   0  0  0  0  0  0  0  0  0  0  0  0
  1  4  1  0
  2 14  1  0
  3 15  1  0
  5  4  1  0
  5  6  1  0
  6  2  1  0
  7  2  1  0
  7  8  1  0
  9 10  2  0
 11 12  2  0
 13  8  2  0
 14  3  1  0
 16 17  2  0
 17 28  1  0
 18 28  1  0
 18 19  1  0
 19 20  1  0
 20 21  1  0
 21 22  1  0
 22 18  1  0
 23 24  2  0
 25 15  2  0
  4 26  2  0
  8  9  1  0
 10 11  1  0
 12 13  1  0
 14 27  2  0
 15 16  1  0
 17 23  1  0
 24 25  1  0
M  END
>  <rmsd>  (1) 
0.242090374

$$$$
