MolPort-007-686-722 ChemDiv-D039-0031 MCULE-4244727285 PubChem-23605069 ZINC000006809950 ZINC06809950
     RDKit          3D

 23 24  0  0  0  0  0  0  0  0999 V2000
   12.7789   39.2577   11.8269 C   0  0  0  0  0  0  0  0  0  0  0  0
   13.9086   38.9248   10.8750 C   0  0  0  0  0  0  0  0  0  0  0  0
   15.0106   40.6657    9.5255 C   0  0  0  0  0  0  0  0  0  0  0  0
   14.9582   41.6181    8.3974 C   0  0  0  0  0  0  0  0  0  0  0  0
   15.9547   42.4943    7.9836 C   0  0  0  0  0  0  0  0  0  0  0  0
   17.2998   42.6515    8.6048 C   0  0  0  0  0  0  0  0  0  0  0  0
   14.3071   42.8004    6.6480 C   0  0  0  0  0  0  0  0  0  0  0  0
   13.9063   44.3269    4.6581 C   0  0  0  0  0  0  0  0  0  0  0  0
   13.3335   45.5780    2.5222 C   0  0  0  0  0  0  0  0  0  0  0  0
   14.4707   45.3458    1.7148 C   0  0  0  0  0  0  0  0  0  0  0  0
   15.3680   44.1743    1.9263 C   0  0  0  0  0  0  0  0  0  0  0  0
   14.7365   46.1910    0.6322 C   0  0  0  0  0  0  0  0  0  0  0  0
   13.8795   47.2534    0.3371 C   0  0  0  0  0  0  0  0  0  0  0  0
   12.7412   47.4679    1.1159 C   0  0  0  0  0  0  0  0  0  0  0  0
   12.4671   46.6283    2.1981 C   0  0  0  0  0  0  0  0  0  0  0  0
   13.9005   41.8230    7.5300 C   0  0  0  0  0  0  0  0  0  0  0  0
   12.5765   41.1365    7.5302 C   0  0  0  0  0  0  0  0  0  0  0  0
   13.9101   39.8508    9.7989 O   0  0  0  0  0  0  0  0  0  0  0  0
   16.0470   40.5894   10.2405 O   0  0  0  0  0  0  0  0  0  0  0  0
   15.0329   44.8826    4.7688 O   0  0  0  0  0  0  0  0  0  0  0  0
   15.5611   43.2176    6.9156 N   0  0  0  0  0  0  0  0  0  0  0  0
   13.5016   43.3087    5.5781 N   0  0  0  0  0  0  0  0  0  0  0  0
   12.9954   44.7395    3.6349 N   0  0  0  0  0  0  0  0  0  0  0  0
  1  2  1  0
  2 18  1  0
  3 18  1  0
  3  4  1  0
  5 21  1  0
  6  5  1  0
  7 22  1  0
  8 23  1  0
 10 12  2  0
 11 10  1  0
 13 14  2  0
 15  9  2  0
 16  4  1  0
 17 16  1  0
 21  7  1  0
 22  8  1  0
 23  9  1  0
  3 19  2  0
  4  5  2  0
  7 16  2  0
  8 20  2  0
  9 10  1  0
 12 13  1  0
 14 15  1  0
M  END
>  <rmsd>  (1) 
0.19746609

$$$$
