MolPort-007-713-548 ChemDiv-E002-0459 MCULE-5755976766 PubChem-22509990 ZINC000006768187
     RDKit          3D

 26 28  0  0  0  0  0  0  0  0999 V2000
   15.1298   41.6183    8.5304 C   0  0  0  0  0  0  0  0  0  0  0  0
   16.8894   40.6375    9.9942 C   0  0  0  0  0  0  0  0  0  0  0  0
   17.2307   41.6410   11.0801 C   0  0  0  0  0  0  0  0  0  0  0  0
   14.4955   40.0325   10.3959 C   0  0  0  0  0  0  0  0  0  0  0  0
   13.2138   40.5656   10.6095 C   0  0  0  0  0  0  0  0  0  0  0  0
   12.2740   39.8729   11.3778 C   0  0  0  0  0  0  0  0  0  0  0  0
   12.6087   38.6426   11.9482 C   0  0  0  0  0  0  0  0  0  0  0  0
   13.8839   38.1068   11.7534 C   0  0  0  0  0  0  0  0  0  0  0  0
   14.8234   38.8000   10.9848 C   0  0  0  0  0  0  0  0  0  0  0  0
   14.2326   42.7799    6.6347 C   0  0  0  0  0  0  0  0  0  0  0  0
   13.9135   44.3463    4.6619 C   0  0  0  0  0  0  0  0  0  0  0  0
   13.3030   45.7928    2.6343 C   0  0  0  0  0  0  0  0  0  0  0  0
   12.3231   46.0786    1.6782 C   0  0  0  0  0  0  0  0  0  0  0  0
   12.5443   47.0625    0.7107 C   0  0  0  0  0  0  0  0  0  0  0  0
   13.7501   47.7682    0.6936 C   0  0  0  0  0  0  0  0  0  0  0  0
   14.7405   47.4952    1.6420 C   0  0  0  0  0  0  0  0  0  0  0  0
   16.9942   48.0039    2.5245 C   0  0  0  0  0  0  0  0  0  0  0  0
   14.5113   46.5054    2.6113 C   0  0  0  0  0  0  0  0  0  0  0  0
   15.4804   40.7545    9.6287 N   0  0  0  0  0  0  0  0  0  0  0  0
   15.9788   42.5370    8.0133 N   0  0  0  0  0  0  0  0  0  0  0  0
   15.4781   43.1874    6.9644 N   0  0  0  0  0  0  0  0  0  0  0  0
   13.4719   43.3109    5.5454 N   0  0  0  0  0  0  0  0  0  0  0  0
   13.0389   44.7763    3.6111 N   0  0  0  0  0  0  0  0  0  0  0  0
   15.0514   44.8689    4.8083 O   0  0  0  0  0  0  0  0  0  0  0  0
   15.9363   48.2173    1.6000 O   0  0  0  0  0  0  0  0  0  0  0  0
   13.6848   41.5594    7.6529 S   0  0  0  0  0  0  0  0  0  0  0  0
  1 19  1  0
  1 26  1  0
  2 19  1  0
  2  3  1  0
  5  6  2  0
  7  8  2  0
  9  4  2  0
 10 22  1  0
 10 26  1  0
 11 23  1  0
 13 14  2  0
 15 16  2  0
 16 25  1  0
 17 25  1  0
 18 12  2  0
 19  4  1  0
 20 21  1  0
 22 11  1  0
 23 12  1  0
  1 20  2  0
  4  5  1  0
  6  7  1  0
  8  9  1  0
 10 21  2  0
 11 24  2  0
 12 13  1  0
 14 15  1  0
 16 18  1  0
M  END
>  <rmsd>  (1) 
0.21238029

$$$$
