MolPort-003-117-060 8772077 CSSS03436996296 MCULE-9598085402 PubChem-16897556 ZINC000008772077 ZINC08772077
     RDKit          3D

 25 27  0  0  0  0  0  0  0  0999 V2000
   17.4653   42.8989    8.4759 C   0  0  0  0  0  0  0  0  0  0  0  0
   16.0945   42.5756    7.9895 C   0  0  0  0  0  0  0  0  0  0  0  0
   15.2606   41.6141    8.5746 C   0  0  0  0  0  0  0  0  0  0  0  0
   14.3096   42.8017    6.6499 C   0  0  0  0  0  0  0  0  0  0  0  0
   13.8926   44.3382    4.6718 C   0  0  0  0  0  0  0  0  0  0  0  0
   13.1832   45.7504    2.6518 C   0  0  0  0  0  0  0  0  0  0  0  0
   14.3796   46.4803    2.5726 C   0  0  0  0  0  0  0  0  0  0  0  0
   14.5490   47.4549    1.5851 C   0  0  0  0  0  0  0  0  0  0  0  0
   13.5235   47.7067    0.6700 C   0  0  0  0  0  0  0  0  0  0  0  0
   12.3297   46.9840    0.7427 C   0  0  0  0  0  0  0  0  0  0  0  0
   12.1617   46.0094    1.7310 C   0  0  0  0  0  0  0  0  0  0  0  0
   15.5982   40.7123    9.7006 C   0  0  0  0  0  0  0  0  0  0  0  0
   14.9322   38.8619   11.2492 C   0  0  0  0  0  0  0  0  0  0  0  0
   13.7626   38.3821   12.1062 C   0  0  0  0  0  0  0  0  0  0  0  0
   12.4963   38.3236   11.2576 C   0  0  0  0  0  0  0  0  0  0  0  0
   12.1474   39.6767   10.6199 C   0  0  0  0  0  0  0  0  0  0  0  0
   13.2823   40.7033   10.6929 C   0  0  0  0  0  0  0  0  0  0  0  0
   13.8169   41.5905    7.7002 S   0  0  0  0  0  0  0  0  0  0  0  0
   13.5002   43.3079    5.5841 N   0  0  0  0  0  0  0  0  0  0  0  0
   12.9722   44.7427    3.6505 N   0  0  0  0  0  0  0  0  0  0  0  0
   15.5586   43.2344    6.9274 N   0  0  0  0  0  0  0  0  0  0  0  0
   14.5805   40.0607   10.4797 N   0  0  0  0  0  0  0  0  0  0  0  0
   15.0277   44.8783    4.7677 O   0  0  0  0  0  0  0  0  0  0  0  0
   16.8115   40.4939    9.9666 O   0  0  0  0  0  0  0  0  0  0  0  0
   13.7343   48.9267   -0.5668 Cl  0  0  0  0  0  0  0  0  0  0  0  0
  1  2  1  0
  2 21  1  0
  3 18  1  0
  3 12  1  0
  4 18  1  0
  4 19  1  0
  5 20  1  0
  7  8  2  0
  9 25  1  0
  9 10  2  0
 11  6  2  0
 12 22  1  0
 13 22  1  0
 13 14  1  0
 14 15  1  0
 15 16  1  0
 16 17  1  0
 17 22  1  0
 19  5  1  0
 20  6  1  0
  2  3  2  0
  4 21  2  0
  5 23  2  0
  6  7  1  0
  8  9  1  0
 10 11  1  0
 12 24  2  0
M  END
>  <rmsd>  (1) 
0.219737038

$$$$
