MolPort-006-609-839 ChemDiv-V020-0836 MCULE-3240632637 PubChem-46069923 ZINC000034735291 ZINC34735291
     RDKit          3D

 28 31  0  0  0  0  0  0  0  0999 V2000
   16.2918   42.6213    7.9725 C   0  0  0  0  0  0  0  0  0  0  0  0
   15.5704   43.1869    6.9199 C   0  0  0  0  0  0  0  0  0  0  0  0
   14.2670   42.7531    6.6414 C   0  0  0  0  0  0  0  0  0  0  0  0
   13.6990   41.7463    7.4283 C   0  0  0  0  0  0  0  0  0  0  0  0
   14.4138   41.1598    8.4863 C   0  0  0  0  0  0  0  0  0  0  0  0
   15.7156   41.6163    8.7522 C   0  0  0  0  0  0  0  0  0  0  0  0
   14.3902   39.8559   10.6284 C   0  0  0  0  0  0  0  0  0  0  0  0
   13.2777   39.6055   11.6327 C   0  0  0  0  0  0  0  0  0  0  0  0
   12.4719   38.3769   11.2210 C   0  0  0  0  0  0  0  0  0  0  0  0
   12.7201   39.3061    8.8739 C   0  0  0  0  0  0  0  0  0  0  0  0
   11.0438   37.4881    9.3753 C   0  0  0  0  0  0  0  0  0  0  0  0
   11.6285   36.3621    8.5884 C   0  0  0  0  0  0  0  0  0  0  0  0
   11.4465   36.3104    7.2021 C   0  0  0  0  0  0  0  0  0  0  0  0
   12.0006   35.2619    6.4614 C   0  0  0  0  0  0  0  0  0  0  0  0
   12.7381   34.2640    7.1059 C   0  0  0  0  0  0  0  0  0  0  0  0
   12.9217   34.3143    8.4911 C   0  0  0  0  0  0  0  0  0  0  0  0
   12.3677   35.3626    9.2321 C   0  0  0  0  0  0  0  0  0  0  0  0
   13.8956   44.3494    4.6695 C   0  0  0  0  0  0  0  0  0  0  0  0
   12.9335   44.7903    3.6075 C   0  0  0  0  0  0  0  0  0  0  0  0
   12.7456   46.2957    3.6277 C   0  0  0  0  0  0  0  0  0  0  0  0
   13.4141   46.3981    2.2703 C   0  0  0  0  0  0  0  0  0  0  0  0
   13.6112   44.8946    2.2536 C   0  0  0  0  0  0  0  0  0  0  0  0
   13.8181   40.1343    9.3121 N   0  0  0  0  0  0  0  0  0  0  0  0
   12.0865   38.4112    9.8088 N   0  0  0  0  0  0  0  0  0  0  0  0
   13.4925   43.3107    5.5710 N   0  0  0  0  0  0  0  0  0  0  0  0
   12.3208   39.3483    7.6780 O   0  0  0  0  0  0  0  0  0  0  0  0
   15.0325   44.8889    4.7679 O   0  0  0  0  0  0  0  0  0  0  0  0
   13.2748   33.2484    6.3882 F   0  0  0  0  0  0  0  0  0  0  0  0
  2  3  2  0
  3 25  1  0
  4  5  2  0
  5 23  1  0
  6  1  2  0
  7 23  1  0
  7  8  1  0
  8  9  1  0
  9 24  1  0
 10 23  1  0
 11 24  1  0
 11 12  1  0
 13 14  2  0
 15 16  2  0
 15 28  1  0
 17 12  2  0
 19 18  1  0
 19 20  1  0
 20 21  1  0
 21 22  1  0
 22 19  1  0
 24 10  1  0
 25 18  1  0
  1  2  1  0
  3  4  1  0
  5  6  1  0
 10 26  2  0
 12 13  1  0
 14 15  1  0
 16 17  1  0
 18 27  2  0
M  END
>  <rmsd>  (1) 
0.245241791

$$$$
