MolPort-007-967-222 CHEMBL5013382 ChemDiv-L497-0043 MCULE-7356281051 PubChem-46385446 ZINC000033129556 ZINC33129556
     RDKit          3D

 25 27  0  0  0  0  0  0  0  0999 V2000
   16.5306   42.5037    5.4348 C   0  0  0  0  0  0  0  0  0  0  0  0
   15.6631   42.5204    6.6450 C   0  0  0  0  0  0  0  0  0  0  0  0
   14.3065   42.8521    6.7076 C   0  0  0  0  0  0  0  0  0  0  0  0
   13.9734   44.2001    4.5713 C   0  0  0  0  0  0  0  0  0  0  0  0
   13.1821   44.3589    3.3388 C   0  0  0  0  0  0  0  0  0  0  0  0
   12.0023   43.6236    3.1551 C   0  0  0  0  0  0  0  0  0  0  0  0
   11.2508   43.7710    1.9855 C   0  0  0  0  0  0  0  0  0  0  0  0
   11.6757   44.6568    0.9891 C   0  0  0  0  0  0  0  0  0  0  0  0
   12.8508   45.3924    1.1648 C   0  0  0  0  0  0  0  0  0  0  0  0
   13.6013   45.2441    2.3346 C   0  0  0  0  0  0  0  0  0  0  0  0
   13.7250   42.6132    7.9589 C   0  0  0  0  0  0  0  0  0  0  0  0
   14.6435   42.1261    8.8784 C   0  0  0  0  0  0  0  0  0  0  0  0
   13.4422   39.3288    9.8959 C   0  0  0  0  0  0  0  0  0  0  0  0
   12.7546   38.2723   10.7235 C   0  0  0  0  0  0  0  0  0  0  0  0
   12.8630   38.7880   12.1287 C   0  0  0  0  0  0  0  0  0  0  0  0
   14.1073   39.6493   12.1234 C   0  0  0  0  0  0  0  0  0  0  0  0
   13.5210   43.3119    5.6010 N   0  0  0  0  0  0  0  0  0  0  0  0
   14.4435   39.9734   10.7387 N   0  0  0  0  0  0  0  0  0  0  0  0
   15.0218   44.8815    4.7373 O   0  0  0  0  0  0  0  0  0  0  0  0
   15.2465   42.4016   11.4473 O   0  0  0  0  0  0  0  0  0  0  0  0
   12.8829   42.1230   10.8755 O   0  0  0  0  0  0  0  0  0  0  0  0
   10.1125   43.0538    1.8222 F   0  0  0  0  0  0  0  0  0  0  0  0
   10.9523   44.8050   -0.1474 F   0  0  0  0  0  0  0  0  0  0  0  0
   16.1467   41.9505    8.1490 S   0  0  0  0  0  0  0  0  0  0  0  0
   14.2839   41.6904   10.5379 S   0  0  0  0  0  0  0  0  0  0  0  0
  1  2  1  0
  2 24  1  0
  3 17  1  0
  3 11  1  0
  4  5  1  0
  6  7  2  0
  7 22  1  0
  8 23  1  0
  8  9  2  0
 10  5  2  0
 12 24  1  0
 13 18  1  0
 13 14  1  0
 14 15  1  0
 15 16  1  0
 16 18  1  0
 17  4  1  0
 25 12  1  0
 25 18  1  0
  2  3  2  0
  4 19  2  0
  5  6  1  0
  7  8  1  0
  9 10  1  0
 11 12  2  0
 25 20  2  0
 25 21  2  0
M  END
>  <rmsd>  (1) 
0.246856332

$$$$
