Molport-046-959-955 MCULE-9815740437 PubChem-110097712
     RDKit          3D

 26 29  0  0  0  0  0  0  0  0999 V2000
    8.9359   38.6145    7.6630 C   0  0  0  0  0  0  0  0  0  0  0  0
   10.9571   37.5767    8.6567 C   0  0  0  0  0  0  0  0  0  0  0  0
   12.2558   37.3888    8.2331 C   0  0  0  0  0  0  0  0  0  0  0  0
   12.3597   37.9356    6.9678 C   0  0  0  0  0  0  0  0  0  0  0  0
   13.3690   36.7534    9.0181 C   0  0  0  0  0  0  0  0  0  0  0  0
   13.1158   38.0789   11.0118 C   0  0  0  0  0  0  0  0  0  0  0  0
   13.6092   39.3301   11.7352 C   0  0  0  0  0  0  0  0  0  0  0  0
   13.6901   40.5235   10.7787 C   0  0  0  0  0  0  0  0  0  0  0  0
   13.8433   40.0977    9.3144 C   0  0  2  0  0  0  0  0  0  0  0  0
   14.6490   38.7995    9.1906 C   0  0  0  0  0  0  0  0  0  0  0  0
   14.4326   41.1906    8.4834 C   0  0  0  0  0  0  0  0  0  0  0  0
   13.6844   41.7242    7.4318 C   0  0  0  0  0  0  0  0  0  0  0  0
   14.2272   42.7431    6.6452 C   0  0  0  0  0  0  0  0  0  0  0  0
   16.2297   42.7020    7.9294 C   0  0  0  0  0  0  0  0  0  0  0  0
   15.7191   41.6833    8.7353 C   0  0  0  0  0  0  0  0  0  0  0  0
   13.8508   44.3208    4.6701 C   0  0  0  0  0  0  0  0  0  0  0  0
   15.4501   45.9008    3.9141 C   0  0  0  0  0  0  0  0  0  0  0  0
   14.5697   46.3141    2.9133 C   0  0  0  0  0  0  0  0  0  0  0  0
   12.9722   44.7369    3.6675 C   0  0  0  0  0  0  0  0  0  0  0  0
   10.3291   38.2109    7.6531 N   0  0  0  0  0  0  0  0  0  0  0  0
   11.1509   38.4321    6.6409 N   0  0  0  0  0  0  0  0  0  0  0  0
   14.0420   37.6790    9.9380 N   0  0  0  0  0  0  0  0  0  0  0  0
   15.4811   43.2056    6.9117 N   0  0  0  0  0  0  0  0  0  0  0  0
   13.4487   43.2810    5.5696 N   0  0  0  0  0  0  0  0  0  0  0  0
   15.0721   44.9146    4.7694 N   0  0  0  0  0  0  0  0  0  0  0  0
   13.3500   45.7231    2.8119 N   0  0  0  0  0  0  0  0  0  0  0  0
  1 20  1  0
  3  4  1  0
  5  3  1  0
  5 22  1  0
  6 22  1  0
  6  7  1  0
  7  8  1  0
  8  9  1  0
  9 10  1  0
  9 11  1  6
 10 22  1  0
 12 13  2  0
 13 24  1  0
 14 23  2  0
 15 11  2  0
 17 25  2  0
 18 26  2  0
 19 16  2  0
 20  2  1  0
 20 21  1  0
 24 16  1  0
  2  3  2  0
  4 21  2  0
 11 12  1  0
 13 23  1  0
 14 15  1  0
 16 25  1  0
 17 18  1  0
 19 26  1  0
M  END
>  <rmsd>  (1) 
0.249518186

$$$$
