MolPort-010-722-898 21721278 ChemDiv-J015-0289 MCULE-1637542318 PubChem-22587065 ZINC000021721278 ZINC21721278
     RDKit          3D

 24 26  0  0  0  0  0  0  0  0999 V2000
   13.3412   39.2413   11.2157 C   0  0  0  0  0  0  0  0  0  0  0  0
   13.8764   40.0191    9.2220 C   0  0  0  0  0  0  0  0  0  0  0  0
   14.4680   41.1352    8.4331 C   0  0  0  0  0  0  0  0  0  0  0  0
   15.7559   41.6003    8.7212 C   0  0  0  0  0  0  0  0  0  0  0  0
   16.3074   42.6410    7.9697 C   0  0  0  0  0  0  0  0  0  0  0  0
   15.5732   43.2150    6.9281 C   0  0  0  0  0  0  0  0  0  0  0  0
   14.2826   42.7511    6.6294 C   0  0  0  0  0  0  0  0  0  0  0  0
   13.8832   44.3705    4.6761 C   0  0  0  0  0  0  0  0  0  0  0  0
   12.9119   44.8310    3.6564 C   0  0  0  0  0  0  0  0  0  0  0  0
   10.7078   44.5740    2.7575 C   0  0  0  0  0  0  0  0  0  0  0  0
   10.9543   45.5714    1.8108 C   0  0  0  0  0  0  0  0  0  0  0  0
   12.1953   46.2016    1.7908 C   0  0  0  0  0  0  0  0  0  0  0  0
   13.1877   45.8453    2.7057 C   0  0  0  0  0  0  0  0  0  0  0  0
    9.0717   42.9251    3.6424 C   0  0  0  0  0  0  0  0  0  0  0  0
    8.3682   44.1245    2.0182 C   0  0  0  0  0  0  0  0  0  0  0  0
   13.7376   41.7089    7.3876 C   0  0  0  0  0  0  0  0  0  0  0  0
   13.7066   40.4108   10.5505 O   0  0  0  0  0  0  0  0  0  0  0  0
   15.0267   44.8895    4.7665 O   0  0  0  0  0  0  0  0  0  0  0  0
   13.4978   43.3148    5.5698 N   0  0  0  0  0  0  0  0  0  0  0  0
   11.6848   44.2369    3.6430 N   0  0  0  0  0  0  0  0  0  0  0  0
    9.4404   43.9067    2.8010 N   0  0  0  0  0  0  0  0  0  0  0  0
    7.8053   42.5519    3.3800 N   0  0  0  0  0  0  0  0  0  0  0  0
    7.3693   43.2953    2.3735 N   0  0  0  0  0  0  0  0  0  0  0  0
   14.8513   46.7878    2.5655 Br  0  0  0  0  0  0  0  0  0  0  0  0
  1 17  1  0
  2 17  1  0
  2  3  1  0
  4  5  2  0
  6  7  2  0
  7 19  1  0
  8  9  1  0
 10 20  2  0
 10 21  1  0
 11 12  2  0
 13 24  1  0
 13  9  2  0
 15 21  1  0
 16  3  2  0
 19  8  1  0
 21 14  1  0
 22 23  1  0
  3  4  1  0
  5  6  1  0
  7 16  1  0
  8 18  2  0
  9 20  1  0
 10 11  1  0
 12 13  1  0
 14 22  2  0
 15 23  2  0
M  END
>  <rmsd>  (1) 
0.241809919

$$$$
