MolPort-019-839-885 41070600 CSSS03437762688 MCULE-8219256078 PubChem-52095553 ZINC000041070600 ZINC41070600
     RDKit          3D

 29 31  0  0  0  0  0  0  0  0999 V2000
   15.5414   46.8192    1.4255 C   0  0  0  0  0  0  0  0  0  0  0  0
   13.8186   45.2226    2.2204 C   0  0  0  0  0  0  0  0  0  0  0  0
   13.3297   44.3712    3.2409 C   0  0  0  0  0  0  0  0  0  0  0  0
   12.1452   43.6515    3.0180 C   0  0  0  0  0  0  0  0  0  0  0  0
   11.4499   43.7675    1.8136 C   0  0  0  0  0  0  0  0  0  0  0  0
   11.9308   44.6073    0.8106 C   0  0  0  0  0  0  0  0  0  0  0  0
   13.1071   45.3296    1.0126 C   0  0  0  0  0  0  0  0  0  0  0  0
   14.0231   44.2045    4.5406 C   0  0  0  0  0  0  0  0  0  0  0  0
   14.1669   42.8508    6.6905 C   0  0  0  0  0  0  0  0  0  0  0  0
   13.5716   42.5580    7.8931 C   0  0  0  0  0  0  0  0  0  0  0  0
   14.5909   42.0466    8.6755 C   0  0  0  0  0  0  0  0  0  0  0  0
   16.4336   42.4874    5.6681 C   0  0  0  0  0  0  0  0  0  0  0  0
   14.4792   41.5734   10.0607 C   0  0  0  0  0  0  0  0  0  0  0  0
   15.6485   40.3433   11.9641 C   0  0  0  0  0  0  0  0  0  0  0  0
   14.6505   39.4002   12.2854 C   0  0  0  0  0  0  0  0  0  0  0  0
   14.7176   38.6976   13.4928 C   0  0  0  0  0  0  0  0  0  0  0  0
   15.7742   38.9194   14.3789 C   0  0  0  0  0  0  0  0  0  0  0  0
   16.7806   39.8300   14.0505 C   0  0  0  0  0  0  0  0  0  0  0  0
   16.7194   40.5334   12.8448 C   0  0  0  0  0  0  0  0  0  0  0  0
   15.0001   45.9500    2.4112 O   0  0  0  0  0  0  0  0  0  0  0  0
   15.0620   44.8684    4.8035 O   0  0  0  0  0  0  0  0  0  0  0  0
   13.3766   41.6538   10.6663 O   0  0  0  0  0  0  0  0  0  0  0  0
   13.4751   43.3214    5.5273 N   0  0  0  0  0  0  0  0  0  0  0  0
   15.7342   42.0106    7.9571 N   0  0  0  0  0  0  0  0  0  0  0  0
   15.4690   42.4998    6.7548 N   0  0  0  0  0  0  0  0  0  0  0  0
   15.6423   41.0738   10.7309 N   0  0  0  0  0  0  0  0  0  0  0  0
   12.2671   42.7191    8.2260 F   0  0  0  0  0  0  0  0  0  0  0  0
   13.6509   39.1092   11.4174 F   0  0  0  0  0  0  0  0  0  0  0  0
   15.8325   38.2377   15.5479 F   0  0  0  0  0  0  0  0  0  0  0  0
  1 20  1  0
  2 20  1  0
  3  4  2  0
  3  8  1  0
  5  6  2  0
  7  2  2  0
  8 23  1  0
 10 27  1  0
 10 11  1  0
 11 13  1  0
 12 25  1  0
 13 26  1  0
 15 28  1  0
 15 16  2  0
 17 29  1  0
 17 18  2  0
 19 14  2  0
 23  9  1  0
 25 24  1  0
 25  9  1  0
 26 14  1  0
  2  3  1  0
  4  5  1  0
  6  7  1  0
  8 21  2  0
  9 10  2  0
 11 24  2  0
 13 22  2  0
 14 15  1  0
 16 17  1  0
 18 19  1  0
M  END
>  <rmsd>  (1) 
0.243512988

$$$$
