MolPort-029-894-951 96141649 CSSS00160105277 MCULE-8661123684 PubChem-72876543 ZINC000096141649
     RDKit          3D

 25 28  0  0  0  0  0  0  0  0999 V2000
   15.0567   44.8871    4.7990 O   0  0  0  0  0  0  0  0  0  0  0  0
   13.6027   40.1344    9.1718 O   0  0  0  0  0  0  0  0  0  0  0  0
   13.9205   44.3622    4.6479 C   0  0  0  0  0  0  0  0  0  0  0  0
   13.4479   45.8258    2.6321 C   0  0  0  0  0  0  0  0  0  0  0  0
   14.4121   45.2628    1.6376 C   0  0  0  0  0  0  0  0  0  0  0  0
   14.1231   44.3004    0.6959 C   0  0  0  0  0  0  0  0  0  0  0  0
   16.2139   44.8149    0.5672 C   0  0  0  0  0  0  0  0  0  0  0  0
   16.4651   46.5044    2.4027 C   0  0  0  0  0  0  0  0  0  0  0  0
   15.9858   47.9305    2.1919 C   0  0  0  0  0  0  0  0  0  0  0  0
   17.2792   47.4720    1.5595 C   0  0  0  0  0  0  0  0  0  0  0  0
   14.1927   42.7428    6.6169 C   0  0  0  0  0  0  0  0  0  0  0  0
   13.5813   41.7347    7.3703 C   0  0  0  0  0  0  0  0  0  0  0  0
   14.2495   41.1404    8.4459 C   0  0  0  0  0  0  0  0  0  0  0  0
   14.1785   39.4999   10.3088 C   0  0  0  0  0  0  0  0  0  0  0  0
   14.0481   40.3987   11.5282 C   0  0  0  0  0  0  0  0  0  0  0  0
   13.5072   39.5273   12.6383 C   0  0  0  0  0  0  0  0  0  0  0  0
   12.7120   38.4508   11.9408 C   0  0  0  0  0  0  0  0  0  0  0  0
   13.4152   38.2244   10.6197 C   0  0  0  0  0  0  0  0  0  0  0  0
   15.5495   41.5619    8.7674 C   0  0  0  0  0  0  0  0  0  0  0  0
   16.1677   42.5672    8.0206 C   0  0  0  0  0  0  0  0  0  0  0  0
   15.4916   43.1557    6.9491 C   0  0  0  0  0  0  0  0  0  0  0  0
   13.0598   44.8062    3.5973 N   0  0  0  0  0  0  0  0  0  0  0  0
   15.2621   44.0252    0.0245 N   0  0  0  0  0  0  0  0  0  0  0  0
   15.7118   45.5928    1.5445 N   0  0  0  0  0  0  0  0  0  0  0  0
   13.4678   43.3215    5.5229 N   0  0  0  0  0  0  0  0  0  0  0  0
  3 22  1  0
  3 25  1  0
  4 22  1  0
  4  5  1  0
  6 23  1  0
  7 24  1  0
  8 24  1  0
  8  9  1  0
  9 10  1  0
 10  8  1  0
 12 13  2  0
 13  2  1  0
 14  2  1  0
 14 15  1  0
 15 16  1  0
 16 17  1  0
 17 18  1  0
 18 14  1  0
 19 20  2  0
 21 11  2  0
 24  5  1  0
 25 11  1  0
  3  1  2  0
  5  6  2  0
  7 23  2  0
 11 12  1  0
 13 19  1  0
 20 21  1  0
M  END
>  <rmsd>  (1) 
0.248772576

$$$$
