MolPort-019-932-358 35425025 CSSS00159291589 MCULE-9394894356 PubChem-45783427 ZINC000035425025
     RDKit          3D

 32 35  0  0  0  0  0  0  0  0999 V2000
    9.7313   39.0714   16.3121 C   0  0  0  0  0  0  0  0  0  0  0  0
    9.5763   40.7818   14.9276 C   0  0  0  0  0  0  0  0  0  0  0  0
    9.4462   41.2076   13.4778 C   0  0  0  0  0  0  0  0  0  0  0  0
   10.0615   39.6940   11.6286 C   0  0  0  0  0  0  0  0  0  0  0  0
   11.0551   39.0257   10.8812 C   0  0  0  0  0  0  0  0  0  0  0  0
   10.6522   38.1968    9.8267 C   0  0  0  0  0  0  0  0  0  0  0  0
    9.3007   38.0370    9.5264 C   0  0  0  0  0  0  0  0  0  0  0  0
    8.3513   38.7129   10.2901 C   0  0  0  0  0  0  0  0  0  0  0  0
   12.4997   39.1684   11.1659 C   0  0  0  0  0  0  0  0  0  0  0  0
   14.5762   38.9751   11.0727 C   0  0  0  0  0  0  0  0  0  0  0  0
   15.9646   38.5983   10.6424 C   0  0  2  0  0  0  0  0  0  0  0  0
   16.9524   38.5258   11.7805 C   0  0  0  0  0  0  0  0  0  0  0  0
   18.2861   38.7010   11.0984 C   0  0  0  0  0  0  0  0  0  0  0  0
   17.9768   39.2542    9.7123 C   0  0  0  0  0  0  0  0  0  0  0  0
   16.3002   40.8721    9.8661 C   0  0  0  0  0  0  0  0  0  0  0  0
   15.5709   41.5024    8.7283 C   0  0  0  0  0  0  0  0  0  0  0  0
   16.1891   42.5102    7.9833 C   0  0  0  0  0  0  0  0  0  0  0  0
   15.5070   43.1156    6.9236 C   0  0  0  0  0  0  0  0  0  0  0  0
   14.1991   42.7201    6.6029 C   0  0  0  0  0  0  0  0  0  0  0  0
   13.9180   44.3704    4.6622 C   0  0  0  0  0  0  0  0  0  0  0  0
   13.0228   44.8571    3.5808 C   0  0  0  0  0  0  0  0  0  0  0  0
   13.5846   41.7138    7.3560 C   0  0  0  0  0  0  0  0  0  0  0  0
   14.2652   41.1081    8.4156 C   0  0  0  0  0  0  0  0  0  0  0  0
    9.2462   39.4325   15.0559 O   0  0  0  0  0  0  0  0  0  0  0  0
   10.4161   40.5322   12.6893 O   0  0  0  0  0  0  0  0  0  0  0  0
   14.2972   39.8078   12.0447 O   0  0  0  0  0  0  0  0  0  0  0  0
   15.0564   44.8901    4.8022 O   0  0  0  0  0  0  0  0  0  0  0  0
    8.7466   39.5167   11.3116 N   0  0  0  0  0  0  0  0  0  0  0  0
   13.0112   39.9529   12.1366 N   0  0  0  0  0  0  0  0  0  0  0  0
   13.4616   38.5297   10.4643 N   0  0  0  0  0  0  0  0  0  0  0  0
   16.5356   39.4525    9.5935 N   0  0  0  0  0  0  0  0  0  0  0  0
   13.4674   43.3178    5.5243 N   0  0  0  0  0  0  0  0  0  0  0  0
  1 24  1  0
  2 24  1  0
  2  3  1  0
  3 25  1  0
  4 25  1  0
  4 28  2  0
  5  6  2  0
  5  9  1  0
  7  8  2  0
  9 30  1  0
 10 26  1  0
 11 10  1  1
 11 12  1  0
 11 31  1  0
 12 13  1  0
 13 14  1  0
 14 31  1  0
 15 31  1  0
 15 16  1  0
 17 18  2  0
 19 32  1  0
 19 22  2  0
 21 20  1  0
 23 16  2  0
 29 26  1  0
 32 20  1  0
  4  5  1  0
  6  7  1  0
  8 28  1  0
  9 29  2  0
 10 30  2  0
 16 17  1  0
 18 19  1  0
 20 27  2  0
 22 23  1  0
M  END
>  <rmsd>  (1) 
0.243446723

$$$$
