MolPort-039-210-473 CSSS03436999701 MCULE-9158305354 PubChem-121017026
     RDKit          3D

 23 25  0  0  0  0  0  0  0  0999 V2000
   13.9748   46.8720    2.5340 C   0  0  0  0  0  0  0  0  0  0  0  0
   12.7201   46.1755    2.9291 C   0  0  0  0  0  0  0  0  0  0  0  0
   12.5369   45.3366    4.0076 C   0  0  0  0  0  0  0  0  0  0  0  0
   11.2076   44.9801    3.9275 C   0  0  0  0  0  0  0  0  0  0  0  0
   10.4645   44.0968    4.8675 C   0  0  0  0  0  0  0  0  0  0  0  0
   14.2175   42.5404    6.6604 C   0  0  0  0  0  0  0  0  0  0  0  0
   14.0561   41.2292    7.0436 C   0  0  0  0  0  0  0  0  0  0  0  0
   15.1533   39.7688    8.7262 C   0  0  0  0  0  0  0  0  0  0  0  0
   14.5263   39.8541   10.1088 C   0  0  1  0  0  0  0  0  0  0  0  0
   12.9906   39.8509   10.0044 C   0  0  0  0  0  0  0  0  0  0  0  0
   12.3548   38.9317   11.0505 C   0  0  0  0  0  0  0  0  0  0  0  0
   13.0761   39.0263   12.3974 C   0  0  0  0  0  0  0  0  0  0  0  0
   14.6022   39.0915   12.2222 C   0  0  0  0  0  0  0  0  0  0  0  0
   15.2365   43.0854    7.4187 C   0  0  0  0  0  0  0  0  0  0  0  0
   10.6480   45.5735    2.8556 N   0  0  0  0  0  0  0  0  0  0  0  0
   13.4515   43.2043    5.6553 N   0  0  0  0  0  0  0  0  0  0  0  0
   14.9710   41.0188    8.0060 N   0  0  0  0  0  0  0  0  0  0  0  0
   15.6772   42.1139    8.2417 N   0  0  0  0  0  0  0  0  0  0  0  0
   11.5818   46.2794    2.2827 O   0  0  0  0  0  0  0  0  0  0  0  0
   13.5310   45.7339    6.4451 O   0  0  0  0  0  0  0  0  0  0  0  0
   15.1003   45.0213    4.6905 O   0  0  0  0  0  0  0  0  0  0  0  0
   14.9843   38.7870   10.9024 O   0  0  0  0  0  0  0  0  0  0  0  0
   13.7077   44.8637    5.2329 S   0  0  0  0  0  0  0  0  0  0  0  0
  1  2  1  0
  2 19  1  0
  3  4  1  0
  5  4  1  0
  7 17  1  0
  8 17  1  0
  9  8  1  6
  9 10  1  0
  9 22  1  0
 10 11  1  0
 11 12  1  0
 12 13  1  0
 13 22  1  0
 14  6  1  0
 15 19  1  0
 16  6  1  0
 17 18  1  0
 23  3  1  0
 23 16  1  0
  2  3  2  0
  4 15  2  0
  6  7  2  0
 14 18  2  0
 23 20  2  0
 23 21  2  0
M  END
>  <rmsd>  (1) 
0.228201985

$$$$
