MolPort-046-958-460 MCULE-2708163713 PubChem-110093732
     RDKit          3D

 30 33  0  0  0  0  0  0  0  0999 V2000
   10.3321   32.4389   12.4147 C   0  0  0  0  0  0  0  0  0  0  0  0
   10.8756   33.5644   11.6009 C   0  0  0  0  0  0  0  0  0  0  0  0
   11.9764   33.3873   10.7417 C   0  0  0  0  0  0  0  0  0  0  0  0
   12.4550   34.4694    9.9964 C   0  0  0  0  0  0  0  0  0  0  0  0
   11.8447   35.7234   10.0980 C   0  0  0  0  0  0  0  0  0  0  0  0
   10.7537   35.8981   10.9551 C   0  0  0  0  0  0  0  0  0  0  0  0
   10.2708   34.8213   11.7028 C   0  0  0  0  0  0  0  0  0  0  0  0
   13.6970   38.0581   11.3159 C   0  0  0  0  0  0  0  0  0  0  0  0
   12.8876   39.3489   11.4512 C   0  0  0  0  0  0  0  0  0  0  0  0
   13.5781   40.4718   10.6973 C   0  0  0  0  0  0  0  0  0  0  0  0
   13.7351   40.0718    9.2369 C   0  0  2  0  0  0  0  0  0  0  0  0
   14.5207   38.7606    9.1241 C   0  0  0  0  0  0  0  0  0  0  0  0
   14.3901   41.1592    8.4470 C   0  0  0  0  0  0  0  0  0  0  0  0
   14.2466   42.7260    6.6568 C   0  0  0  0  0  0  0  0  0  0  0  0
   15.5428   43.1798    6.9360 C   0  0  0  0  0  0  0  0  0  0  0  0
   16.2625   42.6090    7.9858 C   0  0  0  0  0  0  0  0  0  0  0  0
   15.6881   41.5930    8.7485 C   0  0  0  0  0  0  0  0  0  0  0  0
   13.8420   44.3208    4.6796 C   0  0  0  0  0  0  0  0  0  0  0  0
   15.4137   45.9105    3.8854 C   0  0  0  0  0  0  0  0  0  0  0  0
   14.5085   46.3167    2.9040 C   0  0  0  0  0  0  0  0  0  0  0  0
   12.9389   44.7301    3.6960 C   0  0  0  0  0  0  0  0  0  0  0  0
   12.6540   32.0661   10.6035 C   0  0  0  0  0  0  0  0  0  0  0  0
   12.4666   37.0772    9.1700 S   0  0  0  0  0  0  0  0  0  0  0  0
   11.4225   38.1579    9.1011 O   0  0  0  0  0  0  0  0  0  0  0  0
   12.7687   36.6124    7.7727 O   0  0  0  0  0  0  0  0  0  0  0  0
   13.9262   37.6727    9.9146 N   0  0  0  0  0  0  0  0  0  0  0  0
   13.7099   41.7328    7.4172 N   0  0  0  0  0  0  0  0  0  0  0  0
   13.4640   43.2785    5.5888 N   0  0  0  0  0  0  0  0  0  0  0  0
   15.0612   44.9232    4.7502 N   0  0  0  0  0  0  0  0  0  0  0  0
   13.2909   45.7176    2.8308 N   0  0  0  0  0  0  0  0  0  0  0  0
  1  2  1  0
  3  4  2  0
  5  6  2  0
  7  2  2  0
  8 26  1  0
  8  9  1  0
  9 10  1  0
 10 11  1  0
 11 12  1  0
 11 13  1  6
 12 26  1  0
 14 27  2  0
 14 28  1  0
 15 16  2  0
 17 13  2  0
 19 29  2  0
 20 30  2  0
 21 18  2  0
 22  3  1  0
 23  5  1  0
 23 26  1  0
 28 18  1  0
  2  3  1  0
  4  5  1  0
  6  7  1  0
 13 27  1  0
 14 15  1  0
 16 17  1  0
 18 29  1  0
 19 20  1  0
 21 30  1  0
 23 24  2  0
 23 25  2  0
M  END
>  <rmsd>  (1) 
0.248986751

$$$$
