MolPort-016-633-464 5592833 MCULE-8029622606 PubChem-6117359 ZINC000005592833
     RDKit          3D

 25 27  0  0  0  0  0  0  0  0999 V2000
   13.3506   38.6478   11.2705 C   0  0  0  0  0  0  0  0  0  0  0  0
   13.4984   40.1234   11.5938 C   0  0  0  0  0  0  0  0  0  0  0  0
   14.8381   40.8519    9.6437 C   0  0  0  0  0  0  0  0  0  0  0  0
   14.9271   41.6235    8.3915 C   0  0  0  0  0  0  0  0  0  0  0  0
   13.9176   42.3599    7.7677 C   0  0  0  0  0  0  0  0  0  0  0  0
   12.5338   42.5692    8.2859 C   0  0  0  0  0  0  0  0  0  0  0  0
   13.9266   44.3208    4.6457 C   0  0  0  0  0  0  0  0  0  0  0  0
   15.5811   42.2858    6.3900 C   0  0  0  0  0  0  0  0  0  0  0  0
   15.9787   41.6173    7.4895 C   0  0  0  0  0  0  0  0  0  0  0  0
   17.0370   40.6089    7.2157 C   0  0  0  0  0  0  0  0  0  0  0  0
   17.2553   40.7310    5.6901 C   0  0  0  0  0  0  0  0  0  0  0  0
   16.2675   41.7685    5.2231 C   0  0  0  0  0  0  0  0  0  0  0  0
   15.9988   42.1124    3.9594 C   0  0  0  0  0  0  0  0  0  0  0  0
   16.6416   41.5906    2.7387 C   0  0  0  0  0  0  0  0  0  0  0  0
   17.6749   40.6412    2.7691 C   0  0  0  0  0  0  0  0  0  0  0  0
   18.2506   40.1830    1.5804 C   0  0  0  0  0  0  0  0  0  0  0  0
   17.7977   40.6712    0.3522 C   0  0  0  0  0  0  0  0  0  0  0  0
   16.7702   41.6173    0.3136 C   0  0  0  0  0  0  0  0  0  0  0  0
   16.1956   42.0744    1.5034 C   0  0  0  0  0  0  0  0  0  0  0  0
   13.6617   40.8786   10.3992 O   0  0  0  0  0  0  0  0  0  0  0  0
   15.8307   40.1794   10.0360 O   0  0  0  0  0  0  0  0  0  0  0  0
   15.0358   44.8939    4.8106 O   0  0  0  0  0  0  0  0  0  0  0  0
   14.3252   42.7558    6.5406 N   0  0  0  0  0  0  0  0  0  0  0  0
   13.4907   43.3049    5.5515 N   0  0  0  0  0  0  0  0  0  0  0  0
   13.0846   44.7119    3.5686 N   0  0  0  0  0  0  0  0  0  0  0  0
  1  2  1  0
  2 20  1  0
  3 20  1  0
  3  4  1  0
  5 23  1  0
  6  5  1  0
  7 25  1  0
  9  4  1  0
 10  9  1  0
 10 11  1  0
 11 12  1  0
 12  8  1  0
 13 14  1  0
 15 16  2  0
 17 18  2  0
 19 14  2  0
 23 24  1  0
 23  8  1  0
 24  7  1  0
  3 21  2  0
  4  5  2  0
  7 22  2  0
  8  9  2  0
 12 13  2  0
 14 15  1  0
 16 17  1  0
 18 19  1  0
M  END
>  <rmsd>  (1) 
0.199083373

$$$$
