MolPort-002-458-232 2877914 CSSS00159749525 MCULE-9071127759 PubChem-2230166 ZINC000002877914 ZINC02877914
     RDKit          3D

 23 25  0  0  0  0  0  0  0  0999 V2000
   12.8691   39.5471   10.0124 F   0  0  0  0  0  0  0  0  0  0  0  0
   14.4437   38.5229   11.2594 F   0  0  0  0  0  0  0  0  0  0  0  0
   12.4275   38.9779   12.1390 F   0  0  0  0  0  0  0  0  0  0  0  0
   13.4102   39.4418   11.2800 C   0  0  0  0  0  0  0  0  0  0  0  0
   13.9328   40.7858   11.7268 C   0  0  0  0  0  0  0  0  0  0  0  0
   13.3912   41.3876   12.8740 C   0  0  0  0  0  0  0  0  0  0  0  0
   13.8648   42.6202   13.3269 C   0  0  0  0  0  0  0  0  0  0  0  0
   14.8915   43.2672   12.6398 C   0  0  0  0  0  0  0  0  0  0  0  0
   15.4418   42.6840   11.4980 C   0  0  0  0  0  0  0  0  0  0  0  0
   14.9680   41.4516   11.0281 C   0  0  0  0  0  0  0  0  0  0  0  0
   15.5914   40.8640    9.7980 C   0  0  0  0  0  0  0  0  0  0  0  0
   15.2667   41.6770    8.5892 C   0  0  0  0  0  0  0  0  0  0  0  0
   16.0833   42.6603    8.0440 C   0  0  0  0  0  0  0  0  0  0  0  0
   14.3120   42.8216    6.6713 C   0  0  0  0  0  0  0  0  0  0  0  0
   13.8877   44.3419    4.6813 C   0  0  0  0  0  0  0  0  0  0  0  0
   12.9467   44.7543    3.5964 C   0  0  0  0  0  0  0  0  0  0  0  0
   12.6363   46.2356    3.7156 C   0  0  0  0  0  0  0  0  0  0  0  0
   11.6317   45.2149    4.1989 C   0  0  0  0  0  0  0  0  0  0  0  0
   15.4896   44.8102   13.2085 Cl  0  0  0  0  0  0  0  0  0  0  0  0
   15.5435   43.2933    6.9684 N   0  0  0  0  0  0  0  0  0  0  0  0
   13.5042   43.3070    5.5949 N   0  0  0  0  0  0  0  0  0  0  0  0
   15.0263   44.8785    4.7553 O   0  0  0  0  0  0  0  0  0  0  0  0
   13.8270   41.6047    7.7218 S   0  0  0  0  0  0  0  0  0  0  0  0
  4  1  1  0
  4  2  1  0
  4  3  1  0
  4  5  1  0
  6  7  2  0
  8 19  1  0
  8  9  2  0
 10  5  2  0
 11 10  1  0
 11 12  1  0
 12 23  1  0
 13 20  1  0
 14 21  1  0
 14 23  1  0
 16 15  1  0
 16 17  1  0
 17 18  1  0
 18 16  1  0
 21 15  1  0
  5  6  1  0
  7  8  1  0
  9 10  1  0
 12 13  2  0
 14 20  2  0
 15 22  2  0
M  END
>  <rmsd>  (1) 
0.243689939

$$$$
