Molport-052-053-362
     RDKit          3D

 26 28  0  0  0  0  0  0  0  0999 V2000
   12.3353   42.0625   10.3224 C   0  0  0  0  0  0  0  0  0  0  0  0
   13.6463   41.3000   10.0563 C   0  0  2  0  0  0  0  0  0  0  0  0
   13.4064   39.2126   11.3617 C   0  0  0  0  0  0  0  0  0  0  0  0
   12.5268   39.2867    9.0137 C   0  0  0  0  0  0  0  0  0  0  0  0
   11.2150   38.7868    9.5929 C   0  0  0  0  0  0  0  0  0  0  0  0
    9.1136   39.3665   10.5614 C   0  0  0  0  0  0  0  0  0  0  0  0
    8.7754   38.0240   10.7063 C   0  0  0  0  0  0  0  0  0  0  0  0
    9.6719   37.0450   10.2815 C   0  0  0  0  0  0  0  0  0  0  0  0
   10.9084   37.4071    9.7223 C   0  0  0  0  0  0  0  0  0  0  0  0
   11.8387   36.3251    9.2384 C   0  0  0  0  0  0  0  0  0  0  0  0
   14.3412   41.7692    8.8021 C   0  0  0  0  0  0  0  0  0  0  0  0
   16.3376   41.9399    7.5384 C   0  0  0  0  0  0  0  0  0  0  0  0
   17.8103   41.7064    7.4234 C   0  0  0  0  0  0  0  0  0  0  0  0
   15.6281   42.5163    6.4809 C   0  0  0  0  0  0  0  0  0  0  0  0
   14.2485   42.7200    6.6275 C   0  0  0  0  0  0  0  0  0  0  0  0
   13.9147   44.2503    4.6292 C   0  0  0  0  0  0  0  0  0  0  0  0
   15.2378   45.8370    3.7534 C   0  0  0  0  0  0  0  0  0  0  0  0
   14.2009   45.8705    2.8279 C   0  0  0  0  0  0  0  0  0  0  0  0
   14.0857   46.8179    1.6813 C   0  0  0  0  0  0  0  0  0  0  0  0
   13.4788   39.8250   10.0229 N   0  0  0  0  0  0  0  0  0  0  0  0
   10.3075   39.7105   10.0148 N   0  0  0  0  0  0  0  0  0  0  0  0
   15.6807   41.5778    8.6714 N   0  0  0  0  0  0  0  0  0  0  0  0
   13.4492   43.2764    5.5726 N   0  0  0  0  0  0  0  0  0  0  0  0
   15.0741   44.9343    4.7565 N   0  0  0  0  0  0  0  0  0  0  0  0
   13.6388   42.3216    7.7751 N   0  0  0  0  0  0  0  0  0  0  0  0
   13.0266   44.7589    3.2936 S   0  0  0  0  0  0  0  0  0  0  0  0
  2  1  1  6
  2 20  1  0
  2 11  1  0
  3 20  1  0
  4 20  1  0
  4  5  1  0
  6 21  2  0
  7  8  2  0
  9  5  2  0
 10  9  1  0
 11 25  2  0
 12 22  2  0
 13 12  1  0
 14 15  2  0
 15 23  1  0
 16 26  1  0
 17 24  1  0
 18 26  1  0
 19 18  1  0
 23 16  1  0
  5 21  1  0
  6  7  1  0
  8  9  1  0
 11 22  1  0
 12 14  1  0
 15 25  1  0
 16 24  2  0
 17 18  2  0
M  END
>  <rmsd>  (1) 
0.240405455

$$$$
