MolPort-005-073-513 CSSS00159770980 MCULE-7872540700 PubChem-45207133
     RDKit          3D

 28 30  0  0  0  0  0  0  0  0999 V2000
   11.6177   43.8427    1.7124 C   0  0  0  0  0  0  0  0  0  0  0  0
   12.8806   43.6167    2.5132 C   0  0  0  0  0  0  0  0  0  0  0  0
   14.0664   43.5619    1.5706 C   0  0  0  0  0  0  0  0  0  0  0  0
   13.0582   44.7510    3.5069 C   0  0  0  0  0  0  0  0  0  0  0  0
   13.9357   44.3288    4.6346 C   0  0  0  0  0  0  0  0  0  0  0  0
   14.2437   42.7641    6.6216 C   0  0  0  0  0  0  0  0  0  0  0  0
   15.5596   43.0509    6.9327 C   0  0  0  0  0  0  0  0  0  0  0  0
   15.8088   42.2501    8.0418 C   0  0  0  0  0  0  0  0  0  0  0  0
   12.3975   41.3250    7.4885 C   0  0  0  0  0  0  0  0  0  0  0  0
   12.3883   39.7927    7.4602 C   0  0  0  0  0  0  0  0  0  0  0  0
   12.7234   39.2186    8.8349 C   0  0  0  0  0  0  0  0  0  0  0  0
   11.9828   41.1811    9.9678 C   0  0  0  0  0  0  0  0  0  0  0  0
   11.5893   41.8768    8.6660 C   0  0  0  0  0  0  0  0  0  0  0  0
   12.0301   39.1342   11.1636 C   0  0  2  0  0  0  0  0  0  0  0  0
   13.5014   39.0682   11.5837 C   0  0  0  0  0  0  0  0  0  0  0  0
   11.2791   37.8114   11.3549 C   0  0  0  0  0  0  0  0  0  0  0  0
   11.7096   36.7247   10.4203 C   0  0  0  0  0  0  0  0  0  0  0  0
   10.8332   36.2879    9.4202 C   0  0  0  0  0  0  0  0  0  0  0  0
   11.2160   35.2610    8.5517 C   0  0  0  0  0  0  0  0  0  0  0  0
   12.4727   34.6638    8.6851 C   0  0  0  0  0  0  0  0  0  0  0  0
   13.3451   35.0892    9.6903 C   0  0  0  0  0  0  0  0  0  0  0  0
   12.9622   36.1154   10.5598 C   0  0  0  0  0  0  0  0  0  0  0  0
   15.0525   44.8884    4.7911 O   0  0  0  0  0  0  0  0  0  0  0  0
   13.4825   43.3147    5.5394 N   0  0  0  0  0  0  0  0  0  0  0  0
   14.7013   41.5425    8.3514 N   0  0  0  0  0  0  0  0  0  0  0  0
   13.7585   41.8585    7.4823 N   0  0  0  0  0  0  0  0  0  0  0  0
   11.7884   39.7363    9.8429 N   0  0  0  0  0  0  0  0  0  0  0  0
   12.8480   33.6760    7.8386 F   0  0  0  0  0  0  0  0  0  0  0  0
  1  2  1  0
  2  3  1  0
  2  4  1  0
  4  5  1  0
  5 24  1  0
  7  8  1  0
  9 26  1  0
  9 10  1  0
 10 11  1  0
 11 27  1  0
 12 27  1  0
 12 13  1  0
 13  9  1  0
 14 27  1  0
 14 15  1  6
 14 16  1  0
 16 17  1  0
 18 19  2  0
 20 28  1  0
 20 21  2  0
 22 17  2  0
 24  6  1  0
 26 25  1  0
 26  6  1  0
  5 23  2  0
  6  7  2  0
  8 25  2  0
 17 18  1  0
 19 20  1  0
 21 22  1  0
M  END
>  <rmsd>  (1) 
0.231724158

$$$$
