MolPort-003-172-299 10253880 CSSS03437139166 MCULE-1331929296 PubChem-18587237 SRKPZIIQFUHGMN-UHFFFAOYSA-N ZINC000010253880 ZINC10253880
     RDKit          3D

 27 30  0  0  0  0  0  0  0  0999 V2000
   15.0536   44.8824    4.8272 O   0  0  0  0  0  0  0  0  0  0  0  0
   16.5794   39.6921    9.2988 O   0  0  0  0  0  0  0  0  0  0  0  0
   13.3043   45.9164    2.8674 O   0  0  0  0  0  0  0  0  0  0  0  0
   13.9012   44.3901    4.6939 C   0  0  0  0  0  0  0  0  0  0  0  0
   14.2514   42.6962    6.5527 C   0  0  0  0  0  0  0  0  0  0  0  0
   16.0326   42.3137    7.8766 C   0  0  0  0  0  0  0  0  0  0  0  0
   15.1551   41.3341    8.3780 C   0  0  0  0  0  0  0  0  0  0  0  0
   15.4582   40.2668    9.3547 C   0  0  0  0  0  0  0  0  0  0  0  0
   14.4738   39.8326   10.3708 C   0  0  0  0  0  0  0  0  0  0  0  0
   14.7132   38.6745   11.1266 C   0  0  0  0  0  0  0  0  0  0  0  0
   13.8012   38.2625   12.1026 C   0  0  0  0  0  0  0  0  0  0  0  0
   12.6430   39.0081   12.3357 C   0  0  0  0  0  0  0  0  0  0  0  0
   12.3980   40.1667   11.5947 C   0  0  0  0  0  0  0  0  0  0  0  0
   13.3105   40.5781   10.6192 C   0  0  0  0  0  0  0  0  0  0  0  0
   17.3890   42.5987    8.3946 C   0  0  0  0  0  0  0  0  0  0  0  0
   18.3318   43.2180    7.5603 C   0  0  0  0  0  0  0  0  0  0  0  0
   19.6069   43.5315    8.0401 C   0  0  0  0  0  0  0  0  0  0  0  0
   19.9471   43.2381    9.3629 C   0  0  0  0  0  0  0  0  0  0  0  0
   19.0108   42.6360   10.2070 C   0  0  0  0  0  0  0  0  0  0  0  0
   17.7362   42.3234    9.7261 C   0  0  0  0  0  0  0  0  0  0  0  0
   12.9992   44.9329    3.6740 C   0  0  0  0  0  0  0  0  0  0  0  0
   11.7146   44.5002    3.4110 C   0  0  0  0  0  0  0  0  0  0  0  0
   11.3120   45.3299    2.3762 C   0  0  0  0  0  0  0  0  0  0  0  0
   13.4653   43.3090    5.5266 N   0  0  0  0  0  0  0  0  0  0  0  0
   15.5137   43.0609    6.8618 N   0  0  0  0  0  0  0  0  0  0  0  0
   12.3126   46.1812    2.0735 N   0  0  0  0  0  0  0  0  0  0  0  0
   13.7128   41.4302    7.5074 S   0  0  0  0  0  0  0  0  0  0  0  0
  4 24  1  0
  4 21  1  0
  5 27  1  0
  6 25  1  0
  6 15  1  0
  7 27  1  0
  7  8  1  0
  8  9  1  0
 10 11  2  0
 12 13  2  0
 14  9  2  0
 16 17  2  0
 18 19  2  0
 20 15  2  0
 21  3  1  0
 22 23  1  0
 24  5  1  0
 26  3  1  0
  4  1  2  0
  5 25  2  0
  6  7  2  0
  8  2  2  0
  9 10  1  0
 11 12  1  0
 13 14  1  0
 15 16  1  0
 17 18  1  0
 19 20  1  0
 21 22  2  0
 23 26  2  0
M  END
>  <rmsd>  (1) 
0.21669811

$$$$
