MolPort-006-579-742 ChemDiv-V020-2678 MCULE-3735395336 PubChem-46040706 ZINC000037543492 ZINC37543492
     RDKit          3D

 31 34  0  0  0  0  0  0  0  0999 V2000
   10.9330   35.9224    4.9705 C   0  0  0  0  0  0  0  0  0  0  0  0
   11.0335   35.1968    7.3324 C   0  0  0  0  0  0  0  0  0  0  0  0
   11.2023   34.1499    8.2444 C   0  0  0  0  0  0  0  0  0  0  0  0
   11.1501   34.3959    9.6197 C   0  0  0  0  0  0  0  0  0  0  0  0
   10.9276   35.6925   10.0903 C   0  0  0  0  0  0  0  0  0  0  0  0
   10.7539   36.7451    9.1860 C   0  0  0  0  0  0  0  0  0  0  0  0
   10.5363   38.1348    9.6834 C   0  0  0  0  0  0  0  0  0  0  0  0
   12.3883   38.5730   11.3142 C   0  0  0  0  0  0  0  0  0  0  0  0
   13.3789   39.6784   11.6612 C   0  0  0  0  0  0  0  0  0  0  0  0
   14.4272   39.7577   10.5621 C   0  0  0  0  0  0  0  0  0  0  0  0
   12.5575   39.4472    8.9538 C   0  0  0  0  0  0  0  0  0  0  0  0
   14.4029   41.1214    8.4549 C   0  0  0  0  0  0  0  0  0  0  0  0
   15.7213   41.5431    8.6982 C   0  0  0  0  0  0  0  0  0  0  0  0
   16.3093   42.5381    7.9141 C   0  0  0  0  0  0  0  0  0  0  0  0
   15.5841   43.1275    6.8779 C   0  0  0  0  0  0  0  0  0  0  0  0
   14.2659   42.7269    6.6194 C   0  0  0  0  0  0  0  0  0  0  0  0
   13.8994   44.3567    4.6755 C   0  0  0  0  0  0  0  0  0  0  0  0
   12.9514   44.8459    3.6358 C   0  0  0  0  0  0  0  0  0  0  0  0
   11.9842   45.8093    4.2319 C   0  0  0  0  0  0  0  0  0  0  0  0
   10.7486   45.4816    4.7624 C   0  0  0  0  0  0  0  0  0  0  0  0
   10.0859   46.5914    5.3058 C   0  0  0  0  0  0  0  0  0  0  0  0
   10.7963   47.7868    5.2179 C   0  0  0  0  0  0  0  0  0  0  0  0
   13.6861   41.7305    7.4111 C   0  0  0  0  0  0  0  0  0  0  0  0
   10.8099   36.4976    7.8109 C   0  0  0  0  0  0  0  0  0  0  0  0
   11.0945   34.9198    5.9640 O   0  0  0  0  0  0  0  0  0  0  0  0
   12.1240   39.4568    7.7693 O   0  0  0  0  0  0  0  0  0  0  0  0
   15.0344   44.8930    4.7765 O   0  0  0  0  0  0  0  0  0  0  0  0
   11.8095   38.7779    9.9859 N   0  0  0  0  0  0  0  0  0  0  0  0
   13.7964   40.1084    9.2893 N   0  0  0  0  0  0  0  0  0  0  0  0
   13.4885   43.3094    5.5647 N   0  0  0  0  0  0  0  0  0  0  0  0
   12.2566   47.4463    4.4544 S   0  0  0  0  0  0  0  0  0  0  0  0
  1 25  1  0
  2 25  1  0
  3  4  2  0
  5  6  2  0
  7  6  1  0
  7 28  1  0
  8 28  1  0
  8  9  1  0
  9 10  1  0
 10 29  1  0
 11 28  1  0
 13 14  2  0
 15 16  2  0
 16 30  1  0
 18 17  1  0
 18 19  1  0
 19 31  1  0
 20 21  1  0
 22 31  1  0
 23 12  2  0
 24  2  2  0
 29 11  1  0
 29 12  1  0
 30 17  1  0
  2  3  1  0
  4  5  1  0
  6 24  1  0
 11 26  2  0
 12 13  1  0
 14 15  1  0
 16 23  1  0
 17 27  2  0
 19 20  2  0
 21 22  2  0
M  END
>  <rmsd>  (1) 
0.24108541

$$$$
