MolPort-002-773-378 36613101 CSSS00133004254 MCULE-9834902928 ZINC000036613101 ZINC36613101
     RDKit          3D

 26 28  0  0  0  0  0  0  0  0999 V2000
   12.8574   39.2779   11.8041 C   0  0  0  0  0  0  0  0  0  0  0  0
   13.9946   38.9814   10.8490 C   0  0  0  0  0  0  0  0  0  0  0  0
   15.0273   40.7536    9.4872 C   0  0  0  0  0  0  0  0  0  0  0  0
   14.9359   41.6868    8.3602 C   0  0  0  0  0  0  0  0  0  0  0  0
   14.2717   42.8023    6.6530 C   0  0  0  0  0  0  0  0  0  0  0  0
   13.9083   44.3371    4.6619 C   0  0  0  0  0  0  0  0  0  0  0  0
   13.0079   44.7676    3.5852 C   0  0  0  0  0  0  0  0  0  0  0  0
   13.3211   45.7737    2.6479 C   0  0  0  0  0  0  0  0  0  0  0  0
   12.2465   45.9184    1.7814 C   0  0  0  0  0  0  0  0  0  0  0  0
   11.2047   45.1219    2.0135 C   0  0  0  0  0  0  0  0  0  0  0  0
    8.9005   44.7382    1.1225 C   0  0  0  0  0  0  0  0  0  0  0  0
   11.8714   46.7004    0.7066 C   0  0  0  0  0  0  0  0  0  0  0  0
   12.6486   47.8231    0.0977 C   0  0  0  0  0  0  0  0  0  0  0  0
   13.8483   41.8097    7.5133 C   0  0  0  0  0  0  0  0  0  0  0  0
   13.9578   39.9008    9.7677 O   0  0  0  0  0  0  0  0  0  0  0  0
   16.0705   40.7281   10.1957 O   0  0  0  0  0  0  0  0  0  0  0  0
   15.0420   44.8757    4.7815 O   0  0  0  0  0  0  0  0  0  0  0  0
   15.9165   42.5439    8.0167 N   0  0  0  0  0  0  0  0  0  0  0  0
   15.5081   43.2316    6.9649 N   0  0  0  0  0  0  0  0  0  0  0  0
   13.4899   43.3084    5.5667 N   0  0  0  0  0  0  0  0  0  0  0  0
   10.2057   45.3722    1.1613 N   0  0  0  0  0  0  0  0  0  0  0  0
   10.6010   46.3528    0.3520 N   0  0  0  0  0  0  0  0  0  0  0  0
   11.4376   44.1150    3.3247 S   0  0  0  0  0  0  0  0  0  0  0  0
   13.9745   47.4560   -0.0421 F   0  0  0  0  0  0  0  0  0  0  0  0
   12.5662   48.9350    0.9145 F   0  0  0  0  0  0  0  0  0  0  0  0
   12.1336   48.1339   -1.1475 F   0  0  0  0  0  0  0  0  0  0  0  0
  1  2  1  0
  2 15  1  0
  3 15  1  0
  3  4  1  0
  5 20  1  0
  6  7  1  0
  7 23  1  0
  8  9  1  0
 10 23  1  0
 10 21  1  0
 11 21  1  0
 12  9  1  0
 13 12  1  0
 13 24  1  0
 13 25  1  0
 13 26  1  0
 14  4  1  0
 19 18  1  0
 19  5  1  0
 20  6  1  0
 21 22  1  0
  3 16  2  0
  4 18  2  0
  5 14  2  0
  6 17  2  0
  7  8  2  0
  9 10  2  0
 12 22  2  0
M  END
>  <rmsd>  (1) 
0.1885726

$$$$
