MolPort-007-686-750 ChemDiv-D039-3217 MCULE-4519348974 PubChem-23605095 ZINC000006804283 ZINC06804283
     RDKit          3D

 29 31  0  0  0  0  0  0  0  0999 V2000
   12.7691   39.2187   11.8007 C   0  0  0  0  0  0  0  0  0  0  0  0
   13.9231   38.9166   10.8680 C   0  0  0  0  0  0  0  0  0  0  0  0
   15.0057   40.6897    9.5446 C   0  0  0  0  0  0  0  0  0  0  0  0
   14.9504   41.6439    8.4183 C   0  0  0  0  0  0  0  0  0  0  0  0
   15.9316   42.5473    8.0265 C   0  0  0  0  0  0  0  0  0  0  0  0
   17.2594   42.7381    8.6750 C   0  0  0  0  0  0  0  0  0  0  0  0
   14.3023   42.8155    6.6607 C   0  0  0  0  0  0  0  0  0  0  0  0
   13.8986   44.3383    4.6637 C   0  0  0  0  0  0  0  0  0  0  0  0
   13.3537   45.8634    2.7425 C   0  0  0  0  0  0  0  0  0  0  0  0
   12.9927   45.5156    1.3021 C   0  0  0  0  0  0  0  0  0  0  0  0
   11.2941   43.8713    2.1090 C   0  0  0  0  0  0  0  0  0  0  0  0
   11.6489   44.2033    3.5555 C   0  0  0  0  0  0  0  0  0  0  0  0
   10.6262   45.6283    0.4168 C   0  0  0  0  0  0  0  0  0  0  0  0
    9.3108   45.1378    0.3910 C   0  0  0  0  0  0  0  0  0  0  0  0
    8.3436   45.7373   -0.4203 C   0  0  0  0  0  0  0  0  0  0  0  0
    8.6740   46.8361   -1.2185 C   0  0  0  0  0  0  0  0  0  0  0  0
    7.9325   48.5312   -2.8601 C   0  0  0  0  0  0  0  0  0  0  0  0
    9.9868   47.3319   -1.1978 C   0  0  0  0  0  0  0  0  0  0  0  0
   10.9536   46.7322   -0.3866 C   0  0  0  0  0  0  0  0  0  0  0  0
   13.9045   41.8249    7.5319 C   0  0  0  0  0  0  0  0  0  0  0  0
   12.5981   41.1058    7.5054 C   0  0  0  0  0  0  0  0  0  0  0  0
   13.9212   39.8464    9.7950 O   0  0  0  0  0  0  0  0  0  0  0  0
   16.0300   40.6375   10.2790 O   0  0  0  0  0  0  0  0  0  0  0  0
   15.0331   44.8802    4.7665 O   0  0  0  0  0  0  0  0  0  0  0  0
    7.6843   47.4132   -2.0188 O   0  0  0  0  0  0  0  0  0  0  0  0
   15.5394   43.2645    6.9538 N   0  0  0  0  0  0  0  0  0  0  0  0
   13.5024   43.3094    5.5802 N   0  0  0  0  0  0  0  0  0  0  0  0
   13.0044   44.7474    3.6206 N   0  0  0  0  0  0  0  0  0  0  0  0
   11.6217   45.0108    1.2537 N   0  0  0  0  0  0  0  0  0  0  0  0
  1  2  1  0
  2 22  1  0
  3 22  1  0
  3  4  1  0
  5 26  1  0
  6  5  1  0
  7 27  1  0
  8 28  1  0
  9 28  1  0
  9 10  1  0
 10 29  1  0
 11 29  1  0
 11 12  1  0
 12 28  1  0
 14 15  2  0
 16 25  1  0
 16 18  2  0
 17 25  1  0
 19 13  2  0
 20  4  1  0
 21 20  1  0
 26  7  1  0
 27  8  1  0
 29 13  1  0
  3 23  2  0
  4  5  2  0
  7 20  2  0
  8 24  2  0
 13 14  1  0
 15 16  1  0
 18 19  1  0
M  END
>  <rmsd>  (1) 
0.207339332

$$$$
