MolPort-035-706-961 CSSS03437789215 MCULE-9876989215 PubChem-91938286
     RDKit          3D

 29 31  0  0  0  0  0  0  0  0999 V2000
   16.0665   36.2558    6.9024 C   0  0  0  0  0  0  0  0  0  0  0  0
   14.8162   36.2770    7.7563 C   0  0  0  0  0  0  0  0  0  0  0  0
   14.5732   37.8421    9.6427 C   0  0  0  0  0  0  0  0  0  0  0  0
   14.4014   39.2566   10.1259 C   0  0  1  0  0  0  0  0  0  0  0  0
   13.4937   39.2817   11.3475 C   0  0  0  0  0  0  0  0  0  0  0  0
   14.3494   41.0652    8.3778 C   0  0  0  0  0  0  0  0  0  0  0  0
   13.6491   41.6733    7.3317 C   0  0  0  0  0  0  0  0  0  0  0  0
   14.2276   42.7186    6.6032 C   0  0  0  0  0  0  0  0  0  0  0  0
   13.9018   44.3829    4.6814 C   0  0  0  0  0  0  0  0  0  0  0  0
   12.9675   44.9063    3.6451 C   0  0  0  0  0  0  0  0  0  0  0  0
   11.9099   46.8248    4.8195 C   0  0  0  0  0  0  0  0  0  0  0  0
   13.0764   47.6049    4.7574 C   0  0  0  0  0  0  0  0  0  0  0  0
   13.1019   48.8814    5.3260 C   0  0  0  0  0  0  0  0  0  0  0  0
   14.3400   49.7000    5.2584 C   0  0  0  0  0  0  0  0  0  0  0  0
   11.9626   49.3872    5.9581 C   0  0  0  0  0  0  0  0  0  0  0  0
   10.7983   48.6165    6.0210 C   0  0  0  0  0  0  0  0  0  0  0  0
   10.7731   47.3391    5.4526 C   0  0  0  0  0  0  0  0  0  0  0  0
   15.5197   43.1549    6.9360 C   0  0  0  0  0  0  0  0  0  0  0  0
   16.2215   42.5516    7.9833 C   0  0  0  0  0  0  0  0  0  0  0  0
   15.6356   41.5072    8.7024 C   0  0  0  0  0  0  0  0  0  0  0  0
   15.7564   39.8166   10.5098 C   0  0  0  0  0  0  0  0  0  0  0  0
   14.6158   37.5850    8.2700 O   0  0  0  0  0  0  0  0  0  0  0  0
   14.7356   36.9023   10.4708 O   0  0  0  0  0  0  0  0  0  0  0  0
   13.7554   40.0213    9.0954 O   0  0  0  0  0  0  0  0  0  0  0  0
   15.0481   44.8924    4.7916 O   0  0  0  0  0  0  0  0  0  0  0  0
   11.8517   45.5434    4.2600 O   0  0  0  0  0  0  0  0  0  0  0  0
   16.3981   39.3140   11.4715 O   0  0  0  0  0  0  0  0  0  0  0  0
   13.4754   43.3159    5.5385 N   0  0  0  0  0  0  0  0  0  0  0  0
   16.3368   40.8965    9.7788 N   0  0  0  0  0  0  0  0  0  0  0  0
  1  2  1  0
  2 22  1  0
  3 22  1  0
  4  3  1  0
  4  5  1  1
  4 24  1  0
  4 21  1  0
  6 24  1  0
  7  8  2  0
  8 28  1  0
 10  9  1  0
 10 26  1  0
 11 26  1  0
 12 13  2  0
 14 13  1  0
 15 16  2  0
 17 11  2  0
 18 19  2  0
 20 29  1  0
 20  6  2  0
 28  9  1  0
 29 21  1  0
  3 23  2  0
  6  7  1  0
  8 18  1  0
  9 25  2  0
 11 12  1  0
 13 15  1  0
 16 17  1  0
 19 20  1  0
 21 27  2  0
M  END
>  <rmsd>  (1) 
0.230725884

$$$$
