MolPort-039-210-383 CSSS03436976271 MCULE-3826200929 PubChem-121016978
     RDKit          3D

 23 25  0  0  0  0  0  0  0  0999 V2000
   15.0398   44.8915    4.8047 O   0  0  0  0  0  0  0  0  0  0  0  0
   10.7909   45.6134    5.8372 O   0  0  0  0  0  0  0  0  0  0  0  0
   14.0060   47.7133    3.2592 O   0  0  0  0  0  0  0  0  0  0  0  0
   13.1802   40.8515   10.3052 O   0  0  0  0  0  0  0  0  0  0  0  0
   13.8748   44.4157    4.7410 C   0  0  0  0  0  0  0  0  0  0  0  0
   12.8825   45.0168    3.8047 C   0  0  0  0  0  0  0  0  0  0  0  0
   11.5009   46.5295    5.3449 C   0  0  0  0  0  0  0  0  0  0  0  0
   11.4565   47.9480    5.8017 C   0  0  0  0  0  0  0  0  0  0  0  0
   12.5351   48.6446    4.9535 C   0  0  0  0  0  0  0  0  0  0  0  0
   13.0714   47.5538    4.0887 C   0  0  0  0  0  0  0  0  0  0  0  0
   14.3064   42.6875    6.5505 C   0  0  0  0  0  0  0  0  0  0  0  0
   13.9916   41.5278    7.2211 C   0  0  0  0  0  0  0  0  0  0  0  0
   15.1180   40.1808    8.9763 C   0  0  0  0  0  0  0  0  0  0  0  0
   14.5684   40.5522   10.3508 C   0  0  2  0  0  0  0  0  0  0  0  0
   14.9454   39.4810   11.3903 C   0  0  0  0  0  0  0  0  0  0  0  0
   13.7985   39.2561   12.3718 C   0  0  0  0  0  0  0  0  0  0  0  0
   12.5018   38.9380   11.6255 C   0  0  0  0  0  0  0  0  0  0  0  0
   12.4499   39.6457   10.2667 C   0  0  0  0  0  0  0  0  0  0  0  0
   15.5229   43.1385    7.0309 C   0  0  0  0  0  0  0  0  0  0  0  0
   12.4341   46.3103    4.3047 N   0  0  0  0  0  0  0  0  0  0  0  0
   13.4860   43.3033    5.5532 N   0  0  0  0  0  0  0  0  0  0  0  0
   15.0163   41.3064    8.0633 N   0  0  0  0  0  0  0  0  0  0  0  0
   15.9303   42.2592    7.9662 N   0  0  0  0  0  0  0  0  0  0  0  0
  5 21  1  0
  6  5  1  0
  6 20  1  0
  8  7  1  0
  8  9  1  0
  9 10  1  0
 10 20  1  0
 12 22  1  0
 13 22  1  0
 14 13  1  6
 14 15  1  0
 14  4  1  0
 15 16  1  0
 16 17  1  0
 17 18  1  0
 18  4  1  0
 19 11  1  0
 20  7  1  0
 21 11  1  0
 22 23  1  0
  5  1  2  0
  7  2  2  0
 10  3  2  0
 11 12  2  0
 19 23  2  0
M  END
>  <rmsd>  (1) 
0.183427766

$$$$
