Molport-020-295-104 MCULE-6578144194 PubChem-110267200
     RDKit          3D

 27 30  0  0  0  0  0  0  0  0999 V2000
   12.9949   39.3831   11.4840 C   0  0  0  0  0  0  0  0  0  0  0  0
   13.6306   40.5179   10.6982 C   0  0  0  0  0  0  0  0  0  0  0  0
   13.7786   40.1024    9.2401 C   0  0  2  0  0  0  0  0  0  0  0  0
   14.5925   38.8052    9.1356 C   0  0  0  0  0  0  0  0  0  0  0  0
   13.8400   38.1142   11.3369 C   0  0  0  0  0  0  0  0  0  0  0  0
   12.7388   37.3030    9.3568 C   0  0  0  0  0  0  0  0  0  0  0  0
   12.5221   35.8158    9.5819 C   0  0  0  0  0  0  0  0  0  0  0  0
   11.2076   35.3896    9.0241 C   0  0  0  0  0  0  0  0  0  0  0  0
   11.1697   34.5002    7.9449 C   0  0  0  0  0  0  0  0  0  0  0  0
    9.9413   34.0822    7.4236 C   0  0  0  0  0  0  0  0  0  0  0  0
    8.7483   34.5492    7.9839 C   0  0  0  0  0  0  0  0  0  0  0  0
    8.7831   35.4328    9.0670 C   0  0  0  0  0  0  0  0  0  0  0  0
   10.0111   35.8511    9.5886 C   0  0  0  0  0  0  0  0  0  0  0  0
   14.4025   41.1939    8.4300 C   0  0  0  0  0  0  0  0  0  0  0  0
   14.2275   42.7351    6.6391 C   0  0  0  0  0  0  0  0  0  0  0  0
   16.2182   42.6758    7.9189 C   0  0  0  0  0  0  0  0  0  0  0  0
   15.6926   41.6575    8.7105 C   0  0  0  0  0  0  0  0  0  0  0  0
   13.8486   44.3236    4.6716 C   0  0  0  0  0  0  0  0  0  0  0  0
   12.9618   44.7403    3.6750 C   0  0  0  0  0  0  0  0  0  0  0  0
   13.3437   45.7565    2.7974 C   0  0  0  0  0  0  0  0  0  0  0  0
   14.6027   46.3456    2.9216 C   0  0  0  0  0  0  0  0  0  0  0  0
   15.4637   45.9052    3.9284 C   0  0  0  0  0  0  0  0  0  0  0  0
   14.0165   37.7128    9.9321 N   0  0  0  0  0  0  0  0  0  0  0  0
   13.7009   41.7417    7.4031 N   0  0  0  0  0  0  0  0  0  0  0  0
   15.4813   43.1942    6.9028 N   0  0  0  0  0  0  0  0  0  0  0  0
   13.4479   43.2801    5.5678 N   0  0  0  0  0  0  0  0  0  0  0  0
   15.0730   44.9136    4.7738 N   0  0  0  0  0  0  0  0  0  0  0  0
  1  2  1  0
  2  3  1  0
  3  4  1  0
  3 14  1  6
  4 23  1  0
  5 23  1  0
  5  1  1  0
  6 23  1  0
  6  7  1  0
  7  8  1  0
  9 10  2  0
 11 12  2  0
 13  8  2  0
 15 24  2  0
 15 26  1  0
 16 25  2  0
 17 14  2  0
 18 27  2  0
 19 20  2  0
 21 22  2  0
 26 18  1  0
  8  9  1  0
 10 11  1  0
 12 13  1  0
 14 24  1  0
 15 25  1  0
 16 17  1  0
 18 19  1  0
 20 21  1  0
 22 27  1  0
M  END
>  <rmsd>  (1) 
0.245262846

$$$$
