MolPort-007-723-574 ChemDiv-E157-6400 MCULE-4115465868 PubChem-22518102 ZINC000006818369 ZINC06818369
     RDKit          3D

 27 29  0  0  0  0  0  0  0  0999 V2000
   13.5260   39.2699   11.2302 C   0  0  0  0  0  0  0  0  0  0  0  0
   13.5435   41.7659   11.5506 C   0  0  0  0  0  0  0  0  0  0  0  0
   14.1243   43.0255   11.3282 C   0  0  0  0  0  0  0  0  0  0  0  0
   13.5654   44.1778   11.8873 C   0  0  0  0  0  0  0  0  0  0  0  0
   12.4176   44.0841   12.6773 C   0  0  0  0  0  0  0  0  0  0  0  0
   11.8226   45.3090   13.2719 C   0  0  0  0  0  0  0  0  0  0  0  0
   11.8294   42.8386   12.9085 C   0  0  0  0  0  0  0  0  0  0  0  0
   12.3890   41.6867   12.3485 C   0  0  0  0  0  0  0  0  0  0  0  0
   15.1366   41.6391    8.5269 C   0  0  0  0  0  0  0  0  0  0  0  0
   14.2391   42.7881    6.6365 C   0  0  0  0  0  0  0  0  0  0  0  0
   13.9100   44.3485    4.6559 C   0  0  0  0  0  0  0  0  0  0  0  0
   13.0313   44.8169    3.5589 C   0  0  0  0  0  0  0  0  0  0  0  0
   11.7439   44.2784    3.3395 C   0  0  0  0  0  0  0  0  0  0  0  0
   10.9535   44.7561    2.2891 C   0  0  0  0  0  0  0  0  0  0  0  0
   11.4283   45.7661    1.4505 C   0  0  0  0  0  0  0  0  0  0  0  0
   12.6985   46.3045    1.6588 C   0  0  0  0  0  0  0  0  0  0  0  0
   13.4932   45.8324    2.7058 C   0  0  0  0  0  0  0  0  0  0  0  0
   14.1160   40.5761   10.9707 N   0  0  0  0  0  0  0  0  0  0  0  0
   15.9799   42.5661    8.0234 N   0  0  0  0  0  0  0  0  0  0  0  0
   15.4806   43.2069    6.9683 N   0  0  0  0  0  0  0  0  0  0  0  0
   13.4752   43.3129    5.5467 N   0  0  0  0  0  0  0  0  0  0  0  0
   15.5034   40.6500    9.9252 S   0  0  0  0  0  0  0  0  0  0  0  0
   13.6918   41.5732    7.6635 S   0  0  0  0  0  0  0  0  0  0  0  0
   15.8755   39.2696    9.4609 O   0  0  0  0  0  0  0  0  0  0  0  0
   16.6613   41.2398   10.6805 O   0  0  0  0  0  0  0  0  0  0  0  0
   15.0499   44.8689    4.8032 O   0  0  0  0  0  0  0  0  0  0  0  0
   11.2413   43.2967    4.1285 F   0  0  0  0  0  0  0  0  0  0  0  0
  1 18  1  0
  3  4  2  0
  5  7  2  0
  6  5  1  0
  8  2  2  0
  9 23  1  0
 10 21  1  0
 10 23  1  0
 11 12  1  0
 13 27  1  0
 13 14  2  0
 15 16  2  0
 17 12  2  0
 18  2  1  0
 19 20  1  0
 21 11  1  0
 22 18  1  0
 22  9  1  0
  2  3  1  0
  4  5  1  0
  7  8  1  0
  9 19  2  0
 10 20  2  0
 11 26  2  0
 12 13  1  0
 14 15  1  0
 16 17  1  0
 22 24  2  0
 22 25  2  0
M  END
>  <rmsd>  (1) 
0.202283978

$$$$
