Molport-053-239-364
     RDKit          3D

 31 33  0  0  0  0  0  0  0  0999 V2000
   10.6576   36.5550   13.5624 C   0  0  0  0  0  0  0  0  0  0  0  0
   10.4057   38.0644   13.4661 C   0  0  0  0  0  0  0  0  0  0  0  0
    9.2793   38.4888   14.4145 C   0  0  0  0  0  0  0  0  0  0  0  0
   10.0696   38.4596   12.0466 C   0  0  0  0  0  0  0  0  0  0  0  0
   10.1401   40.4297   10.5040 C   0  0  0  0  0  0  0  0  0  0  0  0
   12.2772   39.3942   11.3205 C   0  0  0  0  0  0  0  0  0  0  0  0
   14.3259   38.5077   11.5957 C   0  0  0  0  0  0  0  0  0  0  0  0
   14.6902   39.7005   10.9754 C   0  0  0  0  0  0  0  0  0  0  0  0
   16.0744   40.1543   10.7292 C   0  0  0  0  0  0  0  0  0  0  0  0
   17.1681   39.7935   11.4929 C   0  0  0  0  0  0  0  0  0  0  0  0
   18.2045   40.5527   10.9853 C   0  0  0  0  0  0  0  0  0  0  0  0
   15.7045   41.6325    8.7359 C   0  0  0  0  0  0  0  0  0  0  0  0
   14.9401   40.8162    7.8883 C   0  0  0  0  0  0  0  0  0  0  0  0
   14.2077   41.3793    6.8398 C   0  0  0  0  0  0  0  0  0  0  0  0
   14.2542   42.7603    6.6002 C   0  0  0  0  0  0  0  0  0  0  0  0
   13.8632   44.4525    4.7497 C   0  0  0  0  0  0  0  0  0  0  0  0
   12.8835   45.0886    3.8498 C   0  0  0  0  0  0  0  0  0  0  0  0
   13.1922   46.1264    3.0734 C   0  0  0  0  0  0  0  0  0  0  0  0
   15.0272   43.5761    7.4459 C   0  0  0  0  0  0  0  0  0  0  0  0
   15.7573   43.0125    8.4967 C   0  0  0  0  0  0  0  0  0  0  0  0
   19.6271   40.5024   11.4356 C   0  0  0  0  0  0  0  0  0  0  0  0
    9.0605   37.9505   11.4860 O   0  0  0  0  0  0  0  0  0  0  0  0
   15.0498   44.8795    4.8007 O   0  0  0  0  0  0  0  0  0  0  0  0
   10.8375   39.4580   11.3505 N   0  0  0  0  0  0  0  0  0  0  0  0
   12.9886   38.3365   11.7710 N   0  0  0  0  0  0  0  0  0  0  0  0
   17.7671   41.3021    9.9551 N   0  0  0  0  0  0  0  0  0  0  0  0
   16.4739   41.0608    9.8044 N   0  0  0  0  0  0  0  0  0  0  0  0
   13.4667   43.3178    5.5341 N   0  0  0  0  0  0  0  0  0  0  0  0
   13.2854   40.5801   10.6744 S   0  0  0  0  0  0  0  0  0  0  0  0
   20.3342   39.6297   10.6302 F   0  0  0  0  0  0  0  0  0  0  0  0
   20.1920   41.7621   11.3519 F   0  0  0  0  0  0  0  0  0  0  0  0
  1  2  1  0
  2  3  1  0
  2  4  1  0
  4 24  1  0
  5 24  1  0
  6 29  1  0
  7 25  1  0
  8 29  1  0
  8  9  1  0
 10 11  1  0
 13 14  2  0
 15 28  1  0
 15 19  2  0
 16 17  1  0
 20 12  2  0
 21 11  1  0
 21 30  1  0
 21 31  1  0
 24  6  1  0
 27 26  1  0
 27 12  1  0
 27  9  1  0
 28 16  1  0
  4 22  2  0
  6 25  2  0
  7  8  2  0
  9 10  2  0
 11 26  2  0
 12 13  1  0
 14 15  1  0
 16 23  2  0
 17 18  2  0
 19 20  1  0
M  END
>  <rmsd>  (1) 
0.244989455

$$$$
