MolPort-016-723-708 19658201 MCULE-8374060511 PubChem-46980742 ZINC000019658201 ZINC19658201
     RDKit          3D

 26 28  0  0  0  0  0  0  0  0999 V2000
   10.1670   44.5564    5.2391 C   0  0  0  0  0  0  0  0  0  0  0  0
   10.8967   45.8373    5.0303 C   0  0  0  0  0  0  0  0  0  0  0  0
   12.0823   46.0046    4.3478 C   0  0  0  0  0  0  0  0  0  0  0  0
   12.3432   47.3519    4.4645 C   0  0  0  0  0  0  0  0  0  0  0  0
   13.5210   48.0828    3.9220 C   0  0  0  0  0  0  0  0  0  0  0  0
   12.9320   44.9558    3.7067 C   0  0  0  0  0  0  0  0  0  0  0  0
   13.8961   44.3968    4.6949 C   0  0  0  0  0  0  0  0  0  0  0  0
   14.2699   42.6958    6.5660 C   0  0  0  0  0  0  0  0  0  0  0  0
   15.8446   41.9187    8.1988 C   0  0  0  0  0  0  0  0  0  0  0  0
   16.9709   41.6469    9.1375 C   0  0  0  0  0  0  0  0  0  0  0  0
   17.0396   42.7165   10.2251 C   0  0  0  0  0  0  0  0  0  0  0  0
   16.0335   42.5507   11.3295 C   0  0  0  0  0  0  0  0  0  0  0  0
   15.9453   43.5508   12.3029 C   0  0  0  0  0  0  0  0  0  0  0  0
   15.0297   43.4370   13.3529 C   0  0  0  0  0  0  0  0  0  0  0  0
   14.1963   42.3181   13.4369 C   0  0  0  0  0  0  0  0  0  0  0  0
   14.2737   41.3070   12.4744 C   0  0  0  0  0  0  0  0  0  0  0  0
   15.1967   41.4271   11.4232 C   0  0  0  0  0  0  0  0  0  0  0  0
   13.4390   39.1314   11.6461 C   0  0  0  0  0  0  0  0  0  0  0  0
   11.3715   47.9097    5.1498 O   0  0  0  0  0  0  0  0  0  0  0  0
   15.0451   44.9030    4.7911 O   0  0  0  0  0  0  0  0  0  0  0  0
   13.4278   40.1999   12.5834 O   0  0  0  0  0  0  0  0  0  0  0  0
   10.4816   47.0267    5.5076 N   0  0  0  0  0  0  0  0  0  0  0  0
   13.4866   43.3144    5.5386 N   0  0  0  0  0  0  0  0  0  0  0  0
   13.8021   41.6717    7.3113 N   0  0  0  0  0  0  0  0  0  0  0  0
   14.6762   41.2411    8.2193 N   0  0  0  0  0  0  0  0  0  0  0  0
   15.8385   43.1240    7.0224 S   0  0  0  0  0  0  0  0  0  0  0  0
  1  2  1  0
  2  3  1  0
  4 19  1  0
  5  4  1  0
  6  3  1  0
  6  7  1  0
  7 23  1  0
  8 26  1  0
  9 26  1  0
 10  9  1  0
 10 11  1  0
 11 12  1  0
 13 14  2  0
 15 16  2  0
 16 21  1  0
 17 12  2  0
 18 21  1  0
 19 22  1  0
 23  8  1  0
 24 25  1  0
  2 22  2  0
  3  4  2  0
  7 20  2  0
  8 24  2  0
  9 25  2  0
 12 13  1  0
 14 15  1  0
 16 17  1  0
M  END
>  <rmsd>  (1) 
0.248993486

$$$$
