MolPort-039-126-987 CSSS03436932277 MCULE-3431456731 PubChem-119099732
     RDKit          3D

 23 25  0  0  0  0  0  0  0  0999 V2000
   14.7000   45.4401    2.2210 F   0  0  0  0  0  0  0  0  0  0  0  0
   13.3864   45.5238    2.5507 C   0  0  0  0  0  0  0  0  0  0  0  0
   12.9137   45.0309    3.7864 C   0  0  0  0  0  0  0  0  0  0  0  0
   13.8702   44.4273    4.7446 C   0  0  0  0  0  0  0  0  0  0  0  0
   14.3039   42.6394    6.5068 C   0  0  0  0  0  0  0  0  0  0  0  0
   13.9135   41.5602    7.2660 C   0  0  0  0  0  0  0  0  0  0  0  0
   15.0054   40.1913    9.0262 C   0  0  0  0  0  0  0  0  0  0  0  0
   14.7612   40.7603   10.4255 C   0  0  2  0  0  0  0  0  0  0  0  0
   15.0336   39.7310   11.5298 C   0  0  0  0  0  0  0  0  0  0  0  0
   13.9091   38.7028   11.5964 C   0  0  0  0  0  0  0  0  0  0  0  0
   12.5645   39.4119   11.6502 C   0  0  0  0  0  0  0  0  0  0  0  0
   12.4783   40.3789   10.4739 C   0  0  0  0  0  0  0  0  0  0  0  0
   15.6037   42.9561    6.8576 C   0  0  0  0  0  0  0  0  0  0  0  0
   11.5296   45.1301    4.0734 C   0  0  0  0  0  0  0  0  0  0  0  0
   10.6605   45.6969    3.1364 C   0  0  0  0  0  0  0  0  0  0  0  0
   11.1414   46.1672    1.9156 C   0  0  0  0  0  0  0  0  0  0  0  0
   12.5015   46.0814    1.6250 C   0  0  0  0  0  0  0  0  0  0  0  0
   15.0407   44.8887    4.8310 O   0  0  0  0  0  0  0  0  0  0  0  0
   13.4859   41.3653   10.5645 O   0  0  0  0  0  0  0  0  0  0  0  0
   13.4795   43.3020    5.5424 N   0  0  0  0  0  0  0  0  0  0  0  0
   14.9724   41.2547    8.0361 N   0  0  0  0  0  0  0  0  0  0  0  0
   15.9826   42.0793    7.8078 N   0  0  0  0  0  0  0  0  0  0  0  0
   10.8329   44.6361    5.6112 Cl  0  0  0  0  0  0  0  0  0  0  0  0
  2  1  1  0
  3  4  1  0
  3 14  2  0
  4 20  1  0
  6 21  1  0
  7 21  1  0
  8  7  1  6
  8  9  1  0
  8 19  1  0
  9 10  1  0
 10 11  1  0
 11 12  1  0
 12 19  1  0
 13  5  1  0
 14 23  1  0
 15 16  2  0
 17  2  2  0
 20  5  1  0
 21 22  1  0
  2  3  1  0
  4 18  2  0
  5  6  2  0
 13 22  2  0
 14 15  1  0
 16 17  1  0
M  END
>  <rmsd>  (1) 
0.248502389

$$$$
