MolPort-004-997-950 CSSS00159751999 MCULE-3010046500 PubChem-45168360
     RDKit          3D

 31 34  0  0  0  0  0  0  0  0999 V2000
    8.7289   37.0651   10.7194 O   0  0  0  0  0  0  0  0  0  0  0  0
   10.5405   36.7292    8.7226 O   0  0  0  0  0  0  0  0  0  0  0  0
   15.0447   44.8983    4.7961 O   0  0  0  0  0  0  0  0  0  0  0  0
   13.8808   46.1663    1.8950 O   0  0  0  0  0  0  0  0  0  0  0  0
    9.5698   37.9712   10.4771 C   0  0  0  0  0  0  0  0  0  0  0  0
    9.7027   39.1029   11.4460 C   0  0  0  0  0  0  0  0  0  0  0  0
   10.6986   38.7567   12.5465 C   0  0  0  0  0  0  0  0  0  0  0  0
   12.1055   38.9519   12.0858 C   0  0  0  0  0  0  0  0  0  0  0  0
   12.6016   40.2402   11.8485 C   0  0  0  0  0  0  0  0  0  0  0  0
   13.9187   40.4148   11.4134 C   0  0  0  0  0  0  0  0  0  0  0  0
   14.7435   39.3029   11.2184 C   0  0  0  0  0  0  0  0  0  0  0  0
   14.2526   38.0165   11.4626 C   0  0  0  0  0  0  0  0  0  0  0  0
   12.9356   37.8414   11.8987 C   0  0  0  0  0  0  0  0  0  0  0  0
   10.4526   37.8480    9.2981 C   0  0  0  0  0  0  0  0  0  0  0  0
   12.5049   38.6856    8.1454 C   0  0  0  0  0  0  0  0  0  0  0  0
   12.6713   39.6033    6.9387 C   0  0  0  0  0  0  0  0  0  0  0  0
   12.5501   41.0882    7.3159 C   0  0  0  0  0  0  0  0  0  0  0  0
   11.8168   41.3446    8.6393 C   0  0  0  0  0  0  0  0  0  0  0  0
   10.7089   40.3237    8.8860 C   0  0  0  0  0  0  0  0  0  0  0  0
   15.9000   42.1605    7.9255 C   0  0  0  0  0  0  0  0  0  0  0  0
   15.5963   43.0366    6.8885 C   0  0  0  0  0  0  0  0  0  0  0  0
   14.2941   42.7065    6.5620 C   0  0  0  0  0  0  0  0  0  0  0  0
   13.8969   44.3852    4.6877 C   0  0  0  0  0  0  0  0  0  0  0  0
   12.9355   44.8974    3.6633 C   0  0  1  0  0  0  0  0  0  0  0  0
   12.6420   46.3503    3.8953 C   0  0  0  0  0  0  0  0  0  0  0  0
   12.9725   46.9938    2.5708 C   0  0  0  0  0  0  0  0  0  0  0  0
   13.5471   44.8576    2.2781 C   0  0  0  0  0  0  0  0  0  0  0  0
   11.2270   38.9538    8.8067 N   0  0  0  0  0  0  0  0  0  0  0  0
   13.8677   41.7103    7.3498 N   0  0  0  0  0  0  0  0  0  0  0  0
   14.8354   41.3712    8.1824 N   0  0  0  0  0  0  0  0  0  0  0  0
   13.4885   43.3117    5.5422 N   0  0  0  0  0  0  0  0  0  0  0  0
  5 14  1  0
  6  5  1  0
  6  7  1  0
  7  8  1  0
  9 10  2  0
 11 12  2  0
 13  8  2  0
 14 28  1  0
 15 28  1  0
 15 16  1  0
 16 17  1  0
 17 18  1  0
 17 29  1  0
 18 19  1  0
 19 28  1  0
 20 21  1  0
 22 31  1  0
 22 29  1  0
 24 23  1  1
 24 25  1  0
 25 26  1  0
 26  4  1  0
 27  4  1  0
 27 24  1  0
 29 30  1  0
 31 23  1  0
  5  1  2  0
  8  9  1  0
 10 11  1  0
 12 13  1  0
 14  2  2  0
 20 30  2  0
 21 22  2  0
 23  3  2  0
M  END
>  <rmsd>  (1) 
0.24594757

$$$$
