MolPort-007-710-789 ChemDiv-D481-2657 MCULE-7503160676 PubChem-46269942 ZINC000033019581 ZINC33019581
     RDKit          3D

 32 35  0  0  0  0  0  0  0  0999 V2000
   17.1883   45.6979   12.6868 C   0  0  0  0  0  0  0  0  0  0  0  0
   16.7553   44.9686   13.9468 C   0  0  0  0  0  0  0  0  0  0  0  0
   17.9634   44.4460   14.7326 C   0  0  0  0  0  0  0  0  0  0  0  0
   18.6199   43.2549   14.0317 C   0  0  0  0  0  0  0  0  0  0  0  0
   16.4548   42.6779   12.9274 C   0  0  0  0  0  0  0  0  0  0  0  0
   15.7623   43.8462   13.6249 C   0  0  0  0  0  0  0  0  0  0  0  0
   17.7090   40.9179   14.2344 C   0  0  0  0  0  0  0  0  0  0  0  0
   16.6414   39.9075   13.9595 C   0  0  0  0  0  0  0  0  0  0  0  0
   17.1809   39.6966   11.3839 C   0  0  0  0  0  0  0  0  0  0  0  0
   16.5164   40.8938    9.7697 C   0  0  0  0  0  0  0  0  0  0  0  0
   14.7197   39.6221   11.0019 C   0  0  0  0  0  0  0  0  0  0  0  0
   13.7386   40.6009   11.2180 C   0  0  0  0  0  0  0  0  0  0  0  0
   12.4307   40.2284   11.5429 C   0  0  0  0  0  0  0  0  0  0  0  0
   12.0984   38.8760   11.6609 C   0  0  0  0  0  0  0  0  0  0  0  0
   13.0740   37.8957   11.4571 C   0  0  0  0  0  0  0  0  0  0  0  0
   14.3819   38.2676   11.1310 C   0  0  0  0  0  0  0  0  0  0  0  0
   15.7157   41.5271    8.6984 C   0  0  0  0  0  0  0  0  0  0  0  0
   16.1921   42.6895    8.0756 C   0  0  0  0  0  0  0  0  0  0  0  0
   15.4682   43.2855    7.0389 C   0  0  0  0  0  0  0  0  0  0  0  0
   14.2597   42.7214    6.6028 C   0  0  0  0  0  0  0  0  0  0  0  0
   13.8801   44.4065    4.7132 C   0  0  0  0  0  0  0  0  0  0  0  0
   12.9124   44.9537    3.7277 C   0  0  0  0  0  0  0  0  0  0  0  0
   13.7881   41.5557    7.2164 C   0  0  0  0  0  0  0  0  0  0  0  0
   14.5135   40.9581    8.2514 C   0  0  0  0  0  0  0  0  0  0  0  0
   17.6045   42.2541   13.7204 N   0  0  0  0  0  0  0  0  0  0  0  0
   18.2571   40.3568   10.9185 N   0  0  0  0  0  0  0  0  0  0  0  0
   17.8420   41.1037    9.9068 N   0  0  0  0  0  0  0  0  0  0  0  0
   16.0677   40.0047   10.6879 N   0  0  0  0  0  0  0  0  0  0  0  0
   13.4846   43.3137    5.5520 N   0  0  0  0  0  0  0  0  0  0  0  0
   18.7072   40.5822   14.9270 O   0  0  0  0  0  0  0  0  0  0  0  0
   15.0389   44.8956    4.7783 O   0  0  0  0  0  0  0  0  0  0  0  0
   17.2362   38.6181   12.8181 S   0  0  0  0  0  0  0  0  0  0  0  0
  1  2  1  0
  2  3  1  0
  3  4  1  0
  4 25  1  0
  5 25  1  0
  5  6  1  0
  6  2  1  0
  8  7  1  0
  8 32  1  0
  9 32  1  0
 10 28  1  0
 10 17  1  0
 12 13  2  0
 14 15  2  0
 16 11  2  0
 18 19  2  0
 20 29  1  0
 20 23  2  0
 22 21  1  0
 24 17  2  0
 25  7  1  0
 26 27  1  0
 28 11  1  0
 28  9  1  0
 29 21  1  0
  7 30  2  0
  9 26  2  0
 10 27  2  0
 11 12  1  0
 13 14  1  0
 15 16  1  0
 17 18  1  0
 19 20  1  0
 21 31  2  0
 23 24  1  0
M  END
>  <rmsd>  (1) 
0.23071529

$$$$
