MolPort-047-073-956 MCULE-6453999601 PubChem-132772398
     RDKit          3D

 31 34  0  0  0  0  0  0  0  0999 V2000
   15.2184   45.8783    3.7953 C   0  0  0  0  0  0  0  0  0  0  0  0
   14.1265   46.0351    2.9370 C   0  0  0  0  0  0  0  0  0  0  0  0
   13.8827   44.3168    4.6893 C   0  0  0  0  0  0  0  0  0  0  0  0
   14.1887   42.7094    6.6586 C   0  0  0  0  0  0  0  0  0  0  0  0
   15.4807   43.1496    6.9770 C   0  0  0  0  0  0  0  0  0  0  0  0
   16.1631   42.5684    8.0455 C   0  0  0  0  0  0  0  0  0  0  0  0
   15.5563   41.5557    8.7873 C   0  0  0  0  0  0  0  0  0  0  0  0
   14.2637   41.1356    8.4459 C   0  0  0  0  0  0  0  0  0  0  0  0
   13.5772   40.0515    9.2142 C   0  0  2  0  0  0  0  0  0  0  0  0
   13.3403   40.4800   10.6679 C   0  0  0  0  0  0  0  0  0  0  0  0
   13.0587   39.2686   11.5550 C   0  0  0  0  0  0  0  0  0  0  0  0
   14.1402   38.1816   11.4151 C   0  0  0  0  0  0  0  0  0  0  0  0
   15.8636   37.2517   10.1264 C   0  0  0  0  0  0  0  0  0  0  0  0
   17.2341   37.5940    9.7346 C   0  0  0  0  0  0  0  0  0  0  0  0
   14.3460   38.7258    9.1089 C   0  0  0  0  0  0  0  0  0  0  0  0
   16.4434   46.6787    3.6724 C   0  0  0  0  0  0  0  0  0  0  0  0
   17.7591   48.4569    2.4324 C   0  0  0  0  0  0  0  0  0  0  0  0
   18.8033   47.6345    1.7573 C   0  0  0  0  0  0  0  0  0  0  0  0
   18.7634   47.4528    0.3718 C   0  0  0  0  0  0  0  0  0  0  0  0
   19.7373   46.6619   -0.2405 C   0  0  0  0  0  0  0  0  0  0  0  0
   20.7324   46.0611    0.5327 C   0  0  0  0  0  0  0  0  0  0  0  0
   20.7356   46.2617    1.9150 C   0  0  0  0  0  0  0  0  0  0  0  0
   12.9586   44.9263    3.4347 S   0  0  0  0  0  0  0  0  0  0  0  0
   13.4463   43.2746    5.5701 N   0  0  0  0  0  0  0  0  0  0  0  0
   15.0942   38.4658   10.3384 N   0  0  0  0  0  0  0  0  0  0  0  0
   18.3158   37.8647    9.4252 N   0  0  0  0  0  0  0  0  0  0  0  0
   13.6196   41.7192    7.3989 N   0  0  0  0  0  0  0  0  0  0  0  0
   15.0815   44.9288    4.7618 N   0  0  0  0  0  0  0  0  0  0  0  0
   16.5531   47.6683    2.6446 N   0  0  0  0  0  0  0  0  0  0  0  0
   19.7785   47.0358    2.4941 N   0  0  0  0  0  0  0  0  0  0  0  0
   17.3951   46.4927    4.4784 O   0  0  0  0  0  0  0  0  0  0  0  0
  1 16  1  0
  1 28  1  0
  2 23  1  0
  3 23  1  0
  3 24  1  0
  4 27  2  0
  5  6  2  0
  7  8  2  0
  9  8  1  6
  9 10  1  0
 10 11  1  0
 11 12  1  0
 12 25  1  0
 13 25  1  0
 13 14  1  0
 15 25  1  0
 15  9  1  0
 16 29  1  0
 17 29  1  0
 17 18  1  0
 18 30  2  0
 19 20  2  0
 21 22  2  0
 24  4  1  0
  1  2  2  0
  3 28  2  0
  4  5  1  0
  6  7  1  0
  8 27  1  0
 16 31  2  0
 18 19  1  0
 20 21  1  0
 22 30  1  0
 14 26  3  0
M  END
>  <rmsd>  (1) 
0.24748908

$$$$
