Molport-046-971-696 MCULE-6999629585 MCULE-7859326811 PubChem-110111646
     RDKit          3D

 28 31  0  0  0  0  0  0  0  0999 V2000
   14.0685   33.7038   13.4790 C   0  0  0  0  0  0  0  0  0  0  0  0
   13.4136   33.9716   12.1725 C   0  0  0  0  0  0  0  0  0  0  0  0
   12.5057   33.0571   11.6382 C   0  0  0  0  0  0  0  0  0  0  0  0
   12.1824   34.4410    9.7363 C   0  0  0  0  0  0  0  0  0  0  0  0
   13.0804   35.3941   10.2373 C   0  0  0  0  0  0  0  0  0  0  0  0
   13.7027   35.1391   11.4660 C   0  0  0  0  0  0  0  0  0  0  0  0
   13.3855   36.6119    9.4506 C   0  0  0  0  0  0  0  0  0  0  0  0
   13.8799   38.0973   11.4423 C   0  0  0  0  0  0  0  0  0  0  0  0
   13.0365   39.3629   11.5666 C   0  0  0  0  0  0  0  0  0  0  0  0
   13.6585   40.4879   10.7413 C   0  0  0  0  0  0  0  0  0  0  0  0
   13.7964   40.0647    9.2760 C   0  0  2  0  0  0  0  0  0  0  0  0
   14.6181   38.7792    9.1641 C   0  0  0  0  0  0  0  0  0  0  0  0
   14.3985   41.1593    8.4538 C   0  0  0  0  0  0  0  0  0  0  0  0
   13.6588   41.7080    7.4039 C   0  0  0  0  0  0  0  0  0  0  0  0
   14.2117   42.7306    6.6287 C   0  0  0  0  0  0  0  0  0  0  0  0
   16.2079   42.6650    7.9212 C   0  0  0  0  0  0  0  0  0  0  0  0
   15.6873   41.6426    8.7157 C   0  0  0  0  0  0  0  0  0  0  0  0
   13.8522   44.3300    4.6671 C   0  0  0  0  0  0  0  0  0  0  0  0
   12.9741   44.7556    3.6667 C   0  0  0  0  0  0  0  0  0  0  0  0
   13.3664   45.7746    2.7968 C   0  0  0  0  0  0  0  0  0  0  0  0
   14.6270   46.3576    2.9326 C   0  0  0  0  0  0  0  0  0  0  0  0
   15.4792   45.9083    3.9430 C   0  0  0  0  0  0  0  0  0  0  0  0
   11.9144   33.3078   10.4398 N   0  0  0  0  0  0  0  0  0  0  0  0
   14.0391   37.7563   10.0305 N   0  0  0  0  0  0  0  0  0  0  0  0
   15.4673   43.1824    6.9049 N   0  0  0  0  0  0  0  0  0  0  0  0
   13.4412   43.2838    5.5551 N   0  0  0  0  0  0  0  0  0  0  0  0
   15.0785   44.9142    4.7806 N   0  0  0  0  0  0  0  0  0  0  0  0
   13.0715   36.6381    8.2285 O   0  0  0  0  0  0  0  0  0  0  0  0
  1  2  1  0
  3 23  2  0
  4  5  2  0
  5  7  1  0
  6  2  2  0
  7 24  1  0
  8 24  1  0
  8  9  1  0
  9 10  1  0
 10 11  1  0
 11 12  1  0
 11 13  1  6
 12 24  1  0
 14 15  2  0
 15 26  1  0
 16 25  2  0
 17 13  2  0
 18 27  2  0
 19 20  2  0
 21 22  2  0
 26 18  1  0
  2  3  1  0
  4 23  1  0
  5  6  1  0
  7 28  2  0
 13 14  1  0
 15 25  1  0
 16 17  1  0
 18 19  1  0
 20 21  1  0
 22 27  1  0
M  END
>  <rmsd>  (1) 
0.244062677

$$$$
