Molport-052-054-344 MCULE-5428378396 PubChem-110095880
     RDKit          3D

 25 27  0  0  0  0  0  0  0  0999 V2000
   17.5993   42.9622    8.3125 C   0  0  0  0  0  0  0  0  0  0  0  0
   16.2154   42.5294    7.9877 C   0  0  0  0  0  0  0  0  0  0  0  0
   15.5264   43.1297    6.9362 C   0  0  0  0  0  0  0  0  0  0  0  0
   14.2250   42.7009    6.6535 C   0  0  0  0  0  0  0  0  0  0  0  0
   14.3553   41.1396    8.4319 C   0  0  0  0  0  0  0  0  0  0  0  0
   13.7084   40.0597    9.2336 C   0  0  2  0  0  0  0  0  0  0  0  0
   13.5957   40.4708   10.7030 C   0  0  0  0  0  0  0  0  0  0  0  0
   12.9317   39.3619   11.5167 C   0  0  0  0  0  0  0  0  0  0  0  0
   13.7321   38.0696   11.3868 C   0  0  0  0  0  0  0  0  0  0  0  0
   14.4878   38.7517    9.0992 C   0  0  0  0  0  0  0  0  0  0  0  0
   13.4665   36.4723    9.4609 C   0  0  0  0  0  0  0  0  0  0  0  0
   13.6349   36.1290    8.0162 C   0  0  0  0  0  0  0  0  0  0  0  0
   14.7688   34.1327    7.5884 C   0  0  0  0  0  0  0  0  0  0  0  0
   13.8731   44.3181    4.7000 C   0  0  0  0  0  0  0  0  0  0  0  0
   15.1792   45.8868    3.7859 C   0  0  0  0  0  0  0  0  0  0  0  0
   14.0736   46.0484    2.9512 C   0  0  0  0  0  0  0  0  0  0  0  0
   16.4094   46.7070    3.6369 C   0  0  0  0  0  0  0  0  0  0  0  0
   13.6710   41.7154    7.4083 N   0  0  0  0  0  0  0  0  0  0  0  0
   15.6221   41.5485    8.7151 N   0  0  0  0  0  0  0  0  0  0  0  0
   13.8986   37.7410    9.9737 N   0  0  0  0  0  0  0  0  0  0  0  0
   14.9525   35.5586    7.7935 N   0  0  0  0  0  0  0  0  0  0  0  0
   13.4571   43.2722    5.5861 N   0  0  0  0  0  0  0  0  0  0  0  0
   15.0713   44.9343    4.7507 N   0  0  0  0  0  0  0  0  0  0  0  0
   12.9609   35.6156   10.2343 O   0  0  0  0  0  0  0  0  0  0  0  0
   12.9205   44.9323    3.4683 S   0  0  0  0  0  0  0  0  0  0  0  0
  1  2  1  0
  2 19  2  0
  3  4  2  0
  4 22  1  0
  5 18  2  0
  6  5  1  6
  6  7  1  0
  7  8  1  0
  8  9  1  0
  9 20  1  0
 10 20  1  0
 10  6  1  0
 12 11  1  0
 12 21  1  0
 13 21  1  0
 14 25  1  0
 15 23  1  0
 16 25  1  0
 17 15  1  0
 20 11  1  0
 22 14  1  0
  2  3  1  0
  4 18  1  0
  5 19  1  0
 11 24  2  0
 14 23  2  0
 15 16  2  0
M  END
>  <rmsd>  (1) 
0.23913753

$$$$
