Molport-020-275-227 MCULE-3494478915 PubChem-110252904
     RDKit          3D

 23 25  0  0  0  0  0  0  0  0999 V2000
   12.8750   36.4703    7.5645 C   0  0  0  0  0  0  0  0  0  0  0  0
   13.7465   38.0760   11.3292 C   0  0  0  0  0  0  0  0  0  0  0  0
   12.9244   39.3594   11.4623 C   0  0  0  0  0  0  0  0  0  0  0  0
   13.5985   40.4854   10.6983 C   0  0  0  0  0  0  0  0  0  0  0  0
   13.7495   40.0791    9.2392 C   0  0  2  0  0  0  0  0  0  0  0  0
   14.5487   38.7762    9.1284 C   0  0  0  0  0  0  0  0  0  0  0  0
   14.3881   41.1690    8.4393 C   0  0  0  0  0  0  0  0  0  0  0  0
   15.6819   41.6226    8.7246 C   0  0  0  0  0  0  0  0  0  0  0  0
   15.5320   43.1741    6.9441 C   0  0  0  0  0  0  0  0  0  0  0  0
   14.2374   42.7257    6.6521 C   0  0  0  0  0  0  0  0  0  0  0  0
   13.8443   44.3226    4.6739 C   0  0  0  0  0  0  0  0  0  0  0  0
   13.2892   45.7037    2.8338 C   0  0  0  0  0  0  0  0  0  0  0  0
   14.5347   46.3245    2.9072 C   0  0  0  0  0  0  0  0  0  0  0  0
   15.4227   45.9076    3.8967 C   0  0  0  0  0  0  0  0  0  0  0  0
   12.5142   37.0673    9.2002 S   0  0  0  0  0  0  0  0  0  0  0  0
   11.4628   38.1383    9.1102 O   0  0  0  0  0  0  0  0  0  0  0  0
   11.9877   35.9267   10.0249 O   0  0  0  0  0  0  0  0  0  0  0  0
   13.9721   37.6855    9.9290 N   0  0  0  0  0  0  0  0  0  0  0  0
   16.2233   42.6141    7.9708 N   0  0  0  0  0  0  0  0  0  0  0  0
   13.7011   41.7328    7.4106 N   0  0  0  0  0  0  0  0  0  0  0  0
   13.4610   43.2795    5.5803 N   0  0  0  0  0  0  0  0  0  0  0  0
   12.9678   44.7194    3.7133 N   0  0  0  0  0  0  0  0  0  0  0  0
   15.0647   44.9199    4.7579 N   0  0  0  0  0  0  0  0  0  0  0  0
  1 15  1  0
  2 18  1  0
  2  3  1  0
  3  4  1  0
  4  5  1  0
  5  6  1  0
  5  7  1  6
  6 18  1  0
  7 20  2  0
  8 19  2  0
  9 10  2  0
 10 21  1  0
 11 23  2  0
 12 22  2  0
 13 14  2  0
 15 18  1  0
 21 11  1  0
  7  8  1  0
  9 19  1  0
 10 20  1  0
 11 22  1  0
 12 13  1  0
 14 23  1  0
 15 16  2  0
 15 17  2  0
M  END
>  <rmsd>  (1) 
0.244331121

$$$$
