MolPort-007-723-372 ChemDiv-E157-4884 MCULE-8593298101 PubChem-22517958
     RDKit          3D

 24 26  0  0  0  0  0  0  0  0999 V2000
   12.1083   39.0428   11.2661 C   0  0  0  0  0  0  0  0  0  0  0  0
   13.4666   39.6674   11.0279 C   0  0  0  0  0  0  0  0  0  0  0  0
   14.4703   39.0470   11.9813 C   0  0  0  0  0  0  0  0  0  0  0  0
   13.8852   39.4210    9.5878 C   0  0  0  0  0  0  0  0  0  0  0  0
   14.9308   40.3969    9.1584 C   0  0  0  0  0  0  0  0  0  0  0  0
   15.9329   41.9278    8.1278 C   0  0  0  0  0  0  0  0  0  0  0  0
   14.3094   42.6925    6.5780 C   0  0  0  0  0  0  0  0  0  0  0  0
   13.8874   44.3765    4.7005 C   0  0  0  0  0  0  0  0  0  0  0  0
   12.9087   44.8796    3.6937 C   0  0  1  0  0  0  0  0  0  0  0  0
   12.4480   46.2792    4.0522 C   0  0  0  0  0  0  0  0  0  0  0  0
   13.0658   44.0297    1.3747 C   0  0  0  0  0  0  0  0  0  0  0  0
   12.0219   43.1101    1.5710 C   0  0  0  0  0  0  0  0  0  0  0  0
   11.6166   42.2715    0.5285 C   0  0  0  0  0  0  0  0  0  0  0  0
   12.2509   42.3462   -0.7146 C   0  0  0  0  0  0  0  0  0  0  0  0
   13.2902   43.2592   -0.9152 C   0  0  0  0  0  0  0  0  0  0  0  0
   13.6957   44.0980    0.1274 C   0  0  0  0  0  0  0  0  0  0  0  0
   16.1905   40.4842    9.6656 N   0  0  0  0  0  0  0  0  0  0  0  0
   16.8318   41.4610    9.0108 N   0  0  0  0  0  0  0  0  0  0  0  0
   13.4994   43.3056    5.5680 N   0  0  0  0  0  0  0  0  0  0  0  0
   13.8350   41.6795    7.3575 N   0  0  0  0  0  0  0  0  0  0  0  0
   14.7883   41.3061    8.1948 N   0  0  0  0  0  0  0  0  0  0  0  0
   15.9490   43.1151    6.9477 S   0  0  0  0  0  0  0  0  0  0  0  0
   15.0307   44.9009    4.7815 O   0  0  0  0  0  0  0  0  0  0  0  0
   13.4945   44.8805    2.3974 O   0  0  0  0  0  0  0  0  0  0  0  0
  1  2  1  0
  2  3  1  0
  2  4  1  0
  4  5  1  0
  6 22  1  0
  7 22  1  0
  7 19  1  0
  9  8  1  0
  9 10  1  1
  9 24  1  0
 11 24  1  0
 12 13  2  0
 14 15  2  0
 16 11  2  0
 17 18  1  0
 19  8  1  0
 21 20  1  0
 21  5  1  0
 21  6  1  0
  5 17  2  0
  6 18  2  0
  7 20  2  0
  8 23  2  0
 11 12  1  0
 13 14  1  0
 15 16  1  0
M  END
>  <rmsd>  (1) 
0.184018701

$$$$
