MolPort-035-873-043 CSSS00160825063 MCULE-7681890348 PubChem-100020889 ZINC000218602886
     RDKit          3D

 27 29  0  0  0  0  0  0  0  0999 V2000
   12.9010   38.5881   13.6268 C   0  0  0  0  0  0  0  0  0  0  0  0
   13.3273   38.5277   12.1755 C   0  0  0  0  0  0  0  0  0  0  0  0
   13.1244   39.8866   11.5321 C   0  0  0  0  0  0  0  0  0  0  0  0
   13.5511   39.8523   10.0757 C   0  0  0  0  0  0  0  0  0  0  0  0
   15.0669   39.8598    9.9667 C   0  0  0  0  0  0  0  0  0  0  0  0
   15.4907   39.8384    8.5069 C   0  0  0  0  0  0  0  0  0  0  0  0
   15.2622   43.2263    7.4225 C   0  0  0  0  0  0  0  0  0  0  0  0
   15.5609   44.6730    7.6062 C   0  0  0  0  0  0  0  0  0  0  0  0
   14.3614   42.6578    6.5332 C   0  0  0  0  0  0  0  0  0  0  0  0
   13.8241   44.5024    4.8576 C   0  0  0  0  0  0  0  0  0  0  0  0
   12.7412   45.2333    4.1472 C   0  0  0  0  0  0  0  0  0  0  0  0
   11.4525   44.6841    4.1769 C   0  0  0  0  0  0  0  0  0  0  0  0
   10.5665   46.4578    2.8706 C   0  0  0  0  0  0  0  0  0  0  0  0
   11.8286   47.0662    2.8017 C   0  0  0  0  0  0  0  0  0  0  0  0
   12.0064   48.2720    2.1065 C   0  0  0  0  0  0  0  0  0  0  0  0
   13.2639   48.8738    2.0457 C   0  0  0  0  0  0  0  0  0  0  0  0
   14.3539   48.2771    2.6792 C   0  0  0  0  0  0  0  0  0  0  0  0
   14.1885   47.0769    3.3735 C   0  0  0  0  0  0  0  0  0  0  0  0
   12.9326   46.4513    3.4467 C   0  0  0  0  0  0  0  0  0  0  0  0
   14.3358   41.3211    6.8567 C   0  0  0  0  0  0  0  0  0  0  0  0
   13.4884   40.2711    6.2208 C   0  0  0  0  0  0  0  0  0  0  0  0
   15.2002   41.1160    7.8693 N   0  0  0  0  0  0  0  0  0  0  0  0
   15.7626   42.2631    8.2235 N   0  0  0  0  0  0  0  0  0  0  0  0
   13.5101   43.3036    5.5780 N   0  0  0  0  0  0  0  0  0  0  0  0
   10.4137   45.2939    3.5511 N   0  0  0  0  0  0  0  0  0  0  0  0
   15.0202   44.8937    4.7905 O   0  0  0  0  0  0  0  0  0  0  0  0
    9.5668   46.9799    2.3076 O   0  0  0  0  0  0  0  0  0  0  0  0
  1  2  1  0
  2  3  1  0
  3  4  1  0
  4  5  1  0
  5  6  1  0
  6 22  1  0
  7  9  1  0
  8  7  1  0
  9 24  1  0
 10 11  1  0
 12 25  1  0
 13 14  1  0
 15 16  2  0
 17 18  2  0
 19 11  1  0
 19 14  2  0
 20 22  1  0
 21 20  1  0
 22 23  1  0
 24 10  1  0
 25 13  1  0
  7 23  2  0
  9 20  2  0
 10 26  2  0
 11 12  2  0
 13 27  2  0
 14 15  1  0
 16 17  1  0
 18 19  1  0
M  END
>  <rmsd>  (1) 
0.194993153

$$$$
