MolPort-007-723-584 6818378 CHEMBL1321432 ChemDiv-E157-6429 MCULE-4634491322 PubChem-16017478 ZINC000006818378 ZINC06818378
     RDKit          3D

 26 28  0  0  0  0  0  0  0  0999 V2000
   13.5218   39.2702   11.2361 C   0  0  0  0  0  0  0  0  0  0  0  0
   13.5598   41.7658   11.5571 C   0  0  0  0  0  0  0  0  0  0  0  0
   14.1486   43.0213   11.3313 C   0  0  0  0  0  0  0  0  0  0  0  0
   13.6015   44.1775   11.8940 C   0  0  0  0  0  0  0  0  0  0  0  0
   12.4577   44.0921   12.6907 C   0  0  0  0  0  0  0  0  0  0  0  0
   11.8753   45.3213   13.2891 C   0  0  0  0  0  0  0  0  0  0  0  0
   11.8617   42.8510   12.9251 C   0  0  0  0  0  0  0  0  0  0  0  0
   12.4095   41.6951   12.3616 C   0  0  0  0  0  0  0  0  0  0  0  0
   15.1352   41.6277    8.5244 C   0  0  0  0  0  0  0  0  0  0  0  0
   14.2370   42.7815    6.6373 C   0  0  0  0  0  0  0  0  0  0  0  0
   13.9132   44.3448    4.6647 C   0  0  0  0  0  0  0  0  0  0  0  0
   13.0046   44.7974    3.5713 C   0  0  0  0  0  0  0  0  0  0  0  0
   13.6332   44.5242    2.1957 C   0  0  0  0  0  0  0  0  0  0  0  0
   13.1637   45.4974    1.1068 C   0  0  0  0  0  0  0  0  0  0  0  0
   11.7308   45.9568    1.3592 C   0  0  0  0  0  0  0  0  0  0  0  0
   11.6134   46.7173    2.6875 C   0  0  0  0  0  0  0  0  0  0  0  0
   12.6300   46.2687    3.7466 C   0  0  0  0  0  0  0  0  0  0  0  0
   14.1201   40.5721   10.9736 N   0  0  0  0  0  0  0  0  0  0  0  0
   15.9797   42.5538    8.0208 N   0  0  0  0  0  0  0  0  0  0  0  0
   15.4799   43.1972    6.9677 N   0  0  0  0  0  0  0  0  0  0  0  0
   13.4730   43.3098    5.5492 N   0  0  0  0  0  0  0  0  0  0  0  0
   15.5023   40.6357    9.9207 S   0  0  0  0  0  0  0  0  0  0  0  0
   13.6889   41.5662    7.6635 S   0  0  0  0  0  0  0  0  0  0  0  0
   16.6687   41.2168   10.6696 O   0  0  0  0  0  0  0  0  0  0  0  0
   15.8618   39.2527    9.4542 O   0  0  0  0  0  0  0  0  0  0  0  0
   15.0509   44.8728    4.8005 O   0  0  0  0  0  0  0  0  0  0  0  0
  1 18  1  0
  3  4  2  0
  5  7  2  0
  6  5  1  0
  8  2  2  0
  9 23  1  0
 10 21  1  0
 10 23  1  0
 12 11  1  0
 12 13  1  0
 13 14  1  0
 14 15  1  0
 15 16  1  0
 16 17  1  0
 17 12  1  0
 18  2  1  0
 19 20  1  0
 21 11  1  0
 22 18  1  0
 22  9  1  0
  2  3  1  0
  4  5  1  0
  7  8  1  0
  9 19  2  0
 10 20  2  0
 11 26  2  0
 22 24  2  0
 22 25  2  0
M  END
>  <rmsd>  (1) 
0.199524418

$$$$
