Molport-020-278-777 MCULE-4915832117 PubChem-110255647
     RDKit          3D

 25 27  0  0  0  0  0  0  0  0999 V2000
   17.6005   43.1835    8.1691 C   0  0  0  0  0  0  0  0  0  0  0  0
   16.2325   42.6661    7.9072 C   0  0  0  0  0  0  0  0  0  0  0  0
   14.4729   41.1839    8.4543 C   0  0  0  0  0  0  0  0  0  0  0  0
   13.6996   41.7101    7.4197 C   0  0  0  0  0  0  0  0  0  0  0  0
   14.2360   42.7315    6.6361 C   0  0  0  0  0  0  0  0  0  0  0  0
   13.8476   44.3250    4.6766 C   0  0  0  0  0  0  0  0  0  0  0  0
   15.4446   45.9080    3.9218 C   0  0  0  0  0  0  0  0  0  0  0  0
   14.5577   46.3311    2.9308 C   0  0  0  0  0  0  0  0  0  0  0  0
   12.9626   44.7509    3.6839 C   0  0  0  0  0  0  0  0  0  0  0  0
   13.9180   40.0899    9.3044 C   0  0  2  0  0  0  0  0  0  0  0  0
   13.8153   40.5353   10.7667 C   0  0  0  0  0  0  0  0  0  0  0  0
   13.3630   39.4138   11.7165 C   0  0  0  0  0  0  0  0  0  0  0  0
   13.2029   38.0612   11.0213 C   0  0  0  0  0  0  0  0  0  0  0  0
   14.7678   38.8231    9.1809 C   0  0  0  0  0  0  0  0  0  0  0  0
   15.1042   36.5901   10.2767 C   0  0  0  0  0  0  0  0  0  0  0  0
   14.7057   35.5358   11.2557 C   0  0  0  0  0  0  0  0  0  0  0  0
   13.3706   33.8394   11.7065 C   0  0  0  0  0  0  0  0  0  0  0  0
   15.7237   41.6709    8.6788 N   0  0  0  0  0  0  0  0  0  0  0  0
   15.4913   43.1886    6.8957 N   0  0  0  0  0  0  0  0  0  0  0  0
   13.4499   43.2788    5.5709 N   0  0  0  0  0  0  0  0  0  0  0  0
   15.0707   44.9157    4.7718 N   0  0  0  0  0  0  0  0  0  0  0  0
   13.3362   45.7434    2.8334 N   0  0  0  0  0  0  0  0  0  0  0  0
   14.3514   37.8064   10.1515 N   0  0  0  0  0  0  0  0  0  0  0  0
   16.1006   36.3818    9.5338 O   0  0  0  0  0  0  0  0  0  0  0  0
   13.7711   34.6819   10.6707 O   0  0  0  0  0  0  0  0  0  0  0  0
  1  2  1  0
  2 19  2  0
  3 18  2  0
  4  5  2  0
  5 20  1  0
  7 21  2  0
  8 22  2  0
  9  6  2  0
 10  3  1  6
 10 11  1  0
 11 12  1  0
 12 13  1  0
 13 23  1  0
 14 23  1  0
 14 10  1  0
 16 15  1  0
 16 25  1  0
 17 25  1  0
 20  6  1  0
 23 15  1  0
  2 18  1  0
  3  4  1  0
  5 19  1  0
  6 21  1  0
  7  8  1  0
  9 22  1  0
 15 24  2  0
M  END
>  <rmsd>  (1) 
0.247688651

$$$$
