MolPort-020-295-087 MCULE-2160186047 PubChem-110267185
     RDKit          3D

 30 33  0  0  0  0  0  0  0  0999 V2000
   11.1630   45.7028    1.5567 C   0  0  0  0  0  0  0  0  0  0  0  0
   13.3633   45.7702    2.8124 C   0  0  0  0  0  0  0  0  0  0  0  0
   15.4469   45.9056    3.9240 C   0  0  0  0  0  0  0  0  0  0  0  0
   13.8501   44.3271    4.6731 C   0  0  0  0  0  0  0  0  0  0  0  0
   12.9650   44.7482    3.6813 C   0  0  0  0  0  0  0  0  0  0  0  0
   14.2299   42.7314    6.6345 C   0  0  0  0  0  0  0  0  0  0  0  0
   16.2230   42.6649    7.9105 C   0  0  0  0  0  0  0  0  0  0  0  0
   15.6971   41.6449    8.6998 C   0  0  0  0  0  0  0  0  0  0  0  0
   14.4059   41.1843    8.4201 C   0  0  0  0  0  0  0  0  0  0  0  0
   13.7826   40.0911    9.2280 C   0  0  2  0  0  0  0  0  0  0  0  0
   13.6343   40.5038   10.6949 C   0  0  0  0  0  0  0  0  0  0  0  0
   12.9867   39.3806   11.5014 C   0  0  0  0  0  0  0  0  0  0  0  0
   13.8231   38.1110   11.3829 C   0  0  0  0  0  0  0  0  0  0  0  0
   14.5820   38.7924    9.1042 C   0  0  0  0  0  0  0  0  0  0  0  0
   13.7588   36.4478    9.4662 C   0  0  0  0  0  0  0  0  0  0  0  0
   12.8096   35.5113   10.1131 C   0  0  0  0  0  0  0  0  0  0  0  0
   11.8185   35.9696   10.9946 C   0  0  0  0  0  0  0  0  0  0  0  0
   10.9135   35.0759   11.5742 C   0  0  0  0  0  0  0  0  0  0  0  0
   10.9865   33.7142   11.2716 C   0  0  0  0  0  0  0  0  0  0  0  0
   11.9604   33.2475   10.3856 C   0  0  0  0  0  0  0  0  0  0  0  0
   12.8649   34.1425    9.8069 C   0  0  0  0  0  0  0  0  0  0  0  0
   12.4961   46.2407    1.7778 N   0  0  0  0  0  0  0  0  0  0  0  0
   14.5951   46.3262    2.9529 N   0  0  0  0  0  0  0  0  0  0  0  0
   15.0733   44.9144    4.7742 N   0  0  0  0  0  0  0  0  0  0  0  0
   13.4494   43.2812    5.5663 N   0  0  0  0  0  0  0  0  0  0  0  0
   15.4850   43.1878    6.8975 N   0  0  0  0  0  0  0  0  0  0  0  0
   13.7032   41.7364    7.3962 N   0  0  0  0  0  0  0  0  0  0  0  0
   13.9967   37.7741    9.9719 N   0  0  0  0  0  0  0  0  0  0  0  0
   14.3703   36.0698    8.4290 O   0  0  0  0  0  0  0  0  0  0  0  0
   10.1102   32.8474   11.8332 F   0  0  0  0  0  0  0  0  0  0  0  0
  1 22  1  0
  3 23  2  0
  4 24  2  0
  4 25  1  0
  5  2  2  0
  6 27  2  0
  7 26  2  0
  8  9  2  0
 10  9  1  6
 10 11  1  0
 11 12  1  0
 12 13  1  0
 13 28  1  0
 14 28  1  0
 14 10  1  0
 15 16  1  0
 17 18  2  0
 19 20  2  0
 19 30  1  0
 21 16  2  0
 22  2  1  0
 25  6  1  0
 28 15  1  0
  2 23  1  0
  3 24  1  0
  4  5  1  0
  6 26  1  0
  7  8  1  0
  9 27  1  0
 15 29  2  0
 16 17  1  0
 18 19  1  0
 20 21  1  0
M  END
>  <rmsd>  (1) 
0.24086526

$$$$
