MolPort-001-807-984 CSSS03437709741 MCULE-8779169149 PubChem-2812781 ZINC000001033253 ZINC01033253
     RDKit          3D

 28 31  0  0  0  0  0  0  0  0999 V2000
   17.7434   41.3020   10.0748 C   0  0  0  0  0  0  0  0  0  0  0  0
   15.6856   41.5252    8.7097 C   0  0  0  0  0  0  0  0  0  0  0  0
   16.2566   42.5604    7.9510 C   0  0  0  0  0  0  0  0  0  0  0  0
   15.5446   43.1591    6.9121 C   0  0  0  0  0  0  0  0  0  0  0  0
   14.2473   42.7325    6.6078 C   0  0  0  0  0  0  0  0  0  0  0  0
   13.8977   44.3739    4.6679 C   0  0  0  0  0  0  0  0  0  0  0  0
   13.2157   45.8630    2.6938 C   0  0  0  0  0  0  0  0  0  0  0  0
   12.1980   46.1693    1.7811 C   0  0  0  0  0  0  0  0  0  0  0  0
   12.3770   47.1772    0.8277 C   0  0  0  0  0  0  0  0  0  0  0  0
   13.5803   47.8843    0.7843 C   0  0  0  0  0  0  0  0  0  0  0  0
   14.8698   49.8208   -0.0092 C   0  0  0  0  0  0  0  0  0  0  0  0
   16.1233   49.0729    0.4510 C   0  0  0  0  0  0  0  0  0  0  0  0
   14.6139   47.5665    1.6754 C   0  0  0  0  0  0  0  0  0  0  0  0
   14.4286   46.5683    2.6347 C   0  0  0  0  0  0  0  0  0  0  0  0
   13.6728   41.7063    7.3611 C   0  0  0  0  0  0  0  0  0  0  0  0
   14.3674   41.0993    8.4136 C   0  0  0  0  0  0  0  0  0  0  0  0
   14.1446   39.5153   10.3441 C   0  0  0  0  0  0  0  0  0  0  0  0
   13.7997   40.4423   11.5007 C   0  0  0  0  0  0  0  0  0  0  0  0
   12.8210   39.6952   12.3826 C   0  0  0  0  0  0  0  0  0  0  0  0
   13.0083   38.2347   12.0493 C   0  0  0  0  0  0  0  0  0  0  0  0
   13.4092   38.2132   10.5928 C   0  0  0  0  0  0  0  0  0  0  0  0
   16.4185   40.9157    9.7346 O   0  0  0  0  0  0  0  0  0  0  0  0
   15.0407   44.8929    4.7818 O   0  0  0  0  0  0  0  0  0  0  0  0
   13.7733   48.9133   -0.1415 O   0  0  0  0  0  0  0  0  0  0  0  0
   15.8248   48.2589    1.5877 O   0  0  0  0  0  0  0  0  0  0  0  0
   13.7044   40.0801    9.1151 O   0  0  0  0  0  0  0  0  0  0  0  0
   13.4835   43.3184    5.5445 N   0  0  0  0  0  0  0  0  0  0  0  0
   12.9860   44.8276    3.6595 N   0  0  0  0  0  0  0  0  0  0  0  0
  1 22  1  0
  2 22  1  0
  3  4  2  0
  5 27  1  0
  5 15  2  0
  6 28  1  0
  8  9  2  0
 10 24  1  0
 11 24  1  0
 11 12  1  0
 12 25  1  0
 13 25  1  0
 13 10  2  0
 14  7  2  0
 16 26  1  0
 16  2  2  0
 17 26  1  0
 17 18  1  0
 18 19  1  0
 19 20  1  0
 20 21  1  0
 21 17  1  0
 27  6  1  0
 28  7  1  0
  2  3  1  0
  4  5  1  0
  6 23  2  0
  7  8  1  0
  9 10  1  0
 13 14  1  0
 15 16  1  0
M  END
>  <rmsd>  (1) 
0.231733128

$$$$
