MolPort-001-659-628 2730708 CSSS00132994376 MCULE-4414717107 PubChem-19585148 ZINC000002730708 ZINC02730708
     RDKit          3D

 27 29  0  0  0  0  0  0  0  0999 V2000
   13.0087   39.4550   11.9953 C   0  0  0  0  0  0  0  0  0  0  0  0
   14.1038   39.3936   10.9497 C   0  0  0  0  0  0  0  0  0  0  0  0
   14.9112   40.2180    9.0688 C   0  0  0  0  0  0  0  0  0  0  0  0
   13.8482   41.5913    7.2894 C   0  0  0  0  0  0  0  0  0  0  0  0
   14.2640   42.6554    6.5225 C   0  0  0  0  0  0  0  0  0  0  0  0
   13.8929   44.4131    4.7226 C   0  0  0  0  0  0  0  0  0  0  0  0
   12.9371   45.0183    3.7523 C   0  0  0  0  0  0  0  0  0  0  0  0
   12.3925   46.3407    4.2726 C   0  0  0  0  0  0  0  0  0  0  0  0
   10.3313   47.6167    5.8306 C   0  0  0  0  0  0  0  0  0  0  0  0
   10.9180   48.5260    6.7195 C   0  0  0  0  0  0  0  0  0  0  0  0
   10.3012   49.7525    6.9839 C   0  0  0  0  0  0  0  0  0  0  0  0
    9.0950   50.0758    6.3575 C   0  0  0  0  0  0  0  0  0  0  0  0
    8.4728   51.3004    6.6154 C   0  0  0  0  0  0  0  0  0  0  0  0
    7.2673   51.6182    5.9813 C   0  0  0  0  0  0  0  0  0  0  0  0
    6.6820   50.7141    5.0886 C   0  0  0  0  0  0  0  0  0  0  0  0
    7.2982   49.4863    4.8260 C   0  0  0  0  0  0  0  0  0  0  0  0
    8.5024   49.1610    5.4564 C   0  0  0  0  0  0  0  0  0  0  0  0
    9.1249   47.9374    5.1978 C   0  0  0  0  0  0  0  0  0  0  0  0
   15.5601   42.9636    6.8933 C   0  0  0  0  0  0  0  0  0  0  0  0
   13.9455   40.4468   10.0504 O   0  0  0  0  0  0  0  0  0  0  0  0
   15.0541   44.8900    4.8322 O   0  0  0  0  0  0  0  0  0  0  0  0
   11.7208   45.5506    6.7674 O   0  0  0  0  0  0  0  0  0  0  0  0
   10.1070   45.1000    4.9842 O   0  0  0  0  0  0  0  0  0  0  0  0
   14.8856   41.2926    8.0914 N   0  0  0  0  0  0  0  0  0  0  0  0
   13.4697   43.3060    5.5255 N   0  0  0  0  0  0  0  0  0  0  0  0
   15.9108   42.0977    7.8643 N   0  0  0  0  0  0  0  0  0  0  0  0
   11.1196   46.0859    5.4979 S   0  0  0  0  0  0  0  0  0  0  0  0
  1  2  1  0
  2 20  1  0
  3 20  1  0
  3 24  1  0
  5 25  1  0
  5 19  1  0
  7  6  1  0
  7  8  1  0
  8 27  1  0
 10 11  2  0
 12 13  2  0
 14 15  2  0
 16 17  2  0
 17 12  1  0
 18  9  2  0
 24  4  1  0
 24 26  1  0
 25  6  1  0
 27  9  1  0
  4  5  2  0
  6 21  2  0
  9 10  1  0
 11 12  1  0
 13 14  1  0
 15 16  1  0
 17 18  1  0
 19 26  2  0
 27 22  2  0
 27 23  2  0
M  END
>  <rmsd>  (1) 
0.228361115

$$$$
