MolPort-047-015-566 MCULE-8578729561 PubChem-155985313
     RDKit          3D

 22 24  0  0  0  0  0  0  0  0999 V2000
   14.3749   41.1570    8.4502 C   0  0  0  0  0  0  0  0  0  0  0  0
   13.7398   40.0716    9.2532 C   0  0  2  0  0  0  0  0  0  0  0  0
   13.5585   40.5092   10.7080 C   0  0  0  0  0  0  0  0  0  0  0  0
   13.0128   39.3636   11.5644 C   0  0  0  0  0  0  0  0  0  0  0  0
   13.6082   38.0042   11.1742 C   0  0  0  0  0  0  0  0  0  0  0  0
   15.3821   36.8436   10.1695 C   0  0  0  0  0  0  0  0  0  0  0  0
   16.4345   36.4957   11.2043 C   0  0  0  0  0  0  0  0  0  0  0  0
   14.5402   38.7620    9.1262 C   0  0  0  0  0  0  0  0  0  0  0  0
   16.2171   42.5722    8.0131 C   0  0  0  0  0  0  0  0  0  0  0  0
   17.5926   43.0259    8.3449 C   0  0  0  0  0  0  0  0  0  0  0  0
   15.5257   43.1597    6.9559 C   0  0  0  0  0  0  0  0  0  0  0  0
   14.2321   42.7117    6.6672 C   0  0  0  0  0  0  0  0  0  0  0  0
   13.8705   44.3127    4.7016 C   0  0  0  0  0  0  0  0  0  0  0  0
   14.0648   46.0271    2.9465 C   0  0  0  0  0  0  0  0  0  0  0  0
   15.1786   45.8817    3.7749 C   0  0  0  0  0  0  0  0  0  0  0  0
   14.8559   38.1723   10.4298 N   0  0  0  0  0  0  0  0  0  0  0  0
   15.6337   41.5852    8.7400 N   0  0  0  0  0  0  0  0  0  0  0  0
   13.4616   43.2697    5.5946 N   0  0  0  0  0  0  0  0  0  0  0  0
   15.0668   44.9327    4.7438 N   0  0  0  0  0  0  0  0  0  0  0  0
   13.6878   41.7206    7.4218 N   0  0  0  0  0  0  0  0  0  0  0  0
   16.9331   35.2196   10.9486 O   0  0  0  0  0  0  0  0  0  0  0  0
   12.9128   44.9136    3.4697 S   0  0  0  0  0  0  0  0  0  0  0  0
  1 20  2  0
  2  1  1  6
  2  3  1  0
  3  4  1  0
  4  5  1  0
  5 16  1  0
  6 16  1  0
  6  7  1  0
  7 21  1  0
  8 16  1  0
  8  2  1  0
  9 17  2  0
 10  9  1  0
 11 12  2  0
 12 18  1  0
 13 22  1  0
 14 22  1  0
 15 19  1  0
 18 13  1  0
  1 17  1  0
  9 11  1  0
 12 20  1  0
 13 19  2  0
 14 15  2  0
M  END
>  <rmsd>  (1) 
0.248132631

$$$$
