MolPort-020-292-515 MCULE-1986421558 PubChem-110264983
     RDKit          3D

 33 36  0  0  0  0  0  0  0  0999 V2000
   16.7861   46.5362    4.0449 C   0  0  0  0  0  0  0  0  0  0  0  0
   15.4441   45.9114    3.9167 C   0  0  0  0  0  0  0  0  0  0  0  0
   14.5670   46.3406    2.9224 C   0  0  0  0  0  0  0  0  0  0  0  0
   13.3184   45.7283    2.8341 C   0  0  0  0  0  0  0  0  0  0  0  0
   13.8490   44.3309    4.6695 C   0  0  0  0  0  0  0  0  0  0  0  0
   14.2154   42.7218    6.6417 C   0  0  0  0  0  0  0  0  0  0  0  0
   13.6477   41.6987    7.4048 C   0  0  0  0  0  0  0  0  0  0  0  0
   14.3718   41.1369    8.4598 C   0  0  0  0  0  0  0  0  0  0  0  0
   16.2024   42.5835    8.0124 C   0  0  0  0  0  0  0  0  0  0  0  0
   15.5075   43.1664    6.9516 C   0  0  0  0  0  0  0  0  0  0  0  0
   17.5734   43.0493    8.3468 C   0  0  0  0  0  0  0  0  0  0  0  0
   13.7590   40.0436    9.2704 C   0  0  2  0  0  0  0  0  0  0  0  0
   13.6304   40.4643   10.7349 C   0  0  0  0  0  0  0  0  0  0  0  0
   12.9991   39.3422   11.5557 C   0  0  0  0  0  0  0  0  0  0  0  0
   13.8331   38.0701   11.4345 C   0  0  0  0  0  0  0  0  0  0  0  0
   14.5832   38.7622    9.1551 C   0  0  0  0  0  0  0  0  0  0  0  0
   13.4901   36.5219    9.4533 C   0  0  0  0  0  0  0  0  0  0  0  0
   13.2700   35.2976   10.2588 C   0  0  0  0  0  0  0  0  0  0  0  0
   12.4481   34.2750    9.7597 C   0  0  0  0  0  0  0  0  0  0  0  0
   12.2491   33.1015   10.4926 C   0  0  0  0  0  0  0  0  0  0  0  0
   12.8810   32.9333   11.7281 C   0  0  0  0  0  0  0  0  0  0  0  0
   13.7041   33.9436   12.2328 C   0  0  0  0  0  0  0  0  0  0  0  0
   13.9019   35.1162   11.4986 C   0  0  0  0  0  0  0  0  0  0  0  0
   12.6486   31.6960   12.5212 C   0  0  0  0  0  0  0  0  0  0  0  0
   11.4980   30.7068   14.1226 C   0  0  0  0  0  0  0  0  0  0  0  0
   12.3527   46.1574    1.7894 C   0  0  0  0  0  0  0  0  0  0  0  0
   12.9834   44.7396    3.7040 N   0  0  0  0  0  0  0  0  0  0  0  0
   15.0726   44.9194    4.7674 N   0  0  0  0  0  0  0  0  0  0  0  0
   13.4524   43.2828    5.5645 N   0  0  0  0  0  0  0  0  0  0  0  0
   15.6264   41.5893    8.7389 N   0  0  0  0  0  0  0  0  0  0  0  0
   14.0146   37.7349   10.0238 N   0  0  0  0  0  0  0  0  0  0  0  0
   13.2131   36.4944    8.2221 O   0  0  0  0  0  0  0  0  0  0  0  0
   11.5549   31.8778   13.3682 O   0  0  0  0  0  0  0  0  0  0  0  0
  1  2  1  0
  2 28  2  0
  3  4  2  0
  5 27  2  0
  5 29  1  0
  7  8  2  0
  9 30  2  0
 10  6  2  0
 11  9  1  0
 12  8  1  6
 12 13  1  0
 13 14  1  0
 14 15  1  0
 15 31  1  0
 16 31  1  0
 16 12  1  0
 17 18  1  0
 19 20  2  0
 21 22  2  0
 23 18  2  0
 24 21  1  0
 24 33  1  0
 25 33  1  0
 26  4  1  0
 29  6  1  0
 31 17  1  0
  2  3  1  0
  4 27  1  0
  5 28  1  0
  6  7  1  0
  8 30  1  0
  9 10  1  0
 17 32  2  0
 18 19  1  0
 20 21  1  0
 22 23  1  0
M  END
>  <rmsd>  (1) 
0.24337256

$$$$
