Molport-052-053-752 MCULE-2490986970
     RDKit          3D

 32 35  0  0  0  0  0  0  0  0999 V2000
   13.8693   44.3169    4.6976 C   0  0  0  0  0  0  0  0  0  0  0  0
   14.0978   46.0219    2.9854 C   0  0  0  0  0  0  0  0  0  0  0  0
   15.2106   45.8830    3.8039 C   0  0  0  0  0  0  0  0  0  0  0  0
   13.9722   46.9877    1.8629 C   0  0  0  0  0  0  0  0  0  0  0  0
   14.2276   42.7204    6.6470 C   0  0  0  0  0  0  0  0  0  0  0  0
   13.6861   41.6998    7.4278 C   0  0  0  0  0  0  0  0  0  0  0  0
   14.4545   41.1719    8.4651 C   0  0  0  0  0  0  0  0  0  0  0  0
   13.8946   40.0782    9.3119 C   0  0  2  0  0  0  0  0  0  0  0  0
   13.7917   40.5191   10.7758 C   0  0  0  0  0  0  0  0  0  0  0  0
   13.3757   39.3860   11.7278 C   0  0  0  0  0  0  0  0  0  0  0  0
   13.1661   38.0519   11.0133 C   0  0  0  0  0  0  0  0  0  0  0  0
   15.0375   36.5390   10.2066 C   0  0  0  0  0  0  0  0  0  0  0  0
   14.5464   35.3323   10.9617 C   0  0  2  0  0  0  0  0  0  0  0  0
   13.5287   34.4926   10.1829 C   0  0  0  0  0  0  0  0  0  0  0  0
   12.2197   35.1793    9.9581 C   0  0  0  0  0  0  0  0  0  0  0  0
   11.2893   35.2975   10.9985 C   0  0  0  0  0  0  0  0  0  0  0  0
   10.0631   35.9299   10.7733 C   0  0  0  0  0  0  0  0  0  0  0  0
    9.7617   36.4394    9.5067 C   0  0  0  0  0  0  0  0  0  0  0  0
   10.6828   36.3093    8.4630 C   0  0  0  0  0  0  0  0  0  0  0  0
   11.9088   35.6760    8.6875 C   0  0  0  0  0  0  0  0  0  0  0  0
   14.7351   38.8058    9.1815 C   0  0  0  0  0  0  0  0  0  0  0  0
   16.2196   42.6500    7.9245 C   0  0  0  0  0  0  0  0  0  0  0  0
   17.5889   43.1624    8.1899 C   0  0  0  0  0  0  0  0  0  0  0  0
   12.9122   44.9285    3.4598 S   0  0  0  0  0  0  0  0  0  0  0  0
   15.0748   44.9261    4.7605 N   0  0  0  0  0  0  0  0  0  0  0  0
   13.4484   43.2714    5.5798 N   0  0  0  0  0  0  0  0  0  0  0  0
   14.2990   37.7745   10.1296 N   0  0  0  0  0  0  0  0  0  0  0  0
   14.0958   35.6501   12.3078 N   0  0  0  0  0  0  0  0  0  0  0  0
   15.7061   41.6554    8.6937 N   0  0  0  0  0  0  0  0  0  0  0  0
   15.4830   43.1750    6.9109 N   0  0  0  0  0  0  0  0  0  0  0  0
   16.1247   36.4277    9.5790 O   0  0  0  0  0  0  0  0  0  0  0  0
    8.5745   37.0542    9.2892 F   0  0  0  0  0  0  0  0  0  0  0  0
  1 24  1  0
  1 26  1  0
  2 24  1  0
  3 25  1  0
  4  2  1  0
  5 30  2  0
  6  7  2  0
  8  7  1  6
  8  9  1  0
  9 10  1  0
 10 11  1  0
 11 27  1  0
 13 12  1  0
 13 28  1  1
 13 14  1  0
 14 15  1  0
 16 17  2  0
 18 19  2  0
 18 32  1  0
 20 15  2  0
 21 27  1  0
 21  8  1  0
 22 29  2  0
 23 22  1  0
 26  5  1  0
 27 12  1  0
  1 25  2  0
  2  3  2  0
  5  6  1  0
  7 29  1  0
 12 31  2  0
 15 16  1  0
 17 18  1  0
 19 20  1  0
 22 30  1  0
M  END
>  <rmsd>  (1) 
0.246316001

$$$$
