MolPort-001-808-492 CSSS00105904989 MCULE-8476172598 PubChem-2813925 ZINC000001033835
     RDKit          3D

 26 28  0  0  0  0  0  0  0  0999 V2000
   17.6387   41.3165   10.1511 C   0  0  0  0  0  0  0  0  0  0  0  0
   15.6091   41.5374    8.7440 C   0  0  0  0  0  0  0  0  0  0  0  0
   16.1969   42.5687    7.9930 C   0  0  0  0  0  0  0  0  0  0  0  0
   15.5071   43.1643    6.9373 C   0  0  0  0  0  0  0  0  0  0  0  0
   14.2155   42.7385    6.6087 C   0  0  0  0  0  0  0  0  0  0  0  0
   13.9076   44.3750    4.6537 C   0  0  0  0  0  0  0  0  0  0  0  0
   13.4602   45.9385    2.7438 C   0  0  0  0  0  0  0  0  0  0  0  0
   13.1577   45.6113    1.2790 C   0  0  0  0  0  0  0  0  0  0  0  0
   11.7956   44.9285    1.0690 C   0  0  0  0  0  0  0  0  0  0  0  0
   10.9268   44.9150    2.3262 C   0  0  0  0  0  0  0  0  0  0  0  0
   11.6933   44.2683    3.4775 C   0  0  0  0  0  0  0  0  0  0  0  0
   11.0651   45.5684   -0.0619 C   0  0  0  0  0  0  0  0  0  0  0  0
   13.6243   41.7162    7.3541 C   0  0  0  0  0  0  0  0  0  0  0  0
   14.2965   41.1122    8.4229 C   0  0  0  0  0  0  0  0  0  0  0  0
   14.0357   39.5311   10.3505 C   0  0  0  0  0  0  0  0  0  0  0  0
   13.6699   40.4445   11.4996 C   0  0  0  0  0  0  0  0  0  0  0  0
   13.4055   39.5324   12.6804 C   0  0  0  0  0  0  0  0  0  0  0  0
   13.1689   38.1409   12.1186 C   0  0  0  0  0  0  0  0  0  0  0  0
   13.2810   38.2500   10.6114 C   0  0  0  0  0  0  0  0  0  0  0  0
   16.3199   40.9313    9.7862 O   0  0  0  0  0  0  0  0  0  0  0  0
   15.0505   44.8906    4.7906 O   0  0  0  0  0  0  0  0  0  0  0  0
   10.6871   46.9041    0.0095 O   0  0  0  0  0  0  0  0  0  0  0  0
   10.7888   44.8946   -1.0878 O   0  0  0  0  0  0  0  0  0  0  0  0
   13.6176   40.0967    9.1145 O   0  0  0  0  0  0  0  0  0  0  0  0
   13.4744   43.3213    5.5281 N   0  0  0  0  0  0  0  0  0  0  0  0
   13.0356   44.8420    3.6152 N   0  0  0  0  0  0  0  0  0  0  0  0
  1 20  1  0
  2 20  1  0
  3  4  2  0
  5 25  1  0
  5 13  2  0
  6 26  1  0
  7 26  1  0
  7  8  1  0
  8  9  1  0
  9 10  1  0
  9 12  1  0
 10 11  1  0
 11 26  1  0
 12 22  1  0
 14 24  1  0
 14  2  2  0
 15 24  1  0
 15 16  1  0
 16 17  1  0
 17 18  1  0
 18 19  1  0
 19 15  1  0
 25  6  1  0
  2  3  1  0
  4  5  1  0
  6 21  2  0
 12 23  2  0
 13 14  1  0
M  END
>  <rmsd>  (1) 
0.247712448

$$$$
