MolPort-007-714-480 ChemDiv-E002-1797 MCULE-9825008472 PubChem-22510800 ZINC000006792409 ZINC06792409
     RDKit          3D

 26 27  0  0  0  0  0  0  0  0999 V2000
   13.0760   40.6595   11.1543 C   0  0  0  0  0  0  0  0  0  0  0  0
   14.1052   39.5460   11.1252 C   0  0  0  0  0  0  0  0  0  0  0  0
   13.4493   38.2520   11.5568 C   0  0  0  0  0  0  0  0  0  0  0  0
   14.6613   39.3826    9.7199 C   0  0  0  0  0  0  0  0  0  0  0  0
   16.8893   40.5114    9.9754 C   0  0  0  0  0  0  0  0  0  0  0  0
   17.1029   41.7839   10.7831 C   0  0  0  0  0  0  0  0  0  0  0  0
   18.5846   41.9805   11.0220 C   0  0  0  0  0  0  0  0  0  0  0  0
   16.3936   41.6889   12.1189 C   0  0  0  0  0  0  0  0  0  0  0  0
   15.2135   41.3840    8.3146 C   0  0  0  0  0  0  0  0  0  0  0  0
   14.2624   42.6887    6.5483 C   0  0  0  0  0  0  0  0  0  0  0  0
   13.8939   44.3911    4.7006 C   0  0  0  0  0  0  0  0  0  0  0  0
   13.2277   45.9842    2.8042 C   0  0  0  0  0  0  0  0  0  0  0  0
   14.4498   46.6726    2.7729 C   0  0  0  0  0  0  0  0  0  0  0  0
   14.6509   47.7151    1.8642 C   0  0  0  0  0  0  0  0  0  0  0  0
   13.6328   48.0792    0.9788 C   0  0  0  0  0  0  0  0  0  0  0  0
   13.8629   49.1919    0.0171 C   0  0  0  0  0  0  0  0  0  0  0  0
   12.4090   47.3957    1.0046 C   0  0  0  0  0  0  0  0  0  0  0  0
   12.2123   46.3531    1.9156 C   0  0  0  0  0  0  0  0  0  0  0  0
   15.5567   40.4826    9.3786 N   0  0  0  0  0  0  0  0  0  0  0  0
   16.0567   42.3277    7.8363 N   0  0  0  0  0  0  0  0  0  0  0  0
   15.5275   43.0537    6.8532 N   0  0  0  0  0  0  0  0  0  0  0  0
   13.4674   43.3073    5.5320 N   0  0  0  0  0  0  0  0  0  0  0  0
   12.9840   44.9093    3.7220 N   0  0  0  0  0  0  0  0  0  0  0  0
   15.0492   44.8789    4.8292 O   0  0  0  0  0  0  0  0  0  0  0  0
   11.4092   47.7349    0.1530 F   0  0  0  0  0  0  0  0  0  0  0  0
   13.7282   41.4156    7.5094 S   0  0  0  0  0  0  0  0  0  0  0  0
  1  2  1  0
  2  3  1  0
  2  4  1  0
  4 19  1  0
  5 19  1  0
  5  6  1  0
  6  7  1  0
  6  8  1  0
  9 26  1  0
 10 22  1  0
 10 26  1  0
 11 23  1  0
 13 14  2  0
 15 17  2  0
 16 15  1  0
 17 25  1  0
 18 12  2  0
 19  9  1  0
 20 21  1  0
 22 11  1  0
 23 12  1  0
  9 20  2  0
 10 21  2  0
 11 24  2  0
 12 13  1  0
 14 15  1  0
 17 18  1  0
M  END
>  <rmsd>  (1) 
0.229105949

$$$$
