MolPort-002-799-218 MCULE-6031247094 PubChem-135401448
     RDKit          3D

 27 29  0  0  0  0  0  0  0  0999 V2000
   12.7187   43.6464    2.6003 C   0  0  0  0  0  0  0  0  0  0  0  0
   13.0250   44.7990    3.5369 C   0  0  0  0  0  0  0  0  0  0  0  0
   11.7338   45.3692    4.0908 C   0  0  0  0  0  0  0  0  0  0  0  0
   13.9151   44.3476    4.6467 C   0  0  0  0  0  0  0  0  0  0  0  0
   14.2268   42.7965    6.6483 C   0  0  0  0  0  0  0  0  0  0  0  0
   14.3598   41.2938    8.4686 C   0  0  0  0  0  0  0  0  0  0  0  0
   15.6480   41.7477    8.7862 C   0  0  0  0  0  0  0  0  0  0  0  0
   15.5297   40.4777   10.9608 C   0  0  2  0  0  0  0  0  0  0  0  0
   16.3927   39.6259   11.8925 C   0  0  0  0  0  0  0  0  0  0  0  0
   14.4636   39.5794   10.3177 C   0  0  1  0  0  0  0  0  0  0  0  0
   13.4642   39.1033   11.3571 C   0  0  0  0  0  0  0  0  0  0  0  0
   17.7491   41.3657   10.1118 C   0  0  0  0  0  0  0  0  0  0  0  0
   18.2717   42.1778   11.2293 C   0  0  0  0  0  0  0  0  0  0  0  0
   19.6498   42.2603   11.4668 C   0  0  0  0  0  0  0  0  0  0  0  0
   19.2935   43.7176   13.3070 C   0  0  0  0  0  0  0  0  0  0  0  0
   17.9132   43.6695   13.1055 C   0  0  0  0  0  0  0  0  0  0  0  0
   17.4044   42.8971   12.0607 C   0  0  0  0  0  0  0  0  0  0  0  0
   16.1857   42.7815    7.9841 C   0  0  0  0  0  0  0  0  0  0  0  0
   15.0481   44.8824    4.7771 O   0  0  0  0  0  0  0  0  0  0  0  0
   18.5488   40.8430    9.2885 O   0  0  0  0  0  0  0  0  0  0  0  0
   17.3151   43.2818    8.2259 O   0  0  0  0  0  0  0  0  0  0  0  0
   13.4770   43.3190    5.5459 N   0  0  0  0  0  0  0  0  0  0  0  0
   13.6826   41.8217    7.4178 N   0  0  0  0  0  0  0  0  0  0  0  0
   16.3322   41.1764    9.9311 N   0  0  0  0  0  0  0  0  0  0  0  0
   13.7458   40.2798    9.2612 N   0  0  0  0  0  0  0  0  0  0  0  0
   20.1266   43.0189   12.4903 N   0  0  0  0  0  0  0  0  0  0  0  0
   15.4669   43.2684    6.9400 N   0  0  0  0  0  0  0  0  0  0  0  0
  1  2  1  0
  2  3  1  0
  2  4  1  0
  4 22  1  0
  6 23  1  0
  7 24  1  0
  7 18  1  0
  8 24  1  0
  8  9  1  6
  8 10  1  0
 10 11  1  1
 10 25  1  0
 12 13  1  0
 14 26  2  0
 15 16  2  0
 17 13  2  0
 18 27  1  0
 22  5  1  0
 24 12  1  0
 25  6  1  0
 27  5  1  0
  4 19  2  0
  5 23  2  0
  6  7  2  0
 12 20  2  0
 13 14  1  0
 15 26  1  0
 16 17  1  0
 18 21  2  0
M  END
>  <rmsd>  (1) 
0.247036457

$$$$
