Molport-020-295-054 MCULE-1758090520 PubChem-110267155
     RDKit          3D

 22 24  0  0  0  0  0  0  0  0999 V2000
   12.0961   36.1283   10.1275 C   0  0  0  0  0  0  0  0  0  0  0  0
   12.6854   37.2949    9.3475 C   0  0  0  0  0  0  0  0  0  0  0  0
   12.8408   36.8458    7.9014 C   0  0  0  0  0  0  0  0  0  0  0  0
   13.8492   38.1130   11.3266 C   0  0  0  0  0  0  0  0  0  0  0  0
   13.0018   39.3782   11.4914 C   0  0  0  0  0  0  0  0  0  0  0  0
   13.6223   40.5182   10.7002 C   0  0  0  0  0  0  0  0  0  0  0  0
   13.7703   40.1037    9.2415 C   0  0  2  0  0  0  0  0  0  0  0  0
   14.5841   38.8069    9.1396 C   0  0  0  0  0  0  0  0  0  0  0  0
   14.3960   41.1947    8.4325 C   0  0  0  0  0  0  0  0  0  0  0  0
   14.2249   42.7352    6.6406 C   0  0  0  0  0  0  0  0  0  0  0  0
   16.2134   42.6756    7.9238 C   0  0  0  0  0  0  0  0  0  0  0  0
   15.6859   41.6579    8.7150 C   0  0  0  0  0  0  0  0  0  0  0  0
   13.8515   44.3231    4.6724 C   0  0  0  0  0  0  0  0  0  0  0  0
   15.4539   45.9031    3.9227 C   0  0  0  0  0  0  0  0  0  0  0  0
   14.5739   46.3227    2.9241 C   0  0  0  0  0  0  0  0  0  0  0  0
   12.9734   44.7454    3.6720 C   0  0  0  0  0  0  0  0  0  0  0  0
   13.9833   37.7066    9.9153 N   0  0  0  0  0  0  0  0  0  0  0  0
   13.6965   41.7423    7.4040 N   0  0  0  0  0  0  0  0  0  0  0  0
   15.4784   43.1939    6.9062 N   0  0  0  0  0  0  0  0  0  0  0  0
   13.4475   43.2801    5.5676 N   0  0  0  0  0  0  0  0  0  0  0  0
   15.0741   44.9139    4.7738 N   0  0  0  0  0  0  0  0  0  0  0  0
   13.3530   45.7347    2.8205 N   0  0  0  0  0  0  0  0  0  0  0  0
  1  2  1  0
  2  3  1  0
  2 17  1  0
  4 17  1  0
  4  5  1  0
  5  6  1  0
  6  7  1  0
  7  8  1  0
  7  9  1  6
  8 17  1  0
 10 18  2  0
 10 20  1  0
 11 19  2  0
 12  9  2  0
 14 21  2  0
 15 22  2  0
 16 13  2  0
 20 13  1  0
  9 18  1  0
 10 19  1  0
 11 12  1  0
 13 21  1  0
 14 15  1  0
 16 22  1  0
M  END
>  <rmsd>  (1) 
0.2451756

$$$$
