MolPort-029-901-089 96161248 CSSS02125485854 MCULE-8330030179 PubChem-72910357 ZINC000096161248
     RDKit          3D

 24 26  0  0  0  0  0  0  0  0999 V2000
   14.7704   43.8012    0.4838 C   0  0  0  0  0  0  0  0  0  0  0  0
   14.5877   45.5302    1.8503 C   0  0  1  0  0  0  0  0  0  0  0  0
   15.3288   46.8418    1.7478 C   0  0  0  0  0  0  0  0  0  0  0  0
   14.8271   49.0100    2.4616 C   0  0  0  0  0  0  0  0  0  0  0  0
   13.6540   47.1856    3.3403 C   0  0  0  0  0  0  0  0  0  0  0  0
   13.3534   45.8687    2.6477 C   0  0  2  0  0  0  0  0  0  0  0  0
   13.9142   44.3672    4.6540 C   0  0  0  0  0  0  0  0  0  0  0  0
   14.1997   42.7443    6.6185 C   0  0  0  0  0  0  0  0  0  0  0  0
   13.5982   41.7257    7.3657 C   0  0  0  0  0  0  0  0  0  0  0  0
   14.2697   41.1356    8.4416 C   0  0  0  0  0  0  0  0  0  0  0  0
   14.2071   39.4961   10.3057 C   0  0  0  0  0  0  0  0  0  0  0  0
   14.0516   40.3936   11.5242 C   0  0  0  0  0  0  0  0  0  0  0  0
   13.0003   39.7476   12.3985 C   0  0  0  0  0  0  0  0  0  0  0  0
   13.0632   38.2766   12.0678 C   0  0  0  0  0  0  0  0  0  0  0  0
   13.4538   38.2128   10.6075 C   0  0  0  0  0  0  0  0  0  0  0  0
   15.5631   41.5717    8.7696 C   0  0  0  0  0  0  0  0  0  0  0  0
   16.1716   42.5875    8.0289 C   0  0  0  0  0  0  0  0  0  0  0  0
   15.4923   43.1719    6.9573 C   0  0  0  0  0  0  0  0  0  0  0  0
   14.2290   45.0843    0.5776 O   0  0  0  0  0  0  0  0  0  0  0  0
   15.0546   44.8863    4.7948 O   0  0  0  0  0  0  0  0  0  0  0  0
   13.6325   40.1193    9.1616 O   0  0  0  0  0  0  0  0  0  0  0  0
   14.9739   47.6384    2.9141 N   0  0  0  0  0  0  0  0  0  0  0  0
   13.0395   44.8174    3.6129 N   0  0  0  0  0  0  0  0  0  0  0  0
   13.4705   43.3206    5.5265 N   0  0  0  0  0  0  0  0  0  0  0  0
  1 19  1  0
  2 19  1  6
  2  3  1  0
  3 22  1  0
  4 22  1  0
  5 22  1  0
  5  6  1  0
  6 23  1  1
  6  2  1  0
  7 24  1  0
  9 10  2  0
 10 21  1  0
 11 21  1  0
 11 12  1  0
 12 13  1  0
 13 14  1  0
 14 15  1  0
 15 11  1  0
 16 17  2  0
 18  8  2  0
 23  7  1  0
 24  8  1  0
  7 20  2  0
  8  9  1  0
 10 16  1  0
 17 18  1  0
M  END
>  <rmsd>  (1) 
0.243157864

$$$$
