MolPort-007-723-449 6818300 CHEMBL1322076 ChemDiv-E157-5479 MCULE-2754668881 PubChem-16017379 ZINC000006818300 ZINC06818300
     RDKit          3D

 27 29  0  0  0  0  0  0  0  0999 V2000
   13.5261   39.3083   11.2666 C   0  0  0  0  0  0  0  0  0  0  0  0
   13.7436   41.7962   11.5762 C   0  0  0  0  0  0  0  0  0  0  0  0
   14.3948   43.0119   11.3082 C   0  0  0  0  0  0  0  0  0  0  0  0
   13.9560   44.2012   11.8965 C   0  0  0  0  0  0  0  0  0  0  0  0
   12.8594   44.1892   12.7613 C   0  0  0  0  0  0  0  0  0  0  0  0
   12.2021   42.9883   13.0377 C   0  0  0  0  0  0  0  0  0  0  0  0
   12.6418   41.7993   12.4491 C   0  0  0  0  0  0  0  0  0  0  0  0
   15.1507   41.5588    8.4697 C   0  0  0  0  0  0  0  0  0  0  0  0
   14.2436   42.7529    6.6123 C   0  0  0  0  0  0  0  0  0  0  0  0
   13.9060   44.3684    4.6849 C   0  0  0  0  0  0  0  0  0  0  0  0
   12.9898   44.8786    3.6254 C   0  0  0  0  0  0  0  0  0  0  0  0
   11.6977   46.6045    4.8635 C   0  0  0  0  0  0  0  0  0  0  0  0
   10.4812   46.9732    5.4483 C   0  0  0  0  0  0  0  0  0  0  0  0
   10.3597   48.1967    6.1139 C   0  0  0  0  0  0  0  0  0  0  0  0
   11.4559   49.0598    6.1970 C   0  0  0  0  0  0  0  0  0  0  0  0
   12.6739   48.7003    5.6136 C   0  0  0  0  0  0  0  0  0  0  0  0
   12.7956   47.4769    4.9483 C   0  0  0  0  0  0  0  0  0  0  0  0
   14.1930   40.5684   10.9679 N   0  0  0  0  0  0  0  0  0  0  0  0
   15.9902   42.5001    7.9863 N   0  0  0  0  0  0  0  0  0  0  0  0
   15.4853   43.1667    6.9502 N   0  0  0  0  0  0  0  0  0  0  0  0
   13.4719   43.3090    5.5439 N   0  0  0  0  0  0  0  0  0  0  0  0
   15.5210   40.5408    9.8460 S   0  0  0  0  0  0  0  0  0  0  0  0
   13.7018   41.5131    7.6121 S   0  0  0  0  0  0  0  0  0  0  0  0
   15.7623   39.1381    9.3626 O   0  0  0  0  0  0  0  0  0  0  0  0
   16.7613   41.0388   10.5335 O   0  0  0  0  0  0  0  0  0  0  0  0
   15.0525   44.8751    4.8069 O   0  0  0  0  0  0  0  0  0  0  0  0
   11.7859   45.3731    4.2045 O   0  0  0  0  0  0  0  0  0  0  0  0
  1 18  1  0
  3  4  2  0
  5  6  2  0
  7  2  2  0
  8 23  1  0
  9 21  1  0
  9 23  1  0
 11 10  1  0
 11 27  1  0
 12 27  1  0
 13 14  2  0
 15 16  2  0
 17 12  2  0
 18  2  1  0
 19 20  1  0
 21 10  1  0
 22 18  1  0
 22  8  1  0
  2  3  1  0
  4  5  1  0
  6  7  1  0
  8 19  2  0
  9 20  2  0
 10 26  2  0
 12 13  1  0
 14 15  1  0
 16 17  1  0
 22 24  2  0
 22 25  2  0
M  END
>  <rmsd>  (1) 
0.192121625

$$$$
