MolPort-007-723-448 6818299 ChemDiv-E157-5478 MCULE-4631826537 PubChem-22518010 ZINC000006818299 ZINC06818299
     RDKit          3D

 24 25  0  0  0  0  0  0  0  0999 V2000
   12.3895   44.1777    1.2267 C   0  0  0  0  0  0  0  0  0  0  0  0
   12.7277   43.6609    2.6120 C   0  0  0  0  0  0  0  0  0  0  0  0
   13.0257   44.8159    3.5597 C   0  0  0  0  0  0  0  0  0  0  0  0
   11.7423   45.3917    4.1445 C   0  0  0  0  0  0  0  0  0  0  0  0
   11.1249   46.3996    3.1942 C   0  0  0  0  0  0  0  0  0  0  0  0
   13.9150   44.3457    4.6624 C   0  0  0  0  0  0  0  0  0  0  0  0
   14.2374   42.7822    6.6383 C   0  0  0  0  0  0  0  0  0  0  0  0
   15.1349   41.6301    8.5268 C   0  0  0  0  0  0  0  0  0  0  0  0
   13.5194   39.2691   11.2314 C   0  0  0  0  0  0  0  0  0  0  0  0
   13.5582   41.7635   11.5617 C   0  0  0  0  0  0  0  0  0  0  0  0
   12.4094   41.6898   12.3683 C   0  0  0  0  0  0  0  0  0  0  0  0
   11.8618   42.8437   12.9359 C   0  0  0  0  0  0  0  0  0  0  0  0
   12.4565   44.0860   12.7041 C   0  0  0  0  0  0  0  0  0  0  0  0
   13.5986   44.1743   11.9053 C   0  0  0  0  0  0  0  0  0  0  0  0
   14.1455   43.0200   11.3383 C   0  0  0  0  0  0  0  0  0  0  0  0
   15.0511   44.8722    4.7988 O   0  0  0  0  0  0  0  0  0  0  0  0
   16.6663   41.2214   10.6738 O   0  0  0  0  0  0  0  0  0  0  0  0
   15.8648   39.2562    9.4568 O   0  0  0  0  0  0  0  0  0  0  0  0
   13.4740   43.3092    5.5495 N   0  0  0  0  0  0  0  0  0  0  0  0
   15.4797   43.1991    6.9695 N   0  0  0  0  0  0  0  0  0  0  0  0
   15.9791   42.5566    8.0234 N   0  0  0  0  0  0  0  0  0  0  0  0
   14.1185   40.5716   10.9744 N   0  0  0  0  0  0  0  0  0  0  0  0
   13.6893   41.5670    7.6646 S   0  0  0  0  0  0  0  0  0  0  0  0
   15.5020   40.6384    9.9233 S   0  0  0  0  0  0  0  0  0  0  0  0
  1  2  1  0
  2  3  1  0
  3  4  1  0
  3  6  1  0
  4  5  1  0
  6 19  1  0
  7 23  1  0
  8 23  1  0
  9 22  1  0
 11 12  2  0
 13 14  2  0
 15 10  2  0
 19  7  1  0
 20 21  1  0
 22 10  1  0
 24  8  1  0
 24 22  1  0
  6 16  2  0
  7 20  2  0
  8 21  2  0
 10 11  1  0
 12 13  1  0
 14 15  1  0
 24 17  2  0
 24 18  2  0
M  END
>  <rmsd>  (1) 
0.199535534

$$$$
