MolPort-008-194-460 40745731 CSSS03437773488 MCULE-4252058049 PubChem-51998987 ZINC000040745731 ZINC40745731
     RDKit          3D

 22 23  0  0  0  0  0  0  0  0999 V2000
   11.4280   36.6638   10.4321 C   0  0  0  0  0  0  0  0  0  0  0  0
   12.5592   38.4187   11.1399 C   0  0  0  0  0  0  0  0  0  0  0  0
   13.8568   38.9503   11.7182 C   0  0  0  0  0  0  0  0  0  0  0  0
   13.7999   40.4653   11.8372 C   0  0  0  0  0  0  0  0  0  0  0  0
   14.9960   41.0646    9.6807 C   0  0  0  0  0  0  0  0  0  0  0  0
   14.9463   41.6741    8.3472 C   0  0  0  0  0  0  0  0  0  0  0  0
   16.4002   42.3893    5.1959 C   0  0  0  0  0  0  0  0  0  0  0  0
   14.3040   42.6828    6.5512 C   0  0  0  0  0  0  0  0  0  0  0  0
   13.9472   44.2932    4.6163 C   0  0  0  0  0  0  0  0  0  0  0  0
   13.1077   44.6373    3.4645 C   0  0  0  0  0  0  0  0  0  0  0  0
   13.4099   45.5805    2.5047 C   0  0  0  0  0  0  0  0  0  0  0  0
   12.3359   45.5529    1.6321 C   0  0  0  0  0  0  0  0  0  0  0  0
   11.4564   44.5997    2.1166 C   0  0  0  0  0  0  0  0  0  0  0  0
   13.8314   42.2844    7.7863 C   0  0  0  0  0  0  0  0  0  0  0  0
   12.6352   37.0318   11.0242 O   0  0  0  0  0  0  0  0  0  0  0  0
   16.0621   40.5247   10.0825 O   0  0  0  0  0  0  0  0  0  0  0  0
   15.0367   44.8990    4.8038 O   0  0  0  0  0  0  0  0  0  0  0  0
   11.9531   44.0760    3.2112 O   0  0  0  0  0  0  0  0  0  0  0  0
   13.8380   41.0893   10.5207 N   0  0  0  0  0  0  0  0  0  0  0  0
   15.9892   41.6841    7.4923 N   0  0  0  0  0  0  0  0  0  0  0  0
   15.5883   42.3030    6.3979 N   0  0  0  0  0  0  0  0  0  0  0  0
   13.4929   43.3078    5.5491 N   0  0  0  0  0  0  0  0  0  0  0  0
  1 15  1  0
  2 15  1  0
  2  3  1  0
  3  4  1  0
  4 19  1  0
  5  6  1  0
  7 21  1  0
  8 22  1  0
  9 10  1  0
 10 18  1  0
 11 12  1  0
 13 18  1  0
 14  6  1  0
 19  5  1  0
 21 20  1  0
 21  8  1  0
 22  9  1  0
  5 16  2  0
  6 20  2  0
  8 14  2  0
  9 17  2  0
 10 11  2  0
 12 13  2  0
M  END
>  <rmsd>  (1) 
0.218919396

$$$$
