MolPort-020-293-018 MCULE-9021263157 PubChem-110265485
     RDKit          3D

 30 33  0  0  0  0  0  0  0  0999 V2000
   16.7613   46.5455    4.0134 C   0  0  0  0  0  0  0  0  0  0  0  0
   15.4268   45.9034    3.8926 C   0  0  0  0  0  0  0  0  0  0  0  0
   14.5443   46.3112    2.8942 C   0  0  0  0  0  0  0  0  0  0  0  0
   13.3016   45.6855    2.8154 C   0  0  0  0  0  0  0  0  0  0  0  0
   13.8476   44.3186    4.6691 C   0  0  0  0  0  0  0  0  0  0  0  0
   14.2349   42.7269    6.6536 C   0  0  0  0  0  0  0  0  0  0  0  0
   15.5344   43.1701    6.9348 C   0  0  0  0  0  0  0  0  0  0  0  0
   16.2468   42.5960    7.9877 C   0  0  0  0  0  0  0  0  0  0  0  0
   15.6619   41.5868    8.7516 C   0  0  0  0  0  0  0  0  0  0  0  0
   14.3605   41.1637    8.4484 C   0  0  0  0  0  0  0  0  0  0  0  0
   13.6956   40.0821    9.2386 C   0  0  2  0  0  0  0  0  0  0  0  0
   13.5473   40.4870   10.7051 C   0  0  0  0  0  0  0  0  0  0  0  0
   12.9495   39.3393   11.5116 C   0  0  0  0  0  0  0  0  0  0  0  0
   13.7850   38.0797   11.3007 C   0  0  0  0  0  0  0  0  0  0  0  0
   14.4734   38.7698    9.1295 C   0  0  0  0  0  0  0  0  0  0  0  0
   16.3757   36.5008   10.2850 C   0  0  0  0  0  0  0  0  0  0  0  0
   17.3610   36.9668    9.4068 C   0  0  0  0  0  0  0  0  0  0  0  0
   18.6679   37.1669    9.8610 C   0  0  0  0  0  0  0  0  0  0  0  0
   18.9923   36.9039   11.1952 C   0  0  0  0  0  0  0  0  0  0  0  0
   18.0098   36.4394   12.0751 C   0  0  0  0  0  0  0  0  0  0  0  0
   16.7030   36.2385   11.6206 C   0  0  0  0  0  0  0  0  0  0  0  0
   12.3311   46.0903    1.7653 C   0  0  0  0  0  0  0  0  0  0  0  0
   12.9772   44.7058    3.6991 N   0  0  0  0  0  0  0  0  0  0  0  0
   15.0653   44.9209    4.7582 N   0  0  0  0  0  0  0  0  0  0  0  0
   13.4607   43.2808    5.5803 N   0  0  0  0  0  0  0  0  0  0  0  0
   13.6880   41.7403    7.4154 N   0  0  0  0  0  0  0  0  0  0  0  0
   13.7935   37.7152    9.8829 N   0  0  0  0  0  0  0  0  0  0  0  0
   14.7279   36.2618    9.7158 S   0  0  0  0  0  0  0  0  0  0  0  0
   14.0836   35.1582   10.5084 O   0  0  0  0  0  0  0  0  0  0  0  0
   14.7586   35.8503    8.2697 O   0  0  0  0  0  0  0  0  0  0  0  0
  1  2  1  0
  2 24  2  0
  3  4  2  0
  5 23  2  0
  5 25  1  0
  6 26  2  0
  7  8  2  0
  9 10  2  0
 11 10  1  6
 11 12  1  0
 12 13  1  0
 13 14  1  0
 14 27  1  0
 15 27  1  0
 15 11  1  0
 17 18  2  0
 19 20  2  0
 21 16  2  0
 22  4  1  0
 25  6  1  0
 28 27  1  0
 28 16  1  0
  2  3  1  0
  4 23  1  0
  5 24  1  0
  6  7  1  0
  8  9  1  0
 10 26  1  0
 16 17  1  0
 18 19  1  0
 20 21  1  0
 28 29  2  0
 28 30  2  0
M  END
>  <rmsd>  (1) 
0.244862974

$$$$
