Molport-020-292-498 MCULE-7940027693 PubChem-110264966
     RDKit          3D

 29 32  0  0  0  0  0  0  0  0999 V2000
   17.5756   43.0336    8.3408 C   0  0  0  0  0  0  0  0  0  0  0  0
   16.2027   42.5730    8.0079 C   0  0  0  0  0  0  0  0  0  0  0  0
   15.5083   43.1594    6.9484 C   0  0  0  0  0  0  0  0  0  0  0  0
   14.2144   42.7197    6.6405 C   0  0  0  0  0  0  0  0  0  0  0  0
   13.6438   41.6986    7.4042 C   0  0  0  0  0  0  0  0  0  0  0  0
   14.3669   41.1338    8.4581 C   0  0  0  0  0  0  0  0  0  0  0  0
   13.7517   40.0422    9.2692 C   0  0  2  0  0  0  0  0  0  0  0  0
   13.6214   40.4647   10.7341 C   0  0  0  0  0  0  0  0  0  0  0  0
   12.9960   39.3417   11.5583 C   0  0  0  0  0  0  0  0  0  0  0  0
   13.8444   38.0799   11.4399 C   0  0  0  0  0  0  0  0  0  0  0  0
   14.5700   38.7562    9.1482 C   0  0  0  0  0  0  0  0  0  0  0  0
   13.7879   36.4026    9.5407 C   0  0  0  0  0  0  0  0  0  0  0  0
   12.8683   35.4612   10.2216 C   0  0  0  0  0  0  0  0  0  0  0  0
   12.8521   34.0665   10.0972 C   0  0  0  0  0  0  0  0  0  0  0  0
   11.0793   34.3106   11.4524 C   0  0  0  0  0  0  0  0  0  0  0  0
    9.9175   33.9024   12.2841 C   0  0  0  0  0  0  0  0  0  0  0  0
   13.8390   33.2887    9.2965 C   0  0  0  0  0  0  0  0  0  0  0  0
   13.8506   44.3297    4.6679 C   0  0  0  0  0  0  0  0  0  0  0  0
   13.3232   45.7246    2.8302 C   0  0  0  0  0  0  0  0  0  0  0  0
   14.5711   46.3380    2.9207 C   0  0  0  0  0  0  0  0  0  0  0  0
   15.4461   45.9104    3.9173 C   0  0  0  0  0  0  0  0  0  0  0  0
   15.6238   41.5809    8.7351 N   0  0  0  0  0  0  0  0  0  0  0  0
   14.0093   37.7363   10.0300 N   0  0  0  0  0  0  0  0  0  0  0  0
   11.8629   33.4370   10.7868 N   0  0  0  0  0  0  0  0  0  0  0  0
   13.4518   43.2834    5.5640 N   0  0  0  0  0  0  0  0  0  0  0  0
   12.9868   44.7369    3.7004 N   0  0  0  0  0  0  0  0  0  0  0  0
   15.0733   44.9197    4.7687 N   0  0  0  0  0  0  0  0  0  0  0  0
   14.3780   36.0281    8.4912 O   0  0  0  0  0  0  0  0  0  0  0  0
   11.5753   35.8958   11.2148 S   0  0  0  0  0  0  0  0  0  0  0  0
  1  2  1  0
  2 22  2  0
  3  4  2  0
  4 25  1  0
  5  6  2  0
  7  6  1  6
  7  8  1  0
  8  9  1  0
  9 10  1  0
 10 23  1  0
 11 23  1  0
 11  7  1  0
 12 13  1  0
 13 29  1  0
 14 24  1  0
 15 29  1  0
 16 15  1  0
 17 14  1  0
 18 27  2  0
 19 26  2  0
 20 21  2  0
 23 12  1  0
 25 18  1  0
  2  3  1  0
  4  5  1  0
  6 22  1  0
 12 28  2  0
 13 14  2  0
 15 24  2  0
 18 26  1  0
 19 20  1  0
 21 27  1  0
M  END
>  <rmsd>  (1) 
0.242985576

$$$$
