MolPort-020-292-513 MCULE-4185244807 PubChem-110264981
     RDKit          3D

 31 34  0  0  0  0  0  0  0  0999 V2000
   16.7866   46.5445    4.0669 C   0  0  0  0  0  0  0  0  0  0  0  0
   15.4474   45.9157    3.9273 C   0  0  0  0  0  0  0  0  0  0  0  0
   14.5753   46.3468    2.9301 C   0  0  0  0  0  0  0  0  0  0  0  0
   13.3279   45.7327    2.8331 C   0  0  0  0  0  0  0  0  0  0  0  0
   13.8510   44.3303    4.6663 C   0  0  0  0  0  0  0  0  0  0  0  0
   14.2188   42.7011    6.6215 C   0  0  0  0  0  0  0  0  0  0  0  0
   13.6324   41.7078    7.4092 C   0  0  0  0  0  0  0  0  0  0  0  0
   14.3631   41.1245    8.4479 C   0  0  0  0  0  0  0  0  0  0  0  0
   16.2379   42.4904    7.9352 C   0  0  0  0  0  0  0  0  0  0  0  0
   15.5366   43.0939    6.8897 C   0  0  0  0  0  0  0  0  0  0  0  0
   17.6358   42.9024    8.2270 C   0  0  0  0  0  0  0  0  0  0  0  0
   13.7309   40.0608    9.2827 C   0  0  2  0  0  0  0  0  0  0  0  0
   13.6610   40.4936   10.7490 C   0  0  0  0  0  0  0  0  0  0  0  0
   13.0107   39.4014   11.5956 C   0  0  0  0  0  0  0  0  0  0  0  0
   13.7967   38.1011   11.4617 C   0  0  0  0  0  0  0  0  0  0  0  0
   14.4966   38.7448    9.1460 C   0  0  0  0  0  0  0  0  0  0  0  0
   13.4693   36.4848    9.5495 C   0  0  0  0  0  0  0  0  0  0  0  0
   12.9112   35.4490   10.4721 C   0  0  0  0  0  0  0  0  0  0  0  0
   13.9956   34.5499   10.9576 C   0  0  0  0  0  0  0  0  0  0  0  0
   14.3093   33.3515   10.3163 C   0  0  0  0  0  0  0  0  0  0  0  0
   15.6990   33.9367   12.2742 C   0  0  0  0  0  0  0  0  0  0  0  0
   16.6848   34.0200   13.3832 C   0  0  0  0  0  0  0  0  0  0  0  0
   12.3680   46.1624    1.7833 C   0  0  0  0  0  0  0  0  0  0  0  0
   12.9896   44.7411    3.6982 N   0  0  0  0  0  0  0  0  0  0  0  0
   15.0725   44.9221    4.7742 N   0  0  0  0  0  0  0  0  0  0  0  0
   13.4492   43.2831    5.5597 N   0  0  0  0  0  0  0  0  0  0  0  0
   15.6432   41.5256    8.6859 N   0  0  0  0  0  0  0  0  0  0  0  0
   13.9221   37.7520   10.0490 N   0  0  0  0  0  0  0  0  0  0  0  0
   14.7651   34.8762   12.0318 N   0  0  0  0  0  0  0  0  0  0  0  0
   13.5627   36.2188    8.3210 O   0  0  0  0  0  0  0  0  0  0  0  0
   15.6042   32.6863   11.1646 S   0  0  0  0  0  0  0  0  0  0  0  0
  1  2  1  0
  2 25  2  0
  3  4  2  0
  5 24  2  0
  5 26  1  0
  7  8  2  0
  9 27  2  0
 10  6  2  0
 11  9  1  0
 12  8  1  6
 12 13  1  0
 13 14  1  0
 14 15  1  0
 15 28  1  0
 16 28  1  0
 16 12  1  0
 18 17  1  0
 18 19  1  0
 19 29  1  0
 20 31  1  0
 21 31  1  0
 22 21  1  0
 23  4  1  0
 26  6  1  0
 28 17  1  0
  2  3  1  0
  4 24  1  0
  5 25  1  0
  6  7  1  0
  8 27  1  0
  9 10  1  0
 17 30  2  0
 19 20  2  0
 21 29  2  0
M  END
>  <rmsd>  (1) 
0.242304146

$$$$
