MolPort-007-714-557 ChemDiv-E002-1895 MCULE-1375136554 PubChem-22510858 ZINC000006780260
     RDKit          3D

 25 27  0  0  0  0  0  0  0  0999 V2000
   15.1359   41.5953    8.5128 C   0  0  0  0  0  0  0  0  0  0  0  0
   16.8963   40.5839    9.9546 C   0  0  0  0  0  0  0  0  0  0  0  0
   17.2736   41.5838   11.0319 C   0  0  0  0  0  0  0  0  0  0  0  0
   14.4967   40.0289   10.3930 C   0  0  0  0  0  0  0  0  0  0  0  0
   13.2293   40.5886   10.6230 C   0  0  0  0  0  0  0  0  0  0  0  0
   12.2869   39.9175   11.4072 C   0  0  0  0  0  0  0  0  0  0  0  0
   12.6048   38.6826   11.9773 C   0  0  0  0  0  0  0  0  0  0  0  0
   13.8661   38.1205   11.7661 C   0  0  0  0  0  0  0  0  0  0  0  0
   14.8081   38.7919   10.9816 C   0  0  0  0  0  0  0  0  0  0  0  0
   14.2351   42.7688    6.6262 C   0  0  0  0  0  0  0  0  0  0  0  0
   13.9196   44.3369    4.6556 C   0  0  0  0  0  0  0  0  0  0  0  0
   13.4316   45.6365    2.5275 C   0  0  0  0  0  0  0  0  0  0  0  0
   12.5927   46.7072    2.1981 C   0  0  0  0  0  0  0  0  0  0  0  0
   12.9126   47.5618    1.1404 C   0  0  0  0  0  0  0  0  0  0  0  0
   14.0700   47.3423    0.3916 C   0  0  0  0  0  0  0  0  0  0  0  0
   14.9002   46.2601    0.6916 C   0  0  0  0  0  0  0  0  0  0  0  0
   14.5884   45.3999    1.7497 C   0  0  0  0  0  0  0  0  0  0  0  0
   15.4594   44.2096    1.9656 C   0  0  0  0  0  0  0  0  0  0  0  0
   15.4849   40.7283    9.6090 N   0  0  0  0  0  0  0  0  0  0  0  0
   15.9958   42.4949    7.9802 N   0  0  0  0  0  0  0  0  0  0  0  0
   15.4934   43.1516    6.9361 N   0  0  0  0  0  0  0  0  0  0  0  0
   13.4707   43.3095    5.5444 N   0  0  0  0  0  0  0  0  0  0  0  0
   13.0467   44.7836    3.6138 N   0  0  0  0  0  0  0  0  0  0  0  0
   15.0517   44.8710    4.8098 O   0  0  0  0  0  0  0  0  0  0  0  0
   13.6776   41.5627    7.6564 S   0  0  0  0  0  0  0  0  0  0  0  0
  1 19  1  0
  1 25  1  0
  2 19  1  0
  2  3  1  0
  5  6  2  0
  7  8  2  0
  9  4  2  0
 10 22  1  0
 10 25  1  0
 11 23  1  0
 13 14  2  0
 15 16  2  0
 17 12  2  0
 18 17  1  0
 19  4  1  0
 20 21  1  0
 22 11  1  0
 23 12  1  0
  1 20  2  0
  4  5  1  0
  6  7  1  0
  8  9  1  0
 10 21  2  0
 11 24  2  0
 12 13  1  0
 14 15  1  0
 16 17  1  0
M  END
>  <rmsd>  (1) 
0.208662465

$$$$
