MolPort-010-688-226 35511174 ChemDiv-G952-0704 MCULE-3667292016 PubChem-51695112 ZINC000035511174 ZINC35511174
     RDKit          3D

 21 23  0  0  0  0  0  0  0  0999 V2000
   12.6765   38.6820   11.5324 C   0  0  0  0  0  0  0  0  0  0  0  0
   13.7004   39.7067   11.0926 C   0  0  0  0  0  0  0  0  0  0  0  0
   14.0724   39.4590    9.6444 C   0  0  0  0  0  0  0  0  0  0  0  0
   15.0785   40.4629    9.1968 C   0  0  0  0  0  0  0  0  0  0  0  0
   16.0201   42.0201    8.1491 C   0  0  0  0  0  0  0  0  0  0  0  0
   14.3598   42.7203    6.6078 C   0  0  0  0  0  0  0  0  0  0  0  0
   13.8703   44.3728    4.7186 C   0  0  0  0  0  0  0  0  0  0  0  0
   12.8753   44.8463    3.7199 C   0  0  0  0  0  0  0  0  0  0  0  0
   12.9768   44.0104    2.4563 C   0  0  0  0  0  0  0  0  0  0  0  0
   11.9720   44.4889    1.4239 C   0  0  0  0  0  0  0  0  0  0  0  0
   11.8578   43.4728    0.3101 C   0  0  0  0  0  0  0  0  0  0  0  0
   11.5937   44.2815   -0.9372 C   0  0  0  0  0  0  0  0  0  0  0  0
   12.3246   45.5896   -0.7274 C   0  0  0  0  0  0  0  0  0  0  0  0
   12.4364   45.7828    0.7742 C   0  0  0  0  0  0  0  0  0  0  0  0
   16.3373   40.5974    9.6958 N   0  0  0  0  0  0  0  0  0  0  0  0
   16.9402   41.5911    9.0297 N   0  0  0  0  0  0  0  0  0  0  0  0
   13.5207   43.3022    5.6031 N   0  0  0  0  0  0  0  0  0  0  0  0
   13.9260   41.6963    7.3966 N   0  0  0  0  0  0  0  0  0  0  0  0
   14.8981   41.3598    8.2280 N   0  0  0  0  0  0  0  0  0  0  0  0
   15.9864   43.2015    6.9634 S   0  0  0  0  0  0  0  0  0  0  0  0
   15.0124   44.9020    4.7506 O   0  0  0  0  0  0  0  0  0  0  0  0
  1  2  1  0
  2  3  1  0
  3  4  1  0
  5 20  1  0
  6 20  1  0
  6 17  1  0
  8  7  1  0
  8  9  1  0
  9 10  1  0
 10 11  1  0
 11 12  1  0
 12 13  1  0
 13 14  1  0
 14 10  1  0
 15 16  1  0
 17  7  1  0
 19 18  1  0
 19  4  1  0
 19  5  1  0
  4 15  2  0
  5 16  2  0
  6 18  2  0
  7 21  2  0
M  END
>  <rmsd>  (1) 
0.214597672

$$$$
