MolPort-006-579-749 ChemDiv-V021-4514 MCULE-1845203336 PubChem-46040713 ZINC000037544475 ZINC37544475
     RDKit          3D

 30 33  0  0  0  0  0  0  0  0999 V2000
   11.0959   34.8434    5.2700 F   0  0  0  0  0  0  0  0  0  0  0  0
   13.2461   35.3345    5.7308 F   0  0  0  0  0  0  0  0  0  0  0  0
   12.4952   33.2269    5.9716 F   0  0  0  0  0  0  0  0  0  0  0  0
   12.1610   34.5639    6.1067 C   0  0  0  0  0  0  0  0  0  0  0  0
   11.7839   34.8859    7.5237 C   0  0  0  0  0  0  0  0  0  0  0  0
   11.7976   33.8968    8.5186 C   0  0  0  0  0  0  0  0  0  0  0  0
   11.4476   34.2138    9.8342 C   0  0  0  0  0  0  0  0  0  0  0  0
   11.0809   35.5212   10.1640 C   0  0  0  0  0  0  0  0  0  0  0  0
   11.0589   36.5122    9.1776 C   0  0  0  0  0  0  0  0  0  0  0  0
   10.6925   37.9138    9.5351 C   0  0  0  0  0  0  0  0  0  0  0  0
   12.3851   38.5527   11.2697 C   0  0  0  0  0  0  0  0  0  0  0  0
   13.3198   39.7031   11.6274 C   0  0  0  0  0  0  0  0  0  0  0  0
   14.4170   39.7883   10.5787 C   0  0  0  0  0  0  0  0  0  0  0  0
   12.6434   39.3653    8.8926 C   0  0  0  0  0  0  0  0  0  0  0  0
   14.4295   41.1127    8.4464 C   0  0  0  0  0  0  0  0  0  0  0  0
   15.7470   41.5368    8.6862 C   0  0  0  0  0  0  0  0  0  0  0  0
   16.3275   42.5367    7.9028 C   0  0  0  0  0  0  0  0  0  0  0  0
   15.5952   43.1282    6.8720 C   0  0  0  0  0  0  0  0  0  0  0  0
   14.2766   42.7257    6.6194 C   0  0  0  0  0  0  0  0  0  0  0  0
   13.8983   44.3496    4.6702 C   0  0  0  0  0  0  0  0  0  0  0  0
   12.9446   44.8328    3.6264 C   0  0  0  0  0  0  0  0  0  0  0  0
   12.5110   43.6756    2.7448 C   0  0  0  0  0  0  0  0  0  0  0  0
   13.5519   44.6518    2.2467 C   0  0  0  0  0  0  0  0  0  0  0  0
   13.7045   41.7236    7.4094 C   0  0  0  0  0  0  0  0  0  0  0  0
   11.4142   36.1948    7.8625 C   0  0  0  0  0  0  0  0  0  0  0  0
   11.8809   38.6756    9.9007 N   0  0  0  0  0  0  0  0  0  0  0  0
   13.8325   40.0887    9.2723 N   0  0  0  0  0  0  0  0  0  0  0  0
   13.4919   43.3085    5.5703 N   0  0  0  0  0  0  0  0  0  0  0  0
   12.2656   39.3381    7.6891 O   0  0  0  0  0  0  0  0  0  0  0  0
   15.0309   44.8930    4.7750 O   0  0  0  0  0  0  0  0  0  0  0  0
  4  1  1  0
  4  2  1  0
  4  3  1  0
  4  5  1  0
  6  7  2  0
  8  9  2  0
 10  9  1  0
 10 26  1  0
 11 26  1  0
 11 12  1  0
 12 13  1  0
 13 27  1  0
 14 26  1  0
 16 17  2  0
 18 19  2  0
 19 28  1  0
 21 20  1  0
 21 22  1  0
 22 23  1  0
 23 21  1  0
 24 15  2  0
 25  5  2  0
 27 14  1  0
 27 15  1  0
 28 20  1  0
  5  6  1  0
  7  8  1  0
  9 25  1  0
 14 29  2  0
 15 16  1  0
 17 18  1  0
 19 24  1  0
 20 30  2  0
M  END
>  <rmsd>  (1) 
0.247281566

$$$$
