MolPort-000-055-736 1379119 CHEMBL1402429 PubChem-1468316 ZINC000001379119 ZINC01379119
     RDKit          3D

 25 27  0  0  0  0  0  0  0  0999 V2000
   17.4101   42.5812    8.3862 C   0  0  0  0  0  0  0  0  0  0  0  0
   16.0307   42.3375    7.8785 C   0  0  0  0  0  0  0  0  0  0  0  0
   15.1632   41.3684    8.3986 C   0  0  0  0  0  0  0  0  0  0  0  0
   14.2583   42.7124    6.5561 C   0  0  0  0  0  0  0  0  0  0  0  0
   13.9004   44.3900    4.6852 C   0  0  0  0  0  0  0  0  0  0  0  0
   12.9782   44.9053    3.6689 C   0  0  0  0  0  0  0  0  0  0  0  0
   13.3141   45.9029    2.8539 C   0  0  0  0  0  0  0  0  0  0  0  0
   12.4034   46.4325    1.8298 C   0  0  0  0  0  0  0  0  0  0  0  0
   12.8417   47.4836    1.0168 C   0  0  0  0  0  0  0  0  0  0  0  0
   12.0011   48.0117    0.0321 C   0  0  0  0  0  0  0  0  0  0  0  0
   10.7163   47.4901   -0.1442 C   0  0  0  0  0  0  0  0  0  0  0  0
   10.2714   46.4401    0.6641 C   0  0  0  0  0  0  0  0  0  0  0  0
   11.1117   45.9119    1.6486 C   0  0  0  0  0  0  0  0  0  0  0  0
   15.4705   40.3815    9.4605 C   0  0  0  0  0  0  0  0  0  0  0  0
   14.7260   38.4646   10.8863 C   0  0  0  0  0  0  0  0  0  0  0  0
   14.3713   38.5461   12.3728 C   0  0  0  0  0  0  0  0  0  0  0  0
   13.0205   39.2281   12.6436 C   0  0  0  0  0  0  0  0  0  0  0  0
   12.2497   39.5677   11.3689 C   0  0  0  0  0  0  0  0  0  0  0  0
   13.1337   40.3816   10.4267 C   0  0  0  0  0  0  0  0  0  0  0  0
   13.7222   41.4514    7.5231 S   0  0  0  0  0  0  0  0  0  0  0  0
   13.4695   43.3152    5.5258 N   0  0  0  0  0  0  0  0  0  0  0  0
   15.5202   43.0832    6.8623 N   0  0  0  0  0  0  0  0  0  0  0  0
   14.4352   39.7357   10.2217 N   0  0  0  0  0  0  0  0  0  0  0  0
   15.0525   44.8878    4.8134 O   0  0  0  0  0  0  0  0  0  0  0  0
   16.6753   40.0886    9.6904 O   0  0  0  0  0  0  0  0  0  0  0  0
  1  2  1  0
  2 22  1  0
  3 20  1  0
  3 14  1  0
  4 20  1  0
  4 21  1  0
  5  6  1  0
  7  8  1  0
  9 10  2  0
 11 12  2  0
 13  8  2  0
 14 23  1  0
 15 23  1  0
 15 16  1  0
 16 17  1  0
 17 18  1  0
 18 19  1  0
 19 23  1  0
 21  5  1  0
  2  3  2  0
  4 22  2  0
  5 24  2  0
  6  7  2  0
  8  9  1  0
 10 11  1  0
 12 13  1  0
 14 25  2  0
M  END
>  <rmsd>  (1) 
0.224904731

$$$$
