MolPort-051-666-335 MCULE-6430684612 MCULE-9826297176
     RDKit          3D

 19 21  0  0  0  0  0  0  0  0999 V2000
   13.8669   44.3127    4.6993 C   0  0  0  0  0  0  0  0  0  0  0  0
   14.0811   46.0090    2.9765 C   0  0  0  0  0  0  0  0  0  0  0  0
   15.1984   45.8784    3.7903 C   0  0  0  0  0  0  0  0  0  0  0  0
   13.9469   46.9678    1.8492 C   0  0  0  0  0  0  0  0  0  0  0  0
   14.2392   42.7258    6.6551 C   0  0  0  0  0  0  0  0  0  0  0  0
   16.2395   42.6683    7.9197 C   0  0  0  0  0  0  0  0  0  0  0  0
   15.7192   41.6515    8.7171 C   0  0  0  0  0  0  0  0  0  0  0  0
   14.4274   41.1879    8.4468 C   0  0  0  0  0  0  0  0  0  0  0  0
   13.8115   40.0992    9.2656 C   0  0  2  0  0  0  0  0  0  0  0  0
   13.6338   40.5307   10.7224 C   0  0  0  0  0  0  0  0  0  0  0  0
   13.0433   39.3953   11.5631 C   0  0  0  0  0  0  0  0  0  0  0  0
   13.5517   38.0155   11.1259 C   0  0  0  0  0  0  0  0  0  0  0  0
   14.6046   38.7848    9.1329 C   0  0  0  0  0  0  0  0  0  0  0  0
   12.9017   44.9142    3.4628 S   0  0  0  0  0  0  0  0  0  0  0  0
   15.0705   44.9262    4.7528 N   0  0  0  0  0  0  0  0  0  0  0  0
   13.4539   43.2703    5.5889 N   0  0  0  0  0  0  0  0  0  0  0  0
   15.4953   43.1852    6.9082 N   0  0  0  0  0  0  0  0  0  0  0  0
   14.8288   38.1291   10.4252 N   0  0  0  0  0  0  0  0  0  0  0  0
   13.7177   41.7340    7.4244 N   0  0  0  0  0  0  0  0  0  0  0  0
  1 14  1  0
  1 16  1  0
  2 14  1  0
  3 15  1  0
  4  2  1  0
  5 19  2  0
  6 17  2  0
  7  8  2  0
  9  8  1  6
  9 10  1  0
 10 11  1  0
 11 12  1  0
 12 18  1  0
 13 18  1  0
 13  9  1  0
 16  5  1  0
  1 15  2  0
  2  3  2  0
  5 17  1  0
  6  7  1  0
  8 19  1  0
M  END
>  <rmsd>  (1) 
0.248858228

$$$$
