MolPort-020-292-996 MCULE-1986705594 PubChem-110265463
     RDKit          3D

 27 30  0  0  0  0  0  0  0  0999 V2000
   12.9001   39.3441   11.4595 C   0  0  0  0  0  0  0  0  0  0  0  0
   13.5710   40.4750   10.6972 C   0  0  0  0  0  0  0  0  0  0  0  0
   13.7294   40.0752    9.2360 C   0  0  2  0  0  0  0  0  0  0  0  0
   14.5189   38.7640    9.1271 C   0  0  0  0  0  0  0  0  0  0  0  0
   13.7164   38.0567   11.3048 C   0  0  0  0  0  0  0  0  0  0  0  0
   12.6222   37.2968    9.3105 C   0  0  0  0  0  0  0  0  0  0  0  0
   12.8335   36.2508    8.2281 C   0  0  0  0  0  0  0  0  0  0  0  0
   11.5360   35.8917    7.5888 C   0  0  0  0  0  0  0  0  0  0  0  0
   11.3182   36.2059    6.2432 C   0  0  0  0  0  0  0  0  0  0  0  0
   10.1102   35.8610    5.6293 C   0  0  0  0  0  0  0  0  0  0  0  0
    9.1194   35.1969    6.3591 C   0  0  0  0  0  0  0  0  0  0  0  0
    9.3370   34.8757    7.7025 C   0  0  0  0  0  0  0  0  0  0  0  0
   10.5447   35.2204    8.3167 C   0  0  0  0  0  0  0  0  0  0  0  0
   14.3853   41.1633    8.4473 C   0  0  0  0  0  0  0  0  0  0  0  0
   14.2450   42.7289    6.6556 C   0  0  0  0  0  0  0  0  0  0  0  0
   15.5400   43.1841    6.9381 C   0  0  0  0  0  0  0  0  0  0  0  0
   16.2574   42.6148    7.9902 C   0  0  0  0  0  0  0  0  0  0  0  0
   15.6821   41.5986    8.7520 C   0  0  0  0  0  0  0  0  0  0  0  0
   13.8417   44.3214    4.6747 C   0  0  0  0  0  0  0  0  0  0  0  0
   13.2758   45.6968    2.8335 C   0  0  0  0  0  0  0  0  0  0  0  0
   14.5203   46.3202    2.8998 C   0  0  0  0  0  0  0  0  0  0  0  0
   15.4136   45.9076    3.8863 C   0  0  0  0  0  0  0  0  0  0  0  0
   13.9049   37.6721    9.8985 N   0  0  0  0  0  0  0  0  0  0  0  0
   13.7075   41.7355    7.4154 N   0  0  0  0  0  0  0  0  0  0  0  0
   13.4643   43.2797    5.5853 N   0  0  0  0  0  0  0  0  0  0  0  0
   12.9602   44.7141    3.7170 N   0  0  0  0  0  0  0  0  0  0  0  0
   15.0613   44.9214    4.7516 N   0  0  0  0  0  0  0  0  0  0  0  0
  1  2  1  0
  2  3  1  0
  3  4  1  0
  3 14  1  6
  4 23  1  0
  5 23  1  0
  5  1  1  0
  6 23  1  0
  6  7  1  0
  7  8  1  0
  9 10  2  0
 11 12  2  0
 13  8  2  0
 15 24  2  0
 15 25  1  0
 16 17  2  0
 18 14  2  0
 19 27  2  0
 20 26  2  0
 21 22  2  0
 25 19  1  0
  8  9  1  0
 10 11  1  0
 12 13  1  0
 14 24  1  0
 15 16  1  0
 17 18  1  0
 19 26  1  0
 20 21  1  0
 22 27  1  0
M  END
>  <rmsd>  (1) 
0.248426974

$$$$
