MolPort-021-777-938 47305697 CSC047387094 CSSS00047387094 MCULE-1790405355 PubChem-56920870 ZINC000047305697
     RDKit          3D

 25 27  0  0  0  0  0  0  0  0999 V2000
   13.3788   39.2445   11.2481 C   0  0  0  0  0  0  0  0  0  0  0  0
   13.8146   40.0270    9.2320 C   0  0  0  0  0  0  0  0  0  0  0  0
   14.4245   41.1299    8.4385 C   0  0  0  0  0  0  0  0  0  0  0  0
   15.7188   41.5772    8.7263 C   0  0  0  0  0  0  0  0  0  0  0  0
   16.2871   42.6058    7.9705 C   0  0  0  0  0  0  0  0  0  0  0  0
   15.5627   43.1859    6.9255 C   0  0  0  0  0  0  0  0  0  0  0  0
   14.2654   42.7410    6.6282 C   0  0  0  0  0  0  0  0  0  0  0  0
   13.8945   44.3655    4.6774 C   0  0  0  0  0  0  0  0  0  0  0  0
   12.9565   44.8473    3.6202 C   0  0  0  0  0  0  0  0  0  0  0  0
   11.6771   45.4067    4.2508 C   0  0  0  0  0  0  0  0  0  0  0  0
   10.4615   45.0821    3.3891 C   0  0  0  0  0  0  0  0  0  0  0  0
    9.3470   43.3968    2.1813 C   0  0  0  0  0  0  0  0  0  0  0  0
    7.9457   43.1362    2.6524 C   0  0  0  0  0  0  0  0  0  0  0  0
    7.6083   43.1132    4.0156 C   0  0  0  0  0  0  0  0  0  0  0  0
    6.2906   42.8665    4.4120 C   0  0  0  0  0  0  0  0  0  0  0  0
    5.3029   42.6408    3.4498 C   0  0  0  0  0  0  0  0  0  0  0  0
    5.6327   42.6617    2.0917 C   0  0  0  0  0  0  0  0  0  0  0  0
    6.9508   42.9082    1.6955 C   0  0  0  0  0  0  0  0  0  0  0  0
   11.4988   42.8764    2.9919 C   0  0  0  0  0  0  0  0  0  0  0  0
   12.6864   43.7556    2.5787 C   0  0  0  0  0  0  0  0  0  0  0  0
   13.7039   41.7105    7.3900 C   0  0  0  0  0  0  0  0  0  0  0  0
   13.6571   40.4246   10.5604 O   0  0  0  0  0  0  0  0  0  0  0  0
   15.0338   44.8941    4.7704 O   0  0  0  0  0  0  0  0  0  0  0  0
   13.4914   43.3117    5.5648 N   0  0  0  0  0  0  0  0  0  0  0  0
   10.2647   43.6295    3.2884 N   0  0  0  0  0  0  0  0  0  0  0  0
  1 22  1  0
  2 22  1  0
  2  3  1  0
  4  5  2  0
  6  7  2  0
  7 24  1  0
  9  8  1  0
  9 10  1  0
 10 11  1  0
 11 25  1  0
 12 25  1  0
 12 13  1  0
 14 15  2  0
 16 17  2  0
 18 13  2  0
 19 25  1  0
 19 20  1  0
 20  9  1  0
 21  3  2  0
 24  8  1  0
  3  4  1  0
  5  6  1  0
  7 21  1  0
  8 23  2  0
 13 14  1  0
 15 16  1  0
 17 18  1  0
M  END
>  <rmsd>  (1) 
0.234093592

$$$$
