MolPort-008-338-731 36353994 CSSS00160717244 LN00877548 MCULE-5276027582 PubChem-45491328 ZINC000036353994 ZINC36353994
     RDKit          3D

 29 31  0  0  0  0  0  0  0  0999 V2000
   17.9551   41.1294    9.8298 C   0  0  0  0  0  0  0  0  0  0  0  0
   15.8066   41.5120    8.6550 C   0  0  0  0  0  0  0  0  0  0  0  0
   16.4223   42.3507    7.7106 C   0  0  0  0  0  0  0  0  0  0  0  0
   15.6753   42.9482    6.6954 C   0  0  0  0  0  0  0  0  0  0  0  0
   14.2973   42.7224    6.6078 C   0  0  0  0  0  0  0  0  0  0  0  0
   13.9099   44.3234    4.6461 C   0  0  0  0  0  0  0  0  0  0  0  0
   13.0121   44.7143    3.5538 C   0  0  0  0  0  0  0  0  0  0  0  0
   12.5621   46.1525    1.5312 C   0  0  0  0  0  0  0  0  0  0  0  0
   13.1337   47.3572    0.8701 C   0  0  0  0  0  0  0  0  0  0  0  0
   14.3275   47.2744    0.1471 C   0  0  0  0  0  0  0  0  0  0  0  0
   14.8456   48.4146   -0.4702 C   0  0  0  0  0  0  0  0  0  0  0  0
   14.1566   49.6248   -0.3571 C   0  0  0  0  0  0  0  0  0  0  0  0
   12.4738   48.5858    0.9584 C   0  0  0  0  0  0  0  0  0  0  0  0
   13.6823   41.8812    7.5384 C   0  0  0  0  0  0  0  0  0  0  0  0
   14.4177   41.2662    8.5642 C   0  0  0  0  0  0  0  0  0  0  0  0
   14.3599   39.1619    9.9597 C   0  0  0  0  0  0  0  0  0  0  0  0
   14.2083   38.9467   11.4758 C   0  0  0  0  0  0  0  0  0  0  0  0
   12.9793   39.5947   12.1371 C   0  0  0  0  0  0  0  0  0  0  0  0
   11.7384   39.5645   11.2573 C   0  0  0  0  0  0  0  0  0  0  0  0
   16.5530   40.9403    9.6925 O   0  0  0  0  0  0  0  0  0  0  0  0
   15.0256   44.8965    4.7700 O   0  0  0  0  0  0  0  0  0  0  0  0
   11.9191   44.1062    3.3927 O   0  0  0  0  0  0  0  0  0  0  0  0
   11.2233   40.1702    8.6802 O   0  0  0  0  0  0  0  0  0  0  0  0
   11.7627   42.0320   10.2051 O   0  0  0  0  0  0  0  0  0  0  0  0
   13.4977   43.3088    5.5732 N   0  0  0  0  0  0  0  0  0  0  0  0
   13.3777   45.7816    2.6773 N   0  0  0  0  0  0  0  0  0  0  0  0
   12.9947   49.6851    0.3486 N   0  0  0  0  0  0  0  0  0  0  0  0
   13.7445   40.4050    9.5029 N   0  0  0  0  0  0  0  0  0  0  0  0
   12.0582   40.6002    9.8529 S   0  0  0  0  0  0  0  0  0  0  0  0
  1 20  1  0
  2 20  1  0
  3  4  2  0
  5 25  1  0
  5 14  2  0
  6  7  1  0
  7 26  1  0
  8 26  1  0
  8  9  1  0
 10 11  2  0
 12 27  2  0
 13  9  2  0
 15 28  1  0
 15  2  2  0
 16 28  1  0
 16 17  1  0
 17 18  1  0
 18 19  1  0
 19 29  1  0
 25  6  1  0
 29 28  1  0
  2  3  1  0
  4  5  1  0
  6 21  2  0
  7 22  2  0
  9 10  1  0
 11 12  1  0
 13 27  1  0
 14 15  1  0
 29 23  2  0
 29 24  2  0
M  END
>  <rmsd>  (1) 
0.247010559

$$$$
