MolPort-007-713-434 ChemDiv-E002-0303 MCULE-4203030002 PubChem-22509878 ZINC000006768035
     RDKit          3D

 25 27  0  0  0  0  0  0  0  0999 V2000
   15.1319   41.6023    8.5173 C   0  0  0  0  0  0  0  0  0  0  0  0
   16.9003   40.5596    9.9257 C   0  0  0  0  0  0  0  0  0  0  0  0
   17.5119   39.5036    9.0232 C   0  0  0  0  0  0  0  0  0  0  0  0
   14.4984   40.0249   10.3906 C   0  0  0  0  0  0  0  0  0  0  0  0
   13.2208   40.5691   10.6022 C   0  0  0  0  0  0  0  0  0  0  0  0
   12.2786   39.8931   11.3823 C   0  0  0  0  0  0  0  0  0  0  0  0
   12.6064   38.6682   11.9677 C   0  0  0  0  0  0  0  0  0  0  0  0
   13.8772   38.1212   11.7762 C   0  0  0  0  0  0  0  0  0  0  0  0
   14.8189   38.7978   10.9957 C   0  0  0  0  0  0  0  0  0  0  0  0
   14.2327   42.7736    6.6289 C   0  0  0  0  0  0  0  0  0  0  0  0
   13.9122   44.3490    4.6635 C   0  0  0  0  0  0  0  0  0  0  0  0
   13.2992   45.8049    2.6429 C   0  0  0  0  0  0  0  0  0  0  0  0
   14.5089   46.5167    2.6193 C   0  0  0  0  0  0  0  0  0  0  0  0
   14.7293   47.5044    1.6550 C   0  0  0  0  0  0  0  0  0  0  0  0
   13.7419   47.7875    0.7077 C   0  0  0  0  0  0  0  0  0  0  0  0
   12.5353   47.0831    0.7250 C   0  0  0  0  0  0  0  0  0  0  0  0
   12.3161   46.0953    1.6901 C   0  0  0  0  0  0  0  0  0  0  0  0
   15.4845   40.7326    9.6104 N   0  0  0  0  0  0  0  0  0  0  0  0
   15.9811   42.5222    8.0032 N   0  0  0  0  0  0  0  0  0  0  0  0
   15.4794   43.1781    6.9582 N   0  0  0  0  0  0  0  0  0  0  0  0
   13.4707   43.3104    5.5433 N   0  0  0  0  0  0  0  0  0  0  0  0
   13.0361   44.7848    3.6162 N   0  0  0  0  0  0  0  0  0  0  0  0
   15.0512   44.8692    4.8097 O   0  0  0  0  0  0  0  0  0  0  0  0
   13.9545   48.7444   -0.2271 F   0  0  0  0  0  0  0  0  0  0  0  0
   13.6851   41.5492    7.6426 S   0  0  0  0  0  0  0  0  0  0  0  0
  1 18  1  0
  1 25  1  0
  2 18  1  0
  2  3  1  0
  5  6  2  0
  7  8  2  0
  9  4  2  0
 10 21  1  0
 10 25  1  0
 11 22  1  0
 13 14  2  0
 15 16  2  0
 15 24  1  0
 17 12  2  0
 18  4  1  0
 19 20  1  0
 21 11  1  0
 22 12  1  0
  1 19  2  0
  4  5  1  0
  6  7  1  0
  8  9  1  0
 10 20  2  0
 11 23  2  0
 12 13  1  0
 14 15  1  0
 16 17  1  0
M  END
>  <rmsd>  (1) 
0.209795982

$$$$
