MolPort-020-275-095 MCULE-7977272301 PubChem-110252779
     RDKit          3D

 26 29  0  0  0  0  0  0  0  0999 V2000
   17.5760   43.0374    8.3402 C   0  0  0  0  0  0  0  0  0  0  0  0
   16.2033   42.5760    8.0076 C   0  0  0  0  0  0  0  0  0  0  0  0
   15.5086   43.1615    6.9479 C   0  0  0  0  0  0  0  0  0  0  0  0
   14.2149   42.7210    6.6403 C   0  0  0  0  0  0  0  0  0  0  0  0
   13.6448   41.7000    7.4046 C   0  0  0  0  0  0  0  0  0  0  0  0
   14.3683   41.1363    8.4587 C   0  0  0  0  0  0  0  0  0  0  0  0
   13.7536   40.0443    9.2699 C   0  0  2  0  0  0  0  0  0  0  0  0
   13.6281   40.4643   10.7361 C   0  0  0  0  0  0  0  0  0  0  0  0
   12.9955   39.3435   11.5583 C   0  0  0  0  0  0  0  0  0  0  0  0
   13.8328   38.0737   11.4399 C   0  0  0  0  0  0  0  0  0  0  0  0
   14.5713   38.7586    9.1470 C   0  0  0  0  0  0  0  0  0  0  0  0
   13.6183   36.4575    9.5191 C   0  0  0  0  0  0  0  0  0  0  0  0
   13.4083   34.9602    7.6958 C   0  0  0  0  0  0  0  0  0  0  0  0
   12.8608   33.9936    8.5368 C   0  0  0  0  0  0  0  0  0  0  0  0
   12.7055   34.3029    9.8865 C   0  0  0  0  0  0  0  0  0  0  0  0
   13.8503   44.3296    4.6667 C   0  0  0  0  0  0  0  0  0  0  0  0
   13.3223   45.7232    2.8280 C   0  0  0  0  0  0  0  0  0  0  0  0
   14.5701   46.3370    2.9182 C   0  0  0  0  0  0  0  0  0  0  0  0
   15.4453   45.9105    3.9148 C   0  0  0  0  0  0  0  0  0  0  0  0
   15.6250   41.5840    8.7353 N   0  0  0  0  0  0  0  0  0  0  0  0
   14.0110   37.7392   10.0295 N   0  0  0  0  0  0  0  0  0  0  0  0
   13.7755   36.1680    8.1976 N   0  0  0  0  0  0  0  0  0  0  0  0
   13.0843   35.5217   10.3521 N   0  0  0  0  0  0  0  0  0  0  0  0
   13.4521   43.2837    5.5635 N   0  0  0  0  0  0  0  0  0  0  0  0
   12.9863   44.7360    3.6988 N   0  0  0  0  0  0  0  0  0  0  0  0
   15.0730   44.9201    4.7669 N   0  0  0  0  0  0  0  0  0  0  0  0
  1  2  1  0
  2 20  2  0
  3  4  2  0
  4 24  1  0
  5  6  2  0
  7  6  1  6
  7  8  1  0
  8  9  1  0
  9 10  1  0
 10 21  1  0
 11 21  1  0
 11  7  1  0
 12 23  2  0
 13 22  2  0
 14 15  2  0
 16 26  2  0
 17 25  2  0
 18 19  2  0
 21 12  1  0
 24 16  1  0
  2  3  1  0
  4  5  1  0
  6 20  1  0
 12 22  1  0
 13 14  1  0
 15 23  1  0
 16 25  1  0
 17 18  1  0
 19 26  1  0
M  END
>  <rmsd>  (1) 
0.242642969

$$$$
