MolPort-046-157-968 1061704 CSSS00132863731 ZINC000001061704
     RDKit          3D

 26 29  0  0  0  0  0  0  0  0999 V2000
   15.0376   44.8960    4.7807 O   0  0  0  0  0  0  0  0  0  0  0  0
   13.8840   44.3935    4.6948 C   0  0  0  0  0  0  0  0  0  0  0  0
   14.2619   42.7173    6.5991 C   0  0  0  0  0  0  0  0  0  0  0  0
   13.7359   41.6186    7.2851 C   0  0  0  0  0  0  0  0  0  0  0  0
   14.4623   41.0144    8.3147 C   0  0  0  0  0  0  0  0  0  0  0  0
   15.7222   41.5067    8.6819 C   0  0  0  0  0  0  0  0  0  0  0  0
   16.5218   40.8684    9.7518 C   0  0  0  0  0  0  0  0  0  0  0  0
   17.1826   39.6744   11.3717 C   0  0  0  0  0  0  0  0  0  0  0  0
   14.7168   39.6330   11.0130 C   0  0  0  0  0  0  0  0  0  0  0  0
   13.7489   40.6097   11.2905 C   0  0  0  0  0  0  0  0  0  0  0  0
   12.4418   40.2334   11.6142 C   0  0  0  0  0  0  0  0  0  0  0  0
   12.0975   38.8794   11.6699 C   0  0  0  0  0  0  0  0  0  0  0  0
   13.0611   37.9013   11.4060 C   0  0  0  0  0  0  0  0  0  0  0  0
   14.3682   38.2766   11.0813 C   0  0  0  0  0  0  0  0  0  0  0  0
   16.2534   42.6003    7.9841 C   0  0  0  0  0  0  0  0  0  0  0  0
   15.5286   43.2037    6.9532 C   0  0  0  0  0  0  0  0  0  0  0  0
   12.9408   44.9120    3.6971 C   0  0  0  0  0  0  0  0  0  0  0  0
   13.1962   45.9332    2.7947 C   0  0  0  0  0  0  0  0  0  0  0  0
   12.0978   46.2133    1.9678 C   0  0  0  0  0  0  0  0  0  0  0  0
   10.9759   45.4224    2.2096 C   0  0  0  0  0  0  0  0  0  0  0  0
   13.4852   43.3133    5.5514 N   0  0  0  0  0  0  0  0  0  0  0  0
   17.8575   41.0335    9.8576 N   0  0  0  0  0  0  0  0  0  0  0  0
   18.2697   40.2890   10.8730 N   0  0  0  0  0  0  0  0  0  0  0  0
   16.0645   40.0154   10.6990 N   0  0  0  0  0  0  0  0  0  0  0  0
   17.2328   38.6094   12.8115 S   0  0  0  0  0  0  0  0  0  0  0  0
   11.3686   44.3737    3.4648 S   0  0  0  0  0  0  0  0  0  0  0  0
  2 21  1  0
  2 17  1  0
  4  5  2  0
  6  7  1  0
  6 15  2  0
  8 25  1  0
  8 24  1  0
 10 11  2  0
 12 13  2  0
 14  9  2  0
 16  3  2  0
 17 26  1  0
 18 19  1  0
 20 26  1  0
 21  3  1  0
 22 23  1  0
 24  9  1  0
 24  7  1  0
  2  1  2  0
  3  4  1  0
  5  6  1  0
  7 22  2  0
  8 23  2  0
  9 10  1  0
 11 12  1  0
 13 14  1  0
 15 16  1  0
 17 18  2  0
 19 20  2  0
M  END
>  <rmsd>  (1) 
0.231457666

$$$$
