MolPort-002-715-877 2192313 CSSS00160400662 ChemDiv-8013-0437 MCULE-8505220362 PubChem-1826749 ZINC000002192313
     RDKit          3D

 28 29  0  0  0  0  0  0  0  0999 V2000
   14.2801   42.7194    6.5798 C   0  0  0  0  0  0  0  0  0  0  0  0
   13.9673   44.2681    4.5888 C   0  0  0  0  0  0  0  0  0  0  0  0
   13.1645   44.5723    3.3579 C   0  0  0  0  0  0  0  0  0  0  0  0
   13.0524   43.3502    2.4311 C   0  0  0  0  0  0  0  0  0  0  0  0
   11.8159   45.2289    3.6979 C   0  0  0  0  0  0  0  0  0  0  0  0
   15.0815   41.5893    8.6713 C   0  0  0  0  0  0  0  0  0  0  0  0
   16.0585   41.6712    7.6714 C   0  0  0  0  0  0  0  0  0  0  0  0
   17.4354   41.1065    7.8128 C   0  0  0  0  0  0  0  0  0  0  0  0
   15.6044   42.2884    6.4907 C   0  0  0  0  0  0  0  0  0  0  0  0
   16.3974   42.3594    5.2878 C   0  0  0  0  0  0  0  0  0  0  0  0
   15.2556   41.0335   10.0337 C   0  0  0  0  0  0  0  0  0  0  0  0
   12.9233   40.0686   10.1956 C   0  0  0  0  0  0  0  0  0  0  0  0
   12.8167   38.5713   10.4707 C   0  0  0  0  0  0  0  0  0  0  0  0
   12.8941   38.3111   11.9743 C   0  0  0  0  0  0  0  0  0  0  0  0
   14.1954   38.8708   12.5470 C   0  0  0  0  0  0  0  0  0  0  0  0
   14.2937   40.3659   12.2549 C   0  0  0  0  0  0  0  0  0  0  0  0
   13.4897   43.3149    5.5447 N   0  0  0  0  0  0  0  0  0  0  0  0
   17.0342   42.4141    4.3230 N   0  0  0  0  0  0  0  0  0  0  0  0
   14.1354   40.5923   10.8205 N   0  0  0  0  0  0  0  0  0  0  0  0
   15.0391   44.8976    4.7924 O   0  0  0  0  0  0  0  0  0  0  0  0
   16.4161   40.9657   10.5228 O   0  0  0  0  0  0  0  0  0  0  0  0
   14.3156   42.8560    2.1575 F   0  0  0  0  0  0  0  0  0  0  0  0
   12.2987   42.3516    3.0227 F   0  0  0  0  0  0  0  0  0  0  0  0
   12.4608   43.7141    1.2355 F   0  0  0  0  0  0  0  0  0  0  0  0
   10.9890   44.3392    4.3615 F   0  0  0  0  0  0  0  0  0  0  0  0
   11.1884   45.6504    2.5401 F   0  0  0  0  0  0  0  0  0  0  0  0
   12.0256   46.3333    4.5045 F   0  0  0  0  0  0  0  0  0  0  0  0
   13.6676   42.2962    8.0819 S   0  0  0  0  0  0  0  0  0  0  0  0
  1 17  1  0
  1 28  1  0
  3  2  1  0
  3  4  1  0
  3  5  1  0
  4 22  1  0
  4 23  1  0
  4 24  1  0
  5 25  1  0
  5 26  1  0
  5 27  1  0
  6 28  1  0
  6 11  1  0
  7  9  1  0
  8  7  1  0
  9 10  1  0
 11 19  1  0
 12 19  1  0
 12 13  1  0
 13 14  1  0
 14 15  1  0
 15 16  1  0
 16 19  1  0
 17  2  1  0
  2 20  2  0
  6  7  2  0
  9  1  2  0
 11 21  2  0
 10 18  3  0
M  END
>  <rmsd>  (1) 
0.207617864

$$$$
