MolPort-006-579-777 ChemDiv-V020-2125 MCULE-4092669362 PubChem-46040741 ZINC000037543905 ZINC37543905
     RDKit          3D

 33 36  0  0  0  0  0  0  0  0999 V2000
   12.8199   33.3362   11.1539 F   0  0  0  0  0  0  0  0  0  0  0  0
   13.5729   34.4769    6.5861 F   0  0  0  0  0  0  0  0  0  0  0  0
   12.6563   34.1908   10.1159 C   0  0  0  0  0  0  0  0  0  0  0  0
   11.9400   35.3782   10.2945 C   0  0  0  0  0  0  0  0  0  0  0  0
   11.7672   36.2601    9.2219 C   0  0  0  0  0  0  0  0  0  0  0  0
   11.0285   37.5409    9.4193 C   0  0  0  0  0  0  0  0  0  0  0  0
   12.2235   38.7300   11.2815 C   0  0  0  0  0  0  0  0  0  0  0  0
   13.7235   38.8477   11.4795 C   0  0  0  0  0  0  0  0  0  0  0  0
   14.2373   40.1004   10.7698 C   0  0  0  0  0  0  0  0  0  0  0  0
   12.6741   39.3829    8.9176 C   0  0  0  0  0  0  0  0  0  0  0  0
   14.3734   41.2174    8.5370 C   0  0  0  0  0  0  0  0  0  0  0  0
   15.6792   41.6642    8.7995 C   0  0  0  0  0  0  0  0  0  0  0  0
   16.2701   42.6461    8.0013 C   0  0  0  0  0  0  0  0  0  0  0  0
   15.5600   43.1970    6.9333 C   0  0  0  0  0  0  0  0  0  0  0  0
   14.2531   42.7717    6.6576 C   0  0  0  0  0  0  0  0  0  0  0  0
   13.9094   44.3352    4.6561 C   0  0  0  0  0  0  0  0  0  0  0  0
   12.9981   44.7440    3.5503 C   0  0  0  0  0  0  0  0  0  0  0  0
   13.8388   43.3962    1.6387 C   0  0  0  0  0  0  0  0  0  0  0  0
   15.0003   44.1746    1.5014 C   0  0  0  0  0  0  0  0  0  0  0  0
   15.9513   43.8559    0.5277 C   0  0  0  0  0  0  0  0  0  0  0  0
   15.7476   42.7595   -0.3148 C   0  0  0  0  0  0  0  0  0  0  0  0
   14.5930   41.9829   -0.1841 C   0  0  0  0  0  0  0  0  0  0  0  0
   13.6418   42.3016    0.7899 C   0  0  0  0  0  0  0  0  0  0  0  0
   13.6703   41.7878    7.4624 C   0  0  0  0  0  0  0  0  0  0  0  0
   12.3226   35.9574    7.9739 C   0  0  0  0  0  0  0  0  0  0  0  0
   13.0386   34.7699    7.7956 C   0  0  0  0  0  0  0  0  0  0  0  0
   13.2055   33.8866    8.8665 C   0  0  0  0  0  0  0  0  0  0  0  0
   11.9400   38.5889    9.8611 N   0  0  0  0  0  0  0  0  0  0  0  0
   13.7641   40.2146    9.3799 N   0  0  0  0  0  0  0  0  0  0  0  0
   13.4918   43.3124    5.5694 N   0  0  0  0  0  0  0  0  0  0  0  0
   12.3923   39.3150    7.6897 O   0  0  0  0  0  0  0  0  0  0  0  0
   15.0353   44.8887    4.7640 O   0  0  0  0  0  0  0  0  0  0  0  0
   12.8668   43.6895    2.6018 O   0  0  0  0  0  0  0  0  0  0  0  0
  3  1  1  0
  4  5  2  0
  6  5  1  0
  6 28  1  0
  7 28  1  0
  7  8  1  0
  8  9  1  0
  9 29  1  0
 10 28  1  0
 12 13  2  0
 14 15  2  0
 15 30  1  0
 17 16  1  0
 17 33  1  0
 18 33  1  0
 19 20  2  0
 21 22  2  0
 23 18  2  0
 24 11  2  0
 25 26  2  0
 26  2  1  0
 27  3  2  0
 29 10  1  0
 29 11  1  0
 30 16  1  0
  3  4  1  0
  5 25  1  0
 10 31  2  0
 11 12  1  0
 13 14  1  0
 15 24  1  0
 16 32  2  0
 18 19  1  0
 20 21  1  0
 22 23  1  0
 26 27  1  0
M  END
>  <rmsd>  (1) 
0.246317893

$$$$
