MolPort-035-706-987 CSSS03437789242 MCULE-7256095243 PubChem-91938312
     RDKit          3D

 30 32  0  0  0  0  0  0  0  0999 V2000
   13.3434   35.4789    7.9726 C   0  0  0  0  0  0  0  0  0  0  0  0
   14.6476   36.2275    7.7666 C   0  0  0  0  0  0  0  0  0  0  0  0
   14.5156   37.8256    9.6532 C   0  0  0  0  0  0  0  0  0  0  0  0
   14.3916   39.2511   10.1184 C   0  0  1  0  0  0  0  0  0  0  0  0
   13.5054   39.3191   11.3541 C   0  0  0  0  0  0  0  0  0  0  0  0
   14.3510   41.0521    8.3615 C   0  0  0  0  0  0  0  0  0  0  0  0
   13.6461   41.6725    7.3258 C   0  0  0  0  0  0  0  0  0  0  0  0
   14.2315   42.7085    6.5894 C   0  0  0  0  0  0  0  0  0  0  0  0
   13.8995   44.3848    4.6733 C   0  0  0  0  0  0  0  0  0  0  0  0
   12.9861   44.8914    3.6336 C   0  0  0  0  0  0  0  0  0  0  0  0
   11.7079   44.3366    3.4822 C   0  0  0  0  0  0  0  0  0  0  0  0
   10.8416   44.8164    2.4964 C   0  0  0  0  0  0  0  0  0  0  0  0
   11.2441   45.8589    1.6468 C   0  0  0  0  0  0  0  0  0  0  0  0
    9.1035   45.8379    0.3873 C   0  0  0  0  0  0  0  0  0  0  0  0
    9.2166   44.5601   -0.4228 C   0  0  0  0  0  0  0  0  0  0  0  0
    8.3022   46.8533   -0.3994 C   0  0  0  0  0  0  0  0  0  0  0  0
   12.5183   46.4139    1.7983 C   0  0  0  0  0  0  0  0  0  0  0  0
   13.3848   45.9339    2.7845 C   0  0  0  0  0  0  0  0  0  0  0  0
   15.5360   43.1215    6.9026 C   0  0  0  0  0  0  0  0  0  0  0  0
   16.2426   42.5055    7.9392 C   0  0  0  0  0  0  0  0  0  0  0  0
   15.6494   41.4714    8.6668 C   0  0  0  0  0  0  0  0  0  0  0  0
   15.7675   39.7788   10.4727 C   0  0  0  0  0  0  0  0  0  0  0  0
   14.5467   37.5496    8.2820 O   0  0  0  0  0  0  0  0  0  0  0  0
   14.6540   36.8924   10.4933 O   0  0  0  0  0  0  0  0  0  0  0  0
   13.7495   40.0181    9.0871 O   0  0  0  0  0  0  0  0  0  0  0  0
   15.0468   44.8930    4.7990 O   0  0  0  0  0  0  0  0  0  0  0  0
   10.3997   46.3638    0.6518 O   0  0  0  0  0  0  0  0  0  0  0  0
   16.4166   39.2620   11.4217 O   0  0  0  0  0  0  0  0  0  0  0  0
   13.4746   43.3168    5.5340 N   0  0  0  0  0  0  0  0  0  0  0  0
   16.3568   40.8465    9.7309 N   0  0  0  0  0  0  0  0  0  0  0  0
  1  2  1  0
  2 23  1  0
  3 23  1  0
  4  3  1  0
  4  5  1  1
  4 25  1  0
  4 22  1  0
  6 25  1  0
  7  8  2  0
  8 29  1  0
  9 10  1  0
 11 12  2  0
 13 27  1  0
 13 17  2  0
 14 27  1  0
 14 15  1  0
 14 16  1  0
 18 10  2  0
 19 20  2  0
 21 30  1  0
 21  6  2  0
 29  9  1  0
 30 22  1  0
  3 24  2  0
  6  7  1  0
  8 19  1  0
  9 26  2  0
 10 11  1  0
 12 13  1  0
 17 18  1  0
 20 21  1  0
 22 28  2  0
M  END
>  <rmsd>  (1) 
0.234230265

$$$$
