MolPort-047-592-677 211610011 MCULE-9524300244 PubChem-76850008 ZINC000211610011
     RDKit          3D

 26 28  0  0  0  0  0  0  0  0999 V2000
   13.6940   41.7008   10.2656 B   0  0  0  0  0  0  0  0  0  0  0  0
   14.2951   40.7472   11.1827 O   0  0  0  0  0  0  0  0  0  0  0  0
   12.2431   41.7154   10.3486 O   0  0  0  0  0  0  0  0  0  0  0  0
   16.2016   42.4357    5.1497 O   0  0  0  0  0  0  0  0  0  0  0  0
   15.0426   44.8908    4.7880 O   0  0  0  0  0  0  0  0  0  0  0  0
   13.3123   39.7469   11.2315 C   0  0  0  0  0  0  0  0  0  0  0  0
   11.9689   40.3792   10.6762 C   0  0  0  0  0  0  0  0  0  0  0  0
   11.4279   39.6751    9.4297 C   0  0  0  0  0  0  0  0  0  0  0  0
   10.8336   40.3791   11.6959 C   0  0  0  0  0  0  0  0  0  0  0  0
   13.8038   38.5433   10.4248 C   0  0  0  0  0  0  0  0  0  0  0  0
   13.2061   39.2787   12.6801 C   0  0  0  0  0  0  0  0  0  0  0  0
   14.3702   41.9337    8.8723 C   0  0  0  0  0  0  0  0  0  0  0  0
   13.6530   42.5160    7.8266 C   0  0  0  0  0  0  0  0  0  0  0  0
   14.2601   42.7354    6.5886 C   0  0  0  0  0  0  0  0  0  0  0  0
   15.5920   42.3139    6.4007 C   0  0  0  0  0  0  0  0  0  0  0  0
   15.6986   41.5639    8.6591 C   0  0  0  0  0  0  0  0  0  0  0  0
   17.5372   42.0149    4.9155 C   0  0  0  0  0  0  0  0  0  0  0  0
   13.9579   44.2796    4.5841 C   0  0  0  0  0  0  0  0  0  0  0  0
   13.1538   44.5894    3.3893 C   0  0  0  0  0  0  0  0  0  0  0  0
   13.5989   45.5426    2.4610 C   0  0  0  0  0  0  0  0  0  0  0  0
   12.8360   45.8344    1.3264 C   0  0  0  0  0  0  0  0  0  0  0  0
   11.6228   45.1752    1.1116 C   0  0  0  0  0  0  0  0  0  0  0  0
   11.1724   44.2239    2.0308 C   0  0  0  0  0  0  0  0  0  0  0  0
   11.9352   43.9320    3.1654 C   0  0  0  0  0  0  0  0  0  0  0  0
   16.2726   41.7548    7.4421 N   0  0  0  0  0  0  0  0  0  0  0  0
   13.4813   43.3209    5.5376 N   0  0  0  0  0  0  0  0  0  0  0  0
  1  2  1  0
  1 12  1  0
  1  3  1  0
  6  2  1  0
  6  7  1  0
  6 10  1  0
  6 11  1  0
  7  3  1  0
  7  8  1  0
  7  9  1  0
 13 14  2  0
 14 26  1  0
 15 25  2  0
 15  4  1  0
 16 12  2  0
 17  4  1  0
 18 19  1  0
 20 21  2  0
 22 23  2  0
 24 19  2  0
 26 18  1  0
 12 13  1  0
 14 15  1  0
 16 25  1  0
 18  5  2  0
 19 20  1  0
 21 22  1  0
 23 24  1  0
M  END
>  <rmsd>  (1) 
0.23997578

$$$$
