Molport-051-790-868 LN03269416 MCULE-8334916970 PubChem-127263975
     RDKit          3D

 18 18  0  0  0  0  0  0  0  0999 V2000
   12.8375   39.3317   11.7180 C   0  0  0  0  0  0  0  0  0  0  0  0
   13.9777   39.0301   10.7679 C   0  0  0  0  0  0  0  0  0  0  0  0
   15.0362   40.8007    9.4244 C   0  0  0  0  0  0  0  0  0  0  0  0
   14.9584   41.7401    8.3026 C   0  0  0  0  0  0  0  0  0  0  0  0
   14.2940   42.8129    6.6520 C   0  0  0  0  0  0  0  0  0  0  0  0
   13.9037   44.3326    4.6680 C   0  0  0  0  0  0  0  0  0  0  0  0
   13.3072   45.7394    2.6803 C   0  0  0  0  0  0  0  0  0  0  0  0
   14.5176   45.3590    1.8451 C   0  0  0  0  0  0  0  0  0  0  0  0
   13.5475   47.0795    3.3539 C   0  0  0  0  0  0  0  0  0  0  0  0
   12.1134   45.8741    1.7592 C   0  0  0  0  0  0  0  0  0  0  0  0
   13.9567   39.9569    9.6926 O   0  0  0  0  0  0  0  0  0  0  0  0
   16.0749   40.7612   10.1389 O   0  0  0  0  0  0  0  0  0  0  0  0
   15.4984   43.2395    6.9399 O   0  0  0  0  0  0  0  0  0  0  0  0
   15.0387   44.8717    4.7832 O   0  0  0  0  0  0  0  0  0  0  0  0
   13.0244   44.7286    3.6511 O   0  0  0  0  0  0  0  0  0  0  0  0
   15.9499   42.5913    7.9696 N   0  0  0  0  0  0  0  0  0  0  0  0
   13.8840   41.8452    7.4920 N   0  0  0  0  0  0  0  0  0  0  0  0
   13.4930   43.3057    5.5749 N   0  0  0  0  0  0  0  0  0  0  0  0
  1  2  1  0
  2 11  1  0
  3 11  1  0
  3  4  1  0
  4 17  1  0
  5 13  1  0
  5 18  1  0
  6 15  1  0
  7 15  1  0
  7  8  1  0
  7  9  1  0
  7 10  1  0
 16 13  1  0
 18  6  1  0
  3 12  2  0
  4 16  2  0
  5 17  2  0
  6 14  2  0
M  END
>  <rmsd>  (1) 
0.188322738

$$$$
