MolPort-051-656-764 MCULE-2965618442
     RDKit          3D

 26 28  0  0  0  0  0  0  0  0999 V2000
   15.8924   37.8731   11.0158 C   0  0  2  0  0  0  0  0  0  0  0  0
   17.4926   36.7668   12.6525 C   0  0  0  0  0  0  0  0  0  0  0  0
   18.6400   37.6062   12.1821 C   0  0  0  0  0  0  0  0  0  0  0  0
   18.3633   38.1876   10.8013 C   0  0  0  0  0  0  0  0  0  0  0  0
   17.0156   38.8961   10.7931 C   0  0  1  0  0  0  0  0  0  0  0  0
   16.5536   40.9618    9.8077 C   0  0  0  0  0  0  0  0  0  0  0  0
   15.7689   41.5686    8.6974 C   0  0  0  0  0  0  0  0  0  0  0  0
   14.4673   41.1302    8.4296 C   0  0  0  0  0  0  0  0  0  0  0  0
   13.7303   41.7135    7.3952 C   0  0  0  0  0  0  0  0  0  0  0  0
   14.2846   42.7403    6.6230 C   0  0  0  0  0  0  0  0  0  0  0  0
   13.8911   44.3654    4.6802 C   0  0  0  0  0  0  0  0  0  0  0  0
   12.9370   44.8355    3.6429 C   0  0  0  0  0  0  0  0  0  0  0  0
   15.5882   43.1805    6.9001 C   0  0  0  0  0  0  0  0  0  0  0  0
   16.3265   42.5981    7.9344 C   0  0  0  0  0  0  0  0  0  0  0  0
   14.5568   38.5317   11.1909 C   0  0  0  0  0  0  0  0  0  0  0  0
   14.3289   39.4020   12.2678 C   0  0  0  0  0  0  0  0  0  0  0  0
   13.0868   40.0240   12.4195 C   0  0  0  0  0  0  0  0  0  0  0  0
   12.0660   39.7797   11.4972 C   0  0  0  0  0  0  0  0  0  0  0  0
   12.2863   38.9125   10.4238 C   0  0  0  0  0  0  0  0  0  0  0  0
   13.5273   38.2872   10.2689 C   0  0  0  0  0  0  0  0  0  0  0  0
   16.1721   36.9854   12.1450 N   0  0  0  0  0  0  0  0  0  0  0  0
   16.8307   39.5646    9.5159 N   0  0  0  0  0  0  0  0  0  0  0  0
   13.4971   43.3134    5.5701 N   0  0  0  0  0  0  0  0  0  0  0  0
   15.0290   44.8989    4.7595 O   0  0  0  0  0  0  0  0  0  0  0  0
   17.6803   35.9063   13.5505 O   0  0  0  0  0  0  0  0  0  0  0  0
   13.7259   37.4535    9.2176 F   0  0  0  0  0  0  0  0  0  0  0  0
  1 21  1  0
  1 15  1  1
  3  2  1  0
  3  4  1  0
  4  5  1  0
  5 22  1  6
  5  1  1  0
  6 22  1  0
  6  7  1  0
  8  9  2  0
 10 23  1  0
 10 13  2  0
 12 11  1  0
 14  7  2  0
 16 17  2  0
 18 19  2  0
 20 26  1  0
 20 15  2  0
 21  2  1  0
 23 11  1  0
  2 25  2  0
  7  8  1  0
  9 10  1  0
 11 24  2  0
 13 14  1  0
 15 16  1  0
 17 18  1  0
 19 20  1  0
M  END
>  <rmsd>  (1) 
0.248055607

$$$$
