MolPort-002-774-944 20607528 CSSS00133006747 ChemDiv-F018-3348 MCULE-2222494242 PubChem-19591018 ZINC000020607528 ZINC20607528
     RDKit          3D

 26 28  0  0  0  0  0  0  0  0999 V2000
   12.8802   39.5059   12.1043 C   0  0  0  0  0  0  0  0  0  0  0  0
   13.8660   39.2165   10.9924 C   0  0  0  0  0  0  0  0  0  0  0  0
   13.8984   40.3849   10.0307 C   0  0  0  0  0  0  0  0  0  0  0  0
   14.8861   40.0951    8.9169 C   0  0  0  0  0  0  0  0  0  0  0  0
   14.3371   42.6297    6.4962 C   0  0  0  0  0  0  0  0  0  0  0  0
   13.8767   44.4133    4.7369 C   0  0  0  0  0  0  0  0  0  0  0  0
   12.9019   44.9709    3.7575 C   0  0  0  0  0  0  0  0  0  0  0  0
   13.8933   43.4571    0.6934 C   0  0  0  0  0  0  0  0  0  0  0  0
   12.8369   42.6305    1.0311 C   0  0  0  0  0  0  0  0  0  0  0  0
   12.3066   43.1585    2.1435 C   0  0  0  0  0  0  0  0  0  0  0  0
   11.6674   42.1532    3.0148 C   0  0  0  0  0  0  0  0  0  0  0  0
   11.7896   40.8612    2.1799 C   0  0  0  0  0  0  0  0  0  0  0  0
   12.6695   41.1675    0.9494 C   0  0  0  0  0  0  0  0  0  0  0  0
   14.9806   43.1457   -0.2850 C   0  0  0  0  0  0  0  0  0  0  0  0
   15.6653   42.9370    6.7687 C   0  0  0  0  0  0  0  0  0  0  0  0
   15.9923   41.9961    7.7269 C   0  0  0  0  0  0  0  0  0  0  0  0
   17.3257   41.8661    8.3794 C   0  0  0  0  0  0  0  0  0  0  0  0
   14.9300   41.2120    7.9846 N   0  0  0  0  0  0  0  0  0  0  0  0
   13.9110   41.5870    7.2333 N   0  0  0  0  0  0  0  0  0  0  0  0
   13.4940   43.3014    5.5539 N   0  0  0  0  0  0  0  0  0  0  0  0
   12.9980   44.2576    2.4922 N   0  0  0  0  0  0  0  0  0  0  0  0
   13.9744   44.4471    1.6135 N   0  0  0  0  0  0  0  0  0  0  0  0
   15.0338   44.9060    4.8074 O   0  0  0  0  0  0  0  0  0  0  0  0
   15.9042   42.3037    0.3052 F   0  0  0  0  0  0  0  0  0  0  0  0
   15.6113   44.3136   -0.6728 F   0  0  0  0  0  0  0  0  0  0  0  0
   14.4482   42.5294   -1.4027 F   0  0  0  0  0  0  0  0  0  0  0  0
  1  2  1  0
  2  3  1  0
  3  4  1  0
  4 18  1  0
  5 20  1  0
  5 15  1  0
  7  6  1  0
  7 21  1  0
  8  9  1  0
 10 21  1  0
 11 10  1  0
 11 12  1  0
 12 13  1  0
 13  9  1  0
 14  8  1  0
 14 24  1  0
 14 25  1  0
 14 26  1  0
 16 18  1  0
 17 16  1  0
 18 19  1  0
 20  6  1  0
 21 22  1  0
  5 19  2  0
  6 23  2  0
  8 22  2  0
  9 10  2  0
 15 16  2  0
M  END
>  <rmsd>  (1) 
0.244434521

$$$$
