MolPort-020-186-520 72122310 CSSS00159808843 MCULE-9656903396 PubChem-56882414 ZINC000072122310 ZINC72122310
     RDKit          3D

 24 26  0  0  0  0  0  0  0  0999 V2000
   12.9308   44.9319    3.7001 C   0  0  0  0  0  0  0  0  0  0  0  0
   13.8875   44.3946    4.7020 C   0  0  0  0  0  0  0  0  0  0  0  0
   14.2716   42.6716    6.5600 C   0  0  0  0  0  0  0  0  0  0  0  0
   15.5900   43.0640    6.8326 C   0  0  0  0  0  0  0  0  0  0  0  0
   16.3274   42.4186    7.8288 C   0  0  0  0  0  0  0  0  0  0  0  0
   15.7577   41.3765    8.5729 C   0  0  0  0  0  0  0  0  0  0  0  0
   14.4443   40.9781    8.2876 C   0  0  0  0  0  0  0  0  0  0  0  0
   13.7064   41.6233    7.2920 C   0  0  0  0  0  0  0  0  0  0  0  0
   16.5659   40.6927    9.6079 C   0  0  0  0  0  0  0  0  0  0  0  0
   18.2876   39.9651   10.6532 C   0  0  0  0  0  0  0  0  0  0  0  0
   17.1613   39.4428   11.2611 C   0  0  0  0  0  0  0  0  0  0  0  0
   14.7272   39.6466   10.9751 C   0  0  0  0  0  0  0  0  0  0  0  0
   13.8751   40.6817   11.4188 C   0  0  0  0  0  0  0  0  0  0  0  0
   14.3559   42.0904   11.5447 C   0  0  0  0  0  0  0  0  0  0  0  0
   15.0504   42.2899   12.8780 C   0  0  0  0  0  0  0  0  0  0  0  0
   12.5612   40.3842   11.7975 C   0  0  0  0  0  0  0  0  0  0  0  0
   12.0903   39.0704   11.7403 C   0  0  0  0  0  0  0  0  0  0  0  0
   12.9347   38.0434   11.3139 C   0  0  0  0  0  0  0  0  0  0  0  0
   14.2492   38.3299   10.9384 C   0  0  0  0  0  0  0  0  0  0  0  0
   15.0368   44.9014    4.7914 O   0  0  0  0  0  0  0  0  0  0  0  0
   15.5137   43.6011   12.9679 O   0  0  0  0  0  0  0  0  0  0  0  0
   13.4826   43.3103    5.5470 N   0  0  0  0  0  0  0  0  0  0  0  0
   17.9122   40.7485    9.6206 N   0  0  0  0  0  0  0  0  0  0  0  0
   16.0872   39.9090   10.6010 N   0  0  0  0  0  0  0  0  0  0  0  0
  1  2  1  0
  2 22  1  0
  4  5  2  0
  6  7  2  0
  6  9  1  0
  8  3  2  0
 10 23  1  0
 11 24  1  0
 13 16  2  0
 14 13  1  0
 14 15  1  0
 15 21  1  0
 17 18  2  0
 19 12  2  0
 22  3  1  0
 24 12  1  0
 24  9  1  0
  2 20  2  0
  3  4  1  0
  5  6  1  0
  7  8  1  0
  9 23  2  0
 10 11  2  0
 12 13  1  0
 16 17  1  0
 18 19  1  0
M  END
>  <rmsd>  (1) 
0.245602325

$$$$
