MolPort-051-671-642 MCULE-8642234493 PubChem-110111879
     RDKit          3D

 27 30  0  0  0  0  0  0  0  0999 V2000
   16.8270   46.5129    4.1017 C   0  0  0  0  0  0  0  0  0  0  0  0
   15.4818   45.9029    3.9391 C   0  0  0  0  0  0  0  0  0  0  0  0
   13.8539   44.3262    4.6646 C   0  0  0  0  0  0  0  0  0  0  0  0
   12.9787   44.7464    3.6596 C   0  0  0  0  0  0  0  0  0  0  0  0
   13.3727   45.7619    2.7865 C   0  0  0  0  0  0  0  0  0  0  0  0
   14.6323   46.3469    2.9239 C   0  0  0  0  0  0  0  0  0  0  0  0
   14.2101   42.7366    6.6344 C   0  0  0  0  0  0  0  0  0  0  0  0
   16.2035   42.6805    7.9320 C   0  0  0  0  0  0  0  0  0  0  0  0
   15.6824   41.6612    8.7303 C   0  0  0  0  0  0  0  0  0  0  0  0
   14.3954   41.1747    8.4673 C   0  0  0  0  0  0  0  0  0  0  0  0
   13.6569   41.7170    7.4131 C   0  0  0  0  0  0  0  0  0  0  0  0
   13.7959   40.0837    9.2953 C   0  0  2  0  0  0  0  0  0  0  0  0
   13.6091   40.5329   10.7475 C   0  0  0  0  0  0  0  0  0  0  0  0
   13.1348   39.3744   11.6282 C   0  0  0  0  0  0  0  0  0  0  0  0
   13.8362   38.0513   11.2900 C   0  0  0  0  0  0  0  0  0  0  0  0
   14.6129   38.7838    9.1743 C   0  0  0  0  0  0  0  0  0  0  0  0
   15.6454   36.9771   10.2499 C   0  0  0  0  0  0  0  0  0  0  0  0
   16.8259   36.7611   11.1463 C   0  0  0  0  0  0  0  0  0  0  0  0
   17.3239   37.6503   12.0799 C   0  0  0  0  0  0  0  0  0  0  0  0
   18.5091   35.8318   12.0672 C   0  0  0  0  0  0  0  0  0  0  0  0
   19.2264   37.5871   13.6822 C   0  0  0  0  0  0  0  0  0  0  0  0
   15.0791   44.9122    4.7795 N   0  0  0  0  0  0  0  0  0  0  0  0
   13.4414   43.2835    5.5563 N   0  0  0  0  0  0  0  0  0  0  0  0
   15.4645   43.1917    6.9114 N   0  0  0  0  0  0  0  0  0  0  0  0
   15.0338   38.2770   10.4813 N   0  0  0  0  0  0  0  0  0  0  0  0
   18.3780   37.0399   12.6409 N   0  0  0  0  0  0  0  0  0  0  0  0
   17.5583   35.6290   11.1330 N   0  0  0  0  0  0  0  0  0  0  0  0
  1  2  1  0
  3 22  2  0
  3 23  1  0
  4  5  2  0
  6  2  2  0
  8 24  2  0
  9 10  2  0
 11  7  2  0
 12 10  1  6
 12 13  1  0
 13 14  1  0
 14 15  1  0
 15 25  1  0
 16 25  1  0
 16 12  1  0
 17 25  1  0
 17 18  1  0
 18 27  1  0
 19 26  1  0
 21 26  1  0
 23  7  1  0
 26 20  1  0
  2 22  1  0
  3  4  1  0
  5  6  1  0
  7 24  1  0
  8  9  1  0
 10 11  1  0
 18 19  2  0
 20 27  2  0
M  END
>  <rmsd>  (1) 
0.24751544

$$$$
