Molport-020-292-441 MCULE-1404467033 PubChem-110264909
     RDKit          3D

 31 34  0  0  0  0  0  0  0  0999 V2000
   11.6126   44.1486    3.5013 C   0  0  0  0  0  0  0  0  0  0  0  0
   12.9632   44.7585    3.6593 C   0  0  0  0  0  0  0  0  0  0  0  0
   13.8477   44.3309    4.6637 C   0  0  0  0  0  0  0  0  0  0  0  0
   15.4710   45.9123    3.9296 C   0  0  0  0  0  0  0  0  0  0  0  0
   14.6170   46.3603    2.9217 C   0  0  0  0  0  0  0  0  0  0  0  0
   13.3570   45.7771    2.7896 C   0  0  0  0  0  0  0  0  0  0  0  0
   14.2152   42.7217    6.6404 C   0  0  0  0  0  0  0  0  0  0  0  0
   13.6458   41.7009    7.4053 C   0  0  0  0  0  0  0  0  0  0  0  0
   14.3698   41.1379    8.4596 C   0  0  0  0  0  0  0  0  0  0  0  0
   16.2041   42.5782    8.0072 C   0  0  0  0  0  0  0  0  0  0  0  0
   15.5087   43.1628    6.9475 C   0  0  0  0  0  0  0  0  0  0  0  0
   17.5767   43.0404    8.3391 C   0  0  0  0  0  0  0  0  0  0  0  0
   13.7557   40.0462    9.2715 C   0  0  2  0  0  0  0  0  0  0  0  0
   13.6328   40.4663   10.7370 C   0  0  0  0  0  0  0  0  0  0  0  0
   12.9999   39.3456   11.5584 C   0  0  0  0  0  0  0  0  0  0  0  0
   13.8303   38.0714   11.4341 C   0  0  0  0  0  0  0  0  0  0  0  0
   14.5757   38.7622    9.1525 C   0  0  0  0  0  0  0  0  0  0  0  0
   13.4874   36.5196    9.4535 C   0  0  0  0  0  0  0  0  0  0  0  0
   13.2598   35.2989   10.2627 C   0  0  0  0  0  0  0  0  0  0  0  0
   13.8749   35.1256   11.5112 C   0  0  0  0  0  0  0  0  0  0  0  0
   13.6726   33.9540   12.2579 C   0  0  0  0  0  0  0  0  0  0  0  0
   12.8540   32.9452   11.7425 C   0  0  0  0  0  0  0  0  0  0  0  0
   12.2452   33.1011   10.4950 C   0  0  0  0  0  0  0  0  0  0  0  0
   12.4503   34.2703    9.7581 C   0  0  0  0  0  0  0  0  0  0  0  0
   15.1147   34.7433   14.1057 C   0  0  0  0  0  0  0  0  0  0  0  0
   15.0728   44.9193    4.7689 N   0  0  0  0  0  0  0  0  0  0  0  0
   13.4516   43.2833    5.5638 N   0  0  0  0  0  0  0  0  0  0  0  0
   15.6265   41.5863    8.7356 N   0  0  0  0  0  0  0  0  0  0  0  0
   14.0070   37.7360   10.0224 N   0  0  0  0  0  0  0  0  0  0  0  0
   13.2229   36.4853    8.2198 O   0  0  0  0  0  0  0  0  0  0  0  0
   14.2712   33.7687   13.5071 O   0  0  0  0  0  0  0  0  0  0  0  0
  1  2  1  0
  3 26  2  0
  3 27  1  0
  4  5  2  0
  6  2  2  0
  8  9  2  0
 10 28  2  0
 11  7  2  0
 12 10  1  0
 13  9  1  6
 13 14  1  0
 14 15  1  0
 15 16  1  0
 16 29  1  0
 17 29  1  0
 17 13  1  0
 18 19  1  0
 20 21  2  0
 21 31  1  0
 22 23  2  0
 24 19  2  0
 25 31  1  0
 27  7  1  0
 29 18  1  0
  2  3  1  0
  4 26  1  0
  5  6  1  0
  7  8  1  0
  9 28  1  0
 10 11  1  0
 18 30  2  0
 19 20  1  0
 21 22  1  0
 23 24  1  0
M  END
>  <rmsd>  (1) 
0.243016437

$$$$
