MolPort-007-723-061 6818060 ChemDiv-E157-3209 MCULE-6979807899 PubChem-22517673 ZINC000006818060 ZINC06818060
     RDKit          3D

 22 24  0  0  0  0  0  0  0  0999 V2000
   14.4630   39.0479   11.9816 C   0  0  0  0  0  0  0  0  0  0  0  0
   13.4620   39.6569   11.0180 C   0  0  0  0  0  0  0  0  0  0  0  0
   12.1095   39.0140   11.2396 C   0  0  0  0  0  0  0  0  0  0  0  0
   13.9001   39.4188    9.5822 C   0  0  0  0  0  0  0  0  0  0  0  0
   14.9362   40.4103    9.1659 C   0  0  0  0  0  0  0  0  0  0  0  0
   15.9271   41.9579    8.1496 C   0  0  0  0  0  0  0  0  0  0  0  0
   14.3096   42.7024    6.5838 C   0  0  0  0  0  0  0  0  0  0  0  0
   13.8816   44.3834    4.6991 C   0  0  0  0  0  0  0  0  0  0  0  0
   12.9226   44.8910    3.7017 C   0  0  0  0  0  0  0  0  0  0  0  0
   13.2791   45.9425    2.8439 C   0  0  0  0  0  0  0  0  0  0  0  0
   12.3687   46.4232    1.8983 C   0  0  0  0  0  0  0  0  0  0  0  0
   11.0952   45.8561    1.8033 C   0  0  0  0  0  0  0  0  0  0  0  0
   10.7317   44.8084    2.6534 C   0  0  0  0  0  0  0  0  0  0  0  0
   11.6421   44.3276    3.5992 C   0  0  0  0  0  0  0  0  0  0  0  0
   16.1886   40.5153    9.6878 N   0  0  0  0  0  0  0  0  0  0  0  0
   16.8228   41.5030    9.0420 N   0  0  0  0  0  0  0  0  0  0  0  0
   13.5004   43.3077    5.5681 N   0  0  0  0  0  0  0  0  0  0  0  0
   13.8417   41.6807    7.3557 N   0  0  0  0  0  0  0  0  0  0  0  0
   14.7913   41.3191    8.2024 N   0  0  0  0  0  0  0  0  0  0  0  0
   15.9383   43.1487    6.9731 S   0  0  0  0  0  0  0  0  0  0  0  0
   15.0293   44.8989    4.7807 O   0  0  0  0  0  0  0  0  0  0  0  0
   10.2131   46.3218    0.8870 F   0  0  0  0  0  0  0  0  0  0  0  0
  1  2  1  0
  2  3  1  0
  2  4  1  0
  4  5  1  0
  6 20  1  0
  7 20  1  0
  7 17  1  0
  8  9  1  0
 10 11  2  0
 12 22  1  0
 12 13  2  0
 14  9  2  0
 15 16  1  0
 17  8  1  0
 19 18  1  0
 19  5  1  0
 19  6  1  0
  5 15  2  0
  6 16  2  0
  7 18  2  0
  8 21  2  0
  9 10  1  0
 11 12  1  0
 13 14  1  0
M  END
>  <rmsd>  (1) 
0.180142045

$$$$
