MolPort-003-020-505 4087322 CSSS03437186032 LN01391649 MCULE-7357282413 PubChem-5098654 ZINC000004087322
     RDKit          3D

 29 32  0  0  0  0  0  0  0  0999 V2000
   14.2777   42.7310    6.6279 C   0  0  0  0  0  0  0  0  0  0  0  0
   13.8434   44.4754    4.8305 C   0  0  0  0  0  0  0  0  0  0  0  0
   12.7813   45.2165    4.0924 C   0  0  0  0  0  0  0  0  0  0  0  0
   12.1519   46.2854    4.9793 C   0  0  0  0  0  0  0  0  0  0  0  0
   11.3126   45.6835    6.0596 C   0  0  0  0  0  0  0  0  0  0  0  0
   10.1503   44.9669    5.7460 C   0  0  0  0  0  0  0  0  0  0  0  0
    9.3763   44.4062    6.7668 C   0  0  0  0  0  0  0  0  0  0  0  0
    9.7608   44.5626    8.1021 C   0  0  0  0  0  0  0  0  0  0  0  0
   10.9178   45.2818    8.4171 C   0  0  0  0  0  0  0  0  0  0  0  0
   11.6912   45.8434    7.3968 C   0  0  0  0  0  0  0  0  0  0  0  0
   15.2628   41.2099    8.3426 C   0  0  0  0  0  0  0  0  0  0  0  0
   15.5665   42.5504    8.5655 C   0  0  0  0  0  0  0  0  0  0  0  0
   16.3702   43.0207    9.7335 C   0  0  0  0  0  0  0  0  0  0  0  0
   15.0071   43.4131    7.6064 C   0  0  0  0  0  0  0  0  0  0  0  0
   15.0895   44.8493    7.7055 C   0  0  0  0  0  0  0  0  0  0  0  0
   15.6426   40.0626    9.2215 C   0  0  0  0  0  0  0  0  0  0  0  0
   14.5340   39.7368   10.1637 C   0  0  0  0  0  0  0  0  0  0  0  0
   13.5761   38.7600    9.8076 C   0  0  0  0  0  0  0  0  0  0  0  0
   12.5107   38.4546   10.6741 C   0  0  0  0  0  0  0  0  0  0  0  0
   12.4422   39.1512   11.8782 C   0  0  0  0  0  0  0  0  0  0  0  0
   13.3585   40.0931   12.2196 C   0  0  0  0  0  0  0  0  0  0  0  0
   11.8514   39.9637   13.9230 C   0  0  0  0  0  0  0  0  0  0  0  0
   14.4263   40.4230   11.3889 C   0  0  0  0  0  0  0  0  0  0  0  0
   13.4956   43.3046    5.5741 N   0  0  0  0  0  0  0  0  0  0  0  0
   15.1557   46.0019    7.7884 N   0  0  0  0  0  0  0  0  0  0  0  0
   15.0349   44.8821    4.7853 O   0  0  0  0  0  0  0  0  0  0  0  0
   13.0408   40.6162   13.4568 O   0  0  0  0  0  0  0  0  0  0  0  0
   11.5045   39.0359   12.8849 O   0  0  0  0  0  0  0  0  0  0  0  0
   14.2825   41.0891    6.9812 S   0  0  0  0  0  0  0  0  0  0  0  0
  1 24  1  0
  1 29  1  0
  3  2  1  0
  3  4  1  0
  4  5  1  0
  6  7  2  0
  8  9  2  0
 10  5  2  0
 11 29  1  0
 12 14  1  0
 13 12  1  0
 14 15  1  0
 16 11  1  0
 16 17  1  0
 18 19  2  0
 20 21  2  0
 20 28  1  0
 21 27  1  0
 22 27  1  0
 22 28  1  0
 23 17  2  0
 24  2  1  0
  2 26  2  0
  5  6  1  0
  7  8  1  0
  9 10  1  0
 11 12  2  0
 14  1  2  0
 17 18  1  0
 19 20  1  0
 21 23  1  0
 15 25  3  0
M  END
>  <rmsd>  (1) 
0.242346495

$$$$
