MolPort-010-903-894 ChemDiv-M535-1311 MCULE-6417432776 PubChem-53146007 ZINC000065165996 ZINC65165996
     RDKit          3D

 32 35  0  0  0  0  0  0  0  0999 V2000
   20.3823   33.0464   10.3807 C   0  0  0  0  0  0  0  0  0  0  0  0
   19.7063   33.6748    9.1799 C   0  0  0  0  0  0  0  0  0  0  0  0
   18.3364   35.7075    9.3931 C   0  0  0  0  0  0  0  0  0  0  0  0
   18.2737   37.1802    9.6225 C   0  0  0  0  0  0  0  0  0  0  0  0
   17.5298   37.4898   10.9242 C   0  0  0  0  0  0  0  0  0  0  0  0
   17.3361   38.9960   11.0828 C   0  0  0  0  0  0  0  0  0  0  0  0
   16.4740   38.7519    8.7091 C   0  0  0  0  0  0  0  0  0  0  0  0
   17.6988   37.8968    8.3885 C   0  0  0  0  0  0  0  0  0  0  0  0
   16.4401   40.9954    9.8622 C   0  0  0  0  0  0  0  0  0  0  0  0
   15.6257   41.6011    8.7898 C   0  0  0  0  0  0  0  0  0  0  0  0
   14.3381   41.1224    8.4461 C   0  0  0  0  0  0  0  0  0  0  0  0
   13.6586   41.7037    7.3649 C   0  0  0  0  0  0  0  0  0  0  0  0
   14.2215   42.7553    6.6385 C   0  0  0  0  0  0  0  0  0  0  0  0
   13.8979   44.3767    4.6778 C   0  0  0  0  0  0  0  0  0  0  0  0
   12.9804   44.8473    3.5967 C   0  0  0  0  0  0  0  0  0  0  0  0
   11.6679   45.3161    4.1985 C   0  0  0  0  0  0  0  0  0  0  0  0
   12.7012   46.3301    3.7639 C   0  0  0  0  0  0  0  0  0  0  0  0
   15.4792   43.2457    7.0083 C   0  0  0  0  0  0  0  0  0  0  0  0
   16.1740   42.6720    8.0735 C   0  0  0  0  0  0  0  0  0  0  0  0
   13.4043   40.3616   10.6235 C   0  0  0  0  0  0  0  0  0  0  0  0
   14.0078   39.2819   11.5106 C   0  0  0  0  0  0  0  0  0  0  0  0
   13.0714   38.0915   11.6462 C   0  0  0  0  0  0  0  0  0  0  0  0
   12.9605   37.3109   10.3461 C   0  0  0  0  0  0  0  0  0  0  0  0
   12.1630   38.0987    9.3209 C   0  0  0  0  0  0  0  0  0  0  0  0
   13.0823   38.9756    8.4764 C   0  0  0  0  0  0  0  0  0  0  0  0
   19.5792   35.0738    9.3856 O   0  0  0  0  0  0  0  0  0  0  0  0
   17.2754   35.0482    9.2108 O   0  0  0  0  0  0  0  0  0  0  0  0
   16.9227   41.7467   10.7531 O   0  0  0  0  0  0  0  0  0  0  0  0
   15.0463   44.8863    4.7826 O   0  0  0  0  0  0  0  0  0  0  0  0
   16.7328   39.5873    9.8835 N   0  0  0  0  0  0  0  0  0  0  0  0
   13.4787   43.3148    5.5470 N   0  0  0  0  0  0  0  0  0  0  0  0
   13.6809   40.0994    9.2096 N   0  0  0  0  0  0  0  0  0  0  0  0
  1  2  1  0
  2 26  1  0
  3 26  1  0
  4  3  1  0
  4  5  1  0
  5  6  1  0
  6 30  1  0
  7 30  1  0
  7  8  1  0
  8  4  1  0
  9 10  1  0
 10 11  2  0
 11 32  1  0
 12 13  2  0
 13 31  1  0
 15 14  1  0
 15 16  1  0
 16 17  1  0
 17 15  1  0
 18 19  2  0
 20 32  1  0
 20 21  1  0
 21 22  1  0
 22 23  1  0
 23 24  1  0
 24 25  1  0
 25 32  1  0
 30  9  1  0
 31 14  1  0
  3 27  2  0
  9 28  2  0
 11 12  1  0
 13 18  1  0
 14 29  2  0
 19 10  1  0
M  END
>  <rmsd>  (1) 
0.236852244

$$$$
