MolPort-051-779-407 MCULE-4415854814 PubChem-165756065
     RDKit          3D

 31 34  0  0  0  0  0  0  0  0999 V2000
   13.5019   39.9858   12.2662 C   0  0  0  0  0  0  0  0  0  0  0  0
   13.4050   39.2657   10.9324 C   0  0  0  0  0  0  0  0  0  0  0  0
   14.4242   38.1406   10.8796 C   0  0  0  0  0  0  0  0  0  0  0  0
   12.0210   38.6640   10.8126 C   0  0  0  0  0  0  0  0  0  0  0  0
   14.7721   40.9223    9.6370 C   0  0  0  0  0  0  0  0  0  0  0  0
   14.8413   41.8277    8.4772 C   0  0  0  0  0  0  0  0  0  0  0  0
   14.2807   42.8673    6.7191 C   0  0  0  0  0  0  0  0  0  0  0  0
   15.5658   43.2681    7.0342 C   0  0  0  0  0  0  0  0  0  0  0  0
   17.1763   42.7172    8.8368 C   0  0  0  0  0  0  0  0  0  0  0  0
   13.9294   44.2730    4.6253 C   0  0  0  0  0  0  0  0  0  0  0  0
   13.5006   45.3726    2.4523 C   0  0  0  0  0  0  0  0  0  0  0  0
   14.0397   44.5457    1.2788 C   0  0  0  0  0  0  0  0  0  0  0  0
   15.2610   43.7535    1.6623 C   0  0  0  0  0  0  0  0  0  0  0  0
   16.5065   44.2410    2.0624 C   0  0  0  0  0  0  0  0  0  0  0  0
   17.5188   43.3169    2.3696 C   0  0  0  0  0  0  0  0  0  0  0  0
   17.2793   41.9327    2.2655 C   0  0  0  0  0  0  0  0  0  0  0  0
   16.0265   41.4561    1.8479 C   0  0  0  0  0  0  0  0  0  0  0  0
   15.0378   42.3928    1.5511 C   0  0  0  0  0  0  0  0  0  0  0  0
   13.6874   42.1912    1.0806 C   0  0  0  0  0  0  0  0  0  0  0  0
   13.0092   41.0060    0.8009 C   0  0  0  0  0  0  0  0  0  0  0  0
   11.6889   41.0991    0.3330 C   0  0  0  0  0  0  0  0  0  0  0  0
   11.0816   42.3574    0.1526 C   0  0  0  0  0  0  0  0  0  0  0  0
   11.7870   43.5379    0.4397 C   0  0  0  0  0  0  0  0  0  0  0  0
   13.0971   43.4306    0.9093 C   0  0  0  0  0  0  0  0  0  0  0  0
   13.6023   40.1780    9.8495 O   0  0  0  0  0  0  0  0  0  0  0  0
   15.7504   40.8189   10.4259 O   0  0  0  0  0  0  0  0  0  0  0  0
   15.0310   44.8748    4.7496 O   0  0  0  0  0  0  0  0  0  0  0  0
   13.0958   44.5443    3.5396 O   0  0  0  0  0  0  0  0  0  0  0  0
   13.8187   41.9679    7.6098 N   0  0  0  0  0  0  0  0  0  0  0  0
   15.9008   42.6004    8.1496 N   0  0  0  0  0  0  0  0  0  0  0  0
   13.5094   43.3086    5.5961 N   0  0  0  0  0  0  0  0  0  0  0  0
  1  2  1  0
  2  3  1  0
  2  4  1  0
  2 25  1  0
  5 25  1  0
  5  6  1  0
  7 29  1  0
  7 31  1  0
  8 30  1  0
  9 30  1  0
 10 28  1  0
 11 28  1  0
 11 12  1  0
 12 13  1  0
 12 24  1  0
 14 15  2  0
 16 17  2  0
 18 19  1  0
 18 13  2  0
 20 21  2  0
 22 23  2  0
 24 19  2  0
 30  6  1  0
 31 10  1  0
  5 26  2  0
  6 29  2  0
  7  8  2  0
 10 27  2  0
 13 14  1  0
 15 16  1  0
 17 18  1  0
 19 20  1  0
 21 22  1  0
 23 24  1  0
M  END
>  <rmsd>  (1) 
0.245489255

$$$$
