Molport-053-323-739 PubChem-110097764
     RDKit          3D

 26 29  0  0  0  0  0  0  0  0999 V2000
   11.2142   35.8239   11.6428 C   0  0  0  0  0  0  0  0  0  0  0  0
   12.1400   33.8590   10.4177 C   0  0  0  0  0  0  0  0  0  0  0  0
   13.2655   34.7955    8.8312 C   0  0  0  0  0  0  0  0  0  0  0  0
   12.6728   35.7695    9.6034 C   0  0  0  0  0  0  0  0  0  0  0  0
   12.8265   37.2437    9.4198 C   0  0  0  0  0  0  0  0  0  0  0  0
   13.9110   38.0984   11.3937 C   0  0  0  0  0  0  0  0  0  0  0  0
   13.0346   39.3462   11.5333 C   0  0  0  0  0  0  0  0  0  0  0  0
   13.6413   40.4908   10.7390 C   0  0  0  0  0  0  0  0  0  0  0  0
   13.7975   40.0696    9.2832 C   0  0  2  0  0  0  0  0  0  0  0  0
   14.6424   38.7916    9.1862 C   0  0  0  0  0  0  0  0  0  0  0  0
   14.3952   41.1705    8.4660 C   0  0  0  0  0  0  0  0  0  0  0  0
   13.6599   41.7098    7.4081 C   0  0  0  0  0  0  0  0  0  0  0  0
   14.2093   42.7374    6.6370 C   0  0  0  0  0  0  0  0  0  0  0  0
   16.1928   42.6960    7.9497 C   0  0  0  0  0  0  0  0  0  0  0  0
   15.6753   41.6692    8.7405 C   0  0  0  0  0  0  0  0  0  0  0  0
   13.8557   44.3270    4.6672 C   0  0  0  0  0  0  0  0  0  0  0  0
   15.4693   45.9026    3.9317 C   0  0  0  0  0  0  0  0  0  0  0  0
   14.5976   46.3278    2.9281 C   0  0  0  0  0  0  0  0  0  0  0  0
   12.9864   44.7544    3.6612 C   0  0  0  0  0  0  0  0  0  0  0  0
   11.9820   35.1811   10.5903 N   0  0  0  0  0  0  0  0  0  0  0  0
   12.9208   33.5947    9.3471 N   0  0  0  0  0  0  0  0  0  0  0  0
   14.0945   37.6914    9.9915 N   0  0  0  0  0  0  0  0  0  0  0  0
   15.4570   43.2034    6.9249 N   0  0  0  0  0  0  0  0  0  0  0  0
   13.4423   43.2831    5.5569 N   0  0  0  0  0  0  0  0  0  0  0  0
   15.0799   44.9130    4.7781 N   0  0  0  0  0  0  0  0  0  0  0  0
   13.3754   45.7444    2.8148 N   0  0  0  0  0  0  0  0  0  0  0  0
  1 20  1  0
  3 21  1  0
  4 20  1  0
  5  4  1  0
  5 22  1  0
  6 22  1  0
  6  7  1  0
  7  8  1  0
  8  9  1  0
  9 10  1  0
  9 11  1  6
 10 22  1  0
 12 13  2  0
 13 24  1  0
 14 23  2  0
 15 11  2  0
 17 25  2  0
 18 26  2  0
 19 16  2  0
 20  2  1  0
 24 16  1  0
  2 21  2  0
  3  4  2  0
 11 12  1  0
 13 23  1  0
 14 15  1  0
 16 25  1  0
 17 18  1  0
 19 26  1  0
M  END
>  <rmsd>  (1) 
0.247666344

$$$$
