MolPort-007-955-792 ChemDiv-L068-0667 MCULE-2924407057 PubChem-46376133
     RDKit          3D

 30 32  0  0  0  0  0  0  0  0999 V2000
   14.3279   42.7139    6.5663 C   0  0  0  0  0  0  0  0  0  0  0  0
   13.9140   44.3178    4.6529 C   0  0  0  0  0  0  0  0  0  0  0  0
   13.0110   44.7344    3.5492 C   0  0  0  0  0  0  0  0  0  0  0  0
   15.3022   41.8702    8.6879 C   0  0  0  0  0  0  0  0  0  0  0  0
   16.1753   41.7650    7.6113 C   0  0  0  0  0  0  0  0  0  0  0  0
   17.4393   41.2020    7.7978 C   0  0  0  0  0  0  0  0  0  0  0  0
   17.8124   40.7755    9.0789 C   0  0  0  0  0  0  0  0  0  0  0  0
   16.9292   40.8865   10.1678 C   0  0  0  0  0  0  0  0  0  0  0  0
   15.6316   41.4297    9.9720 C   0  0  0  0  0  0  0  0  0  0  0  0
   14.5277   40.6568   12.0789 C   0  0  2  0  0  0  0  0  0  0  0  0
   13.9935   39.2992   11.6162 C   0  0  0  0  0  0  0  0  0  0  0  0
   12.7191   39.4274   10.7962 C   0  0  0  0  0  0  0  0  0  0  0  0
   13.6676   41.2640   13.1483 C   0  0  0  0  0  0  0  0  0  0  0  0
   15.4442   40.8192   14.8743 C   0  0  0  0  0  0  0  0  0  0  0  0
   16.0567   41.6299   16.0161 C   0  0  0  0  0  0  0  0  0  0  0  0
   14.1292   42.6297   16.6058 C   0  0  0  0  0  0  0  0  0  0  0  0
   13.2856   41.9395   15.5339 C   0  0  0  0  0  0  0  0  0  0  0  0
   15.6359   42.2279    6.3940 C   0  0  0  0  0  0  0  0  0  0  0  0
   16.3288   42.1080    5.0918 C   0  0  0  0  0  0  0  0  0  0  0  0
   18.4313   41.9142    3.8250 C   0  0  0  0  0  0  0  0  0  0  0  0
   13.4883   43.3050    5.5684 N   0  0  0  0  0  0  0  0  0  0  0  0
   14.1619   41.4103   14.4880 N   0  0  0  0  0  0  0  0  0  0  0  0
   15.0306   44.8846    4.7906 O   0  0  0  0  0  0  0  0  0  0  0  0
   14.6725   41.5595   10.9871 O   0  0  0  0  0  0  0  0  0  0  0  0
   12.5082   41.6672   12.8567 O   0  0  0  0  0  0  0  0  0  0  0  0
   15.1284   41.7538   17.0643 O   0  0  0  0  0  0  0  0  0  0  0  0
   17.7228   42.0397    5.0486 O   0  0  0  0  0  0  0  0  0  0  0  0
   15.6603   42.0420    4.0241 O   0  0  0  0  0  0  0  0  0  0  0  0
   13.8474   42.5311    8.1719 S   0  0  0  0  0  0  0  0  0  0  0  0
   17.6176   40.3707   11.8783 Br  0  0  0  0  0  0  0  0  0  0  0  0
  1 21  1  0
  1 29  1  0
  3  2  1  0
  4 29  1  0
  5  6  2  0
  5 18  1  0
  7  8  2  0
  8 30  1  0
  9 24  1  0
  9  4  2  0
 10 24  1  0
 10 11  1  6
 10 13  1  0
 11 12  1  0
 13 22  1  0
 14 22  1  0
 14 15  1  0
 15 26  1  0
 16 26  1  0
 16 17  1  0
 17 22  1  0
 18 19  1  0
 19 27  1  0
 20 27  1  0
 21  2  1  0
  2 23  2  0
  4  5  1  0
  6  7  1  0
  8  9  1  0
 13 25  2  0
 18  1  2  0
 19 28  2  0
M  END
>  <rmsd>  (1) 
0.221173137

$$$$
