MolPort-047-015-618 MCULE-3909583374 PubChem-155985359
     RDKit          3D

 23 25  0  0  0  0  0  0  0  0999 V2000
   14.1914   42.7159    6.6415 C   0  0  0  0  0  0  0  0  0  0  0  0
   13.6237   41.7034    7.4144 C   0  0  0  0  0  0  0  0  0  0  0  0
   14.3686   41.1657    8.4640 C   0  0  0  0  0  0  0  0  0  0  0  0
   13.7820   40.0795    9.3027 C   0  0  2  0  0  0  0  0  0  0  0  0
   13.6268   40.5396   10.7536 C   0  0  0  0  0  0  0  0  0  0  0  0
   13.1609   39.3893   11.6503 C   0  0  0  0  0  0  0  0  0  0  0  0
   13.8335   38.0559   11.2949 C   0  0  0  0  0  0  0  0  0  0  0  0
   15.6182   36.9603   10.2350 C   0  0  0  0  0  0  0  0  0  0  0  0
   16.7357   36.6939   11.2295 C   0  0  0  0  0  0  0  0  0  0  0  0
   18.7619   37.2092   11.9363 C   0  0  0  0  0  0  0  0  0  0  0  0
   14.6110   38.7883    9.1756 C   0  0  0  0  0  0  0  0  0  0  0  0
   16.1621   42.6189    7.9498 C   0  0  0  0  0  0  0  0  0  0  0  0
   17.5309   43.1189    8.2415 C   0  0  0  0  0  0  0  0  0  0  0  0
   13.8853   44.3169    4.6874 C   0  0  0  0  0  0  0  0  0  0  0  0
   14.1618   46.0274    2.9406 C   0  0  0  0  0  0  0  0  0  0  0  0
   15.2428   45.8720    3.8106 C   0  0  0  0  0  0  0  0  0  0  0  0
   15.0292   38.2672   10.4789 N   0  0  0  0  0  0  0  0  0  0  0  0
   15.6223   41.6338    8.7138 N   0  0  0  0  0  0  0  0  0  0  0  0
   15.4491   43.1520    6.9233 N   0  0  0  0  0  0  0  0  0  0  0  0
   13.4375   43.2754    5.5608 N   0  0  0  0  0  0  0  0  0  0  0  0
   15.0861   44.9238    4.7744 N   0  0  0  0  0  0  0  0  0  0  0  0
   17.7999   37.5642   10.9908 O   0  0  0  0  0  0  0  0  0  0  0  0
   12.9794   44.9250    3.4192 S   0  0  0  0  0  0  0  0  0  0  0  0
  1 20  1  0
  1 19  2  0
  2  3  2  0
  4  3  1  6
  4  5  1  0
  5  6  1  0
  6  7  1  0
  7 17  1  0
  8 17  1  0
  8  9  1  0
  9 22  1  0
 10 22  1  0
 11 17  1  0
 11  4  1  0
 12 18  2  0
 13 12  1  0
 14 23  1  0
 15 23  1  0
 16 21  1  0
 20 14  1  0
  1  2  1  0
  3 18  1  0
 12 19  1  0
 14 21  2  0
 15 16  2  0
M  END
>  <rmsd>  (1) 
0.246474966

$$$$
