MolPort-002-790-869 CSC020584203 CSSS00020584203 LN01039988 MCULE-9411463443 PubChem-17161549
     RDKit          3D

 21 22  0  0  0  0  0  0  0  0999 V2000
   15.4424   37.5573    8.5987 C   0  0  0  0  0  0  0  0  0  0  0  0
   14.4375   37.7706    9.7141 C   0  0  0  0  0  0  0  0  0  0  0  0
   14.3478   39.2443   10.0654 C   0  0  2  0  0  0  0  0  0  0  0  0
   13.5429   39.4075   11.3377 C   0  0  0  0  0  0  0  0  0  0  0  0
   14.3358   40.9959    8.3154 C   0  0  0  0  0  0  0  0  0  0  0  0
   15.6440   41.4036    8.6206 C   0  0  0  0  0  0  0  0  0  0  0  0
   16.2408   42.4445    7.9056 C   0  0  0  0  0  0  0  0  0  0  0  0
   15.5346   43.0828    6.8831 C   0  0  0  0  0  0  0  0  0  0  0  0
   14.2266   42.6847    6.5685 C   0  0  0  0  0  0  0  0  0  0  0  0
   13.8984   44.3926    4.6829 C   0  0  0  0  0  0  0  0  0  0  0  0
   13.2348   45.9551    2.7599 C   0  0  0  0  0  0  0  0  0  0  0  0
   14.4530   46.6516    2.7269 C   0  0  0  0  0  0  0  0  0  0  0  0
   14.6530   47.6831    1.8049 C   0  0  0  0  0  0  0  0  0  0  0  0
   13.6365   48.0256    0.9092 C   0  0  0  0  0  0  0  0  0  0  0  0
   12.4211   47.3364    0.9362 C   0  0  0  0  0  0  0  0  0  0  0  0
   12.2225   46.3049    1.8591 C   0  0  0  0  0  0  0  0  0  0  0  0
   13.6368   41.6411    7.2900 C   0  0  0  0  0  0  0  0  0  0  0  0
   13.7108   39.9569    9.0112 O   0  0  0  0  0  0  0  0  0  0  0  0
   15.0489   44.8910    4.8113 O   0  0  0  0  0  0  0  0  0  0  0  0
   13.4699   43.3156    5.5259 N   0  0  0  0  0  0  0  0  0  0  0  0
   12.9921   44.8913    3.6910 N   0  0  0  0  0  0  0  0  0  0  0  0
  1  2  1  0
  3  2  1  0
  3  4  1  1
  3 18  1  0
  5 18  1  0
  6  7  2  0
  8  9  2  0
  9 20  1  0
 10 21  1  0
 12 13  2  0
 14 15  2  0
 16 11  2  0
 17  5  2  0
 20 10  1  0
 21 11  1  0
  5  6  1  0
  7  8  1  0
  9 17  1  0
 10 19  2  0
 11 12  1  0
 13 14  1  0
 15 16  1  0
M  END
>  <rmsd>  (1) 
0.249624521

$$$$
