MolPort-006-609-946 ChemDiv-V017-8348 MCULE-4030383458 PubChem-46070030 ZINC000034735438 ZINC34735438
     RDKit          3D

 32 35  0  0  0  0  0  0  0  0999 V2000
   10.5511   45.7451    0.3479 F   0  0  0  0  0  0  0  0  0  0  0  0
   11.3566   45.4137    1.3846 C   0  0  0  0  0  0  0  0  0  0  0  0
   12.5525   46.1069    1.5916 C   0  0  0  0  0  0  0  0  0  0  0  0
   13.3862   45.7578    2.6581 C   0  0  0  0  0  0  0  0  0  0  0  0
   13.0278   44.7144    3.5263 C   0  0  0  0  0  0  0  0  0  0  0  0
   11.8265   44.0253    3.3101 C   0  0  0  0  0  0  0  0  0  0  0  0
   10.9940   44.3726    2.2442 C   0  0  0  0  0  0  0  0  0  0  0  0
   13.9146   44.3268    4.6389 C   0  0  0  0  0  0  0  0  0  0  0  0
   14.2524   42.7580    6.6433 C   0  0  0  0  0  0  0  0  0  0  0  0
   13.6532   41.7982    7.4654 C   0  0  0  0  0  0  0  0  0  0  0  0
   14.3581   41.2015    8.5246 C   0  0  0  0  0  0  0  0  0  0  0  0
   15.6842   41.6051    8.7571 C   0  0  0  0  0  0  0  0  0  0  0  0
   16.2921   42.5637    7.9424 C   0  0  0  0  0  0  0  0  0  0  0  0
   15.5800   43.1352    6.8856 C   0  0  0  0  0  0  0  0  0  0  0  0
   14.3899   39.8435   10.6337 C   0  0  0  0  0  0  0  0  0  0  0  0
   13.3575   39.5499   11.7131 C   0  0  0  0  0  0  0  0  0  0  0  0
   12.4774   38.3917   11.2654 C   0  0  0  0  0  0  0  0  0  0  0  0
   10.6325   37.9742    9.6290 C   0  0  0  0  0  0  0  0  0  0  0  0
    9.4576   38.8722    9.8224 C   0  0  0  0  0  0  0  0  0  0  0  0
    8.8465   38.9517   11.0791 C   0  0  0  0  0  0  0  0  0  0  0  0
    7.7498   39.7972   11.2728 C   0  0  0  0  0  0  0  0  0  0  0  0
    7.2645   40.5680   10.2107 C   0  0  0  0  0  0  0  0  0  0  0  0
    7.8822   40.4975    8.9560 C   0  0  0  0  0  0  0  0  0  0  0  0
    8.9798   39.6519    8.7619 C   0  0  0  0  0  0  0  0  0  0  0  0
    6.1404   41.4379   10.4074 C   0  0  0  0  0  0  0  0  0  0  0  0
   12.5449   39.4837    8.9952 C   0  0  0  0  0  0  0  0  0  0  0  0
   15.0357   44.8889    4.7729 O   0  0  0  0  0  0  0  0  0  0  0  0
   12.1072   39.5387    7.8128 O   0  0  0  0  0  0  0  0  0  0  0  0
   13.4898   43.3126    5.5631 N   0  0  0  0  0  0  0  0  0  0  0  0
   13.7356   40.2097    9.3748 N   0  0  0  0  0  0  0  0  0  0  0  0
   11.8631   38.6746    9.9710 N   0  0  0  0  0  0  0  0  0  0  0  0
    5.2371   42.1439   10.5604 N   0  0  0  0  0  0  0  0  0  0  0  0
  2  1  1  0
  3  4  2  0
  5  6  2  0
  5  8  1  0
  7  2  2  0
  8 29  1  0
 10 11  2  0
 11 30  1  0
 12 13  2  0
 14  9  2  0
 15 30  1  0
 15 16  1  0
 16 17  1  0
 17 31  1  0
 18 31  1  0
 18 19  1  0
 20 21  2  0
 22 23  2  0
 22 25  1  0
 24 19  2  0
 26 30  1  0
 29  9  1  0
 31 26  1  0
  2  3  1  0
  4  5  1  0
  6  7  1  0
  8 27  2  0
  9 10  1  0
 11 12  1  0
 13 14  1  0
 19 20  1  0
 21 22  1  0
 23 24  1  0
 26 28  2  0
 25 32  3  0
M  END
>  <rmsd>  (1) 
0.236832902

$$$$
