MolPort-005-165-194 11753843 CHEMBL1715566 CSSS00159587229 MCULE-6731775529 PubChem-24791274 ZINC000011753843
     RDKit          3D

 30 33  0  0  0  0  0  0  0  0999 V2000
   13.0702   47.3167    0.8680 F   0  0  0  0  0  0  0  0  0  0  0  0
   12.6502   46.3223    1.6860 C   0  0  0  0  0  0  0  0  0  0  0  0
   11.3888   45.7504    1.4997 C   0  0  0  0  0  0  0  0  0  0  0  0
   10.9551   44.7254    2.3446 C   0  0  0  0  0  0  0  0  0  0  0  0
   11.7830   44.2722    3.3759 C   0  0  0  0  0  0  0  0  0  0  0  0
   13.0503   44.8409    3.5705 C   0  0  0  0  0  0  0  0  0  0  0  0
   13.4775   45.8700    2.7179 C   0  0  0  0  0  0  0  0  0  0  0  0
   13.9221   44.3623    4.6578 C   0  0  0  0  0  0  0  0  0  0  0  0
   14.2121   42.7498    6.6134 C   0  0  0  0  0  0  0  0  0  0  0  0
   15.4848   43.1091    7.0156 C   0  0  0  0  0  0  0  0  0  0  0  0
   15.7265   42.2745    8.1016 C   0  0  0  0  0  0  0  0  0  0  0  0
   12.4274   41.1487    7.3046 C   0  0  0  0  0  0  0  0  0  0  0  0
   12.5452   39.6289    7.1105 C   0  0  0  0  0  0  0  0  0  0  0  0
   12.7192   38.8419    8.4226 C   0  0  0  0  0  0  0  0  0  0  0  0
   12.6245   38.8279   10.7636 C   0  0  0  0  0  0  0  0  0  0  0  0
   13.4090   39.4296   11.9235 C   0  0  0  0  0  0  0  0  0  0  0  0
   14.8962   39.5286   11.5997 C   0  0  0  0  0  0  0  0  0  0  0  0
   15.5394   38.1821   11.5474 C   0  0  0  0  0  0  0  0  0  0  0  0
   15.6524   37.4019   12.7054 C   0  0  0  0  0  0  0  0  0  0  0  0
   16.2681   36.1476   12.6476 C   0  0  0  0  0  0  0  0  0  0  0  0
   16.7735   35.6724   11.4336 C   0  0  0  0  0  0  0  0  0  0  0  0
   16.6654   36.4519   10.2777 C   0  0  0  0  0  0  0  0  0  0  0  0
   16.0508   37.7068   10.3349 C   0  0  0  0  0  0  0  0  0  0  0  0
   11.4512   40.4739    9.5696 C   0  0  0  0  0  0  0  0  0  0  0  0
   11.5355   41.5533    8.4887 C   0  0  0  0  0  0  0  0  0  0  0  0
   15.0625   44.8767    4.8196 O   0  0  0  0  0  0  0  0  0  0  0  0
   13.4690   43.3131    5.5243 N   0  0  0  0  0  0  0  0  0  0  0  0
   14.6553   41.4813    8.3139 N   0  0  0  0  0  0  0  0  0  0  0  0
   13.7435   41.7745    7.4040 N   0  0  0  0  0  0  0  0  0  0  0  0
   12.6883   39.7030    9.6046 N   0  0  0  0  0  0  0  0  0  0  0  0
  2  1  1  0
  3  4  2  0
  5  6  2  0
  6  8  1  0
  7  2  2  0
  8 27  1  0
 10 11  1  0
 12 29  1  0
 12 13  1  0
 13 14  1  0
 14 30  1  0
 15 30  1  0
 15 16  1  0
 16 17  1  0
 17 18  1  0
 19 20  2  0
 21 22  2  0
 23 18  2  0
 24 30  1  0
 24 25  1  0
 25 12  1  0
 27  9  1  0
 29 28  1  0
 29  9  1  0
  2  3  1  0
  4  5  1  0
  6  7  1  0
  8 26  2  0
  9 10  2  0
 11 28  2  0
 18 19  1  0
 20 21  1  0
 22 23  1  0
M  END
>  <rmsd>  (1) 
0.204183966

$$$$
