MolPort-002-840-837 4666441 LN01230451 MCULE-8278033649 PubChem-7314039 ZINC000004666441 ZINC04666441
     RDKit          3D

 27 29  0  0  0  0  0  0  0  0999 V2000
   16.1843   42.1727    5.0714 C   0  0  0  0  0  0  0  0  0  0  0  0
   15.5571   42.2516    6.4213 C   0  0  0  0  0  0  0  0  0  0  0  0
   14.2605   42.7771    6.6177 C   0  0  0  0  0  0  0  0  0  0  0  0
   13.9532   44.2718    4.5829 C   0  0  0  0  0  0  0  0  0  0  0  0
   13.1571   44.5835    3.3735 C   0  0  0  0  0  0  0  0  0  0  0  0
   11.9353   43.9360    3.0861 C   0  0  0  0  0  0  0  0  0  0  0  0
   11.2221   44.2657    1.9289 C   0  0  0  0  0  0  0  0  0  0  0  0
   11.7104   45.2342    1.0502 C   0  0  0  0  0  0  0  0  0  0  0  0
   12.9171   45.8787    1.3246 C   0  0  0  0  0  0  0  0  0  0  0  0
   13.6346   45.5545    2.4782 C   0  0  0  0  0  0  0  0  0  0  0  0
   13.6848   42.7196    7.8907 C   0  0  0  0  0  0  0  0  0  0  0  0
   14.3952   42.1856    8.9672 C   0  0  0  0  0  0  0  0  0  0  0  0
   15.6902   41.6802    8.7803 C   0  0  0  0  0  0  0  0  0  0  0  0
   15.9158   40.7564   11.0773 C   0  0  0  0  0  0  0  0  0  0  0  0
   14.6496   39.9931   11.1773 C   0  0  0  0  0  0  0  0  0  0  0  0
   13.8804   39.9948   12.3587 C   0  0  0  0  0  0  0  0  0  0  0  0
   12.7007   39.2469   12.4286 C   0  0  0  0  0  0  0  0  0  0  0  0
   12.2819   38.4879   11.3337 C   0  0  0  0  0  0  0  0  0  0  0  0
   13.0426   38.4737   10.1633 C   0  0  0  0  0  0  0  0  0  0  0  0
   14.2210   39.2199   10.0877 C   0  0  0  0  0  0  0  0  0  0  0  0
   16.2607   41.7173    7.5054 C   0  0  0  0  0  0  0  0  0  0  0  0
   13.4802   43.3210    5.5454 N   0  0  0  0  0  0  0  0  0  0  0  0
   15.0406   44.8789    4.7865 O   0  0  0  0  0  0  0  0  0  0  0  0
   16.4425   41.1607    9.8424 O   0  0  0  0  0  0  0  0  0  0  0  0
   16.5843   40.9912   12.1187 O   0  0  0  0  0  0  0  0  0  0  0  0
   11.4245   42.9869    3.9091 F   0  0  0  0  0  0  0  0  0  0  0  0
   14.2526   40.7309   13.4357 F   0  0  0  0  0  0  0  0  0  0  0  0
  1  2  1  0
  3 22  1  0
  3 11  2  0
  4  5  1  0
  6 26  1  0
  6  7  2  0
  8  9  2  0
 10  5  2  0
 12 13  2  0
 13 24  1  0
 14 24  1  0
 14 15  1  0
 16 27  1  0
 16 17  2  0
 18 19  2  0
 20 15  2  0
 21  2  2  0
 22  4  1  0
  2  3  1  0
  4 23  2  0
  5  6  1  0
  7  8  1  0
  9 10  1  0
 11 12  1  0
 13 21  1  0
 14 25  2  0
 15 16  1  0
 17 18  1  0
 19 20  1  0
M  END
>  <rmsd>  (1) 
0.239414647

$$$$
