Molport-046-654-148 MCULE-3101607215 PubChem-165827910
     RDKit          3D

 32 36  0  0  0  0  0  0  0  0999 V2000
   13.4114   39.3996   11.2147 C   0  0  0  0  0  0  0  0  0  0  0  0
   14.3321   39.2893   10.0105 C   0  0  1  0  0  0  0  0  0  0  0  0
   14.5534   41.1205    8.3156 C   0  0  0  0  0  0  0  0  0  0  0  0
   13.7859   41.6731    7.3518 C   0  0  0  0  0  0  0  0  0  0  0  0
   14.2823   42.7137    6.5789 C   0  0  0  0  0  0  0  0  0  0  0  0
   16.3179   42.5609    7.8230 C   0  0  0  0  0  0  0  0  0  0  0  0
   13.8838   44.3842    4.6975 C   0  0  0  0  0  0  0  0  0  0  0  0
   13.2888   45.9559    2.8847 C   0  0  0  0  0  0  0  0  0  0  0  0
   13.2578   47.2746    3.6509 C   0  0  0  0  0  0  0  0  0  0  0  0
   13.6886   48.4024    2.7547 C   0  0  0  0  0  0  0  0  0  0  0  0
   12.6729   49.3225    2.5675 C   0  0  0  0  0  0  0  0  0  0  0  0
   12.8443   50.4629    1.7844 C   0  0  0  0  0  0  0  0  0  0  0  0
   14.0949   50.6622    1.1784 C   0  0  0  0  0  0  0  0  0  0  0  0
   15.1365   49.7332    1.3679 C   0  0  0  0  0  0  0  0  0  0  0  0
   14.9393   48.5926    2.1639 C   0  0  0  0  0  0  0  0  0  0  0  0
   11.5182   48.8785    3.3105 C   0  0  0  0  0  0  0  0  0  0  0  0
   11.8405   47.6915    3.9432 C   0  0  0  0  0  0  0  0  0  0  0  0
   10.9105   47.0460    4.7608 C   0  0  0  0  0  0  0  0  0  0  0  0
    9.6385   47.6228    4.9126 C   0  0  0  0  0  0  0  0  0  0  0  0
    9.3172   48.8280    4.2585 C   0  0  0  0  0  0  0  0  0  0  0  0
   10.2645   49.4722    3.4471 C   0  0  0  0  0  0  0  0  0  0  0  0
   12.6679   40.1292    8.2879 C   0  0  0  0  0  0  0  0  0  0  0  0
   14.4677   37.8698    9.5606 C   0  0  0  0  0  0  0  0  0  0  0  0
   13.8711   40.1450    8.9215 N   0  0  0  0  0  0  0  0  0  0  0  0
   15.5569   43.1391    6.8381 N   0  0  0  0  0  0  0  0  0  0  0  0
   15.8162   41.5363    8.5767 N   0  0  0  0  0  0  0  0  0  0  0  0
   13.4792   43.3103    5.5532 N   0  0  0  0  0  0  0  0  0  0  0  0
   12.5831   41.0703    7.3050 N   0  0  0  0  0  0  0  0  0  0  0  0
   12.9815   44.8663    3.7471 O   0  0  0  0  0  0  0  0  0  0  0  0
   15.0363   44.8879    4.7959 O   0  0  0  0  0  0  0  0  0  0  0  0
   15.7222   37.2766    9.5336 O   0  0  0  0  0  0  0  0  0  0  0  0
   13.4568   37.2103    9.1997 O   0  0  0  0  0  0  0  0  0  0  0  0
  2  1  1  1
  2 24  1  0
  2 23  1  0
  3 26  2  0
  4  5  2  0
  4 28  1  0
  5 27  1  0
  6 25  2  0
  7 29  1  0
  8 29  1  0
  8  9  1  0
  9 10  1  0
  9 17  1  0
 10 11  2  0
 11 16  1  0
 12 13  2  0
 14 15  2  0
 17 18  2  0
 19 20  2  0
 21 16  2  0
 22 24  1  0
 23 31  1  0
 24  3  1  0
 27  7  1  0
  3  4  1  0
  5 25  1  0
  6 26  1  0
  7 30  2  0
 11 12  1  0
 13 14  1  0
 15 10  1  0
 16 17  1  0
 18 19  1  0
 20 21  1  0
 22 28  2  0
 23 32  2  0
M  END
>  <rmsd>  (1) 
0.249151543

$$$$
