MolPort-039-106-887 CSSS00159907408 MCULE-2942752432 PubChem-118767861
     RDKit          3D

 26 29  0  0  0  0  0  0  0  0999 V2000
   12.2312   46.2655    1.8406 C   0  0  0  0  0  0  0  0  0  0  0  0
   13.4476   45.8280    2.6338 C   0  0  2  0  0  0  0  0  0  0  0  0
   13.9199   44.3613    4.6473 C   0  0  0  0  0  0  0  0  0  0  0  0
   14.1920   42.7420    6.6165 C   0  0  0  0  0  0  0  0  0  0  0  0
   13.5805   41.7343    7.3701 C   0  0  0  0  0  0  0  0  0  0  0  0
   14.2486   41.1397    8.4456 C   0  0  0  0  0  0  0  0  0  0  0  0
   14.1774   39.4993   10.3086 C   0  0  0  0  0  0  0  0  0  0  0  0
   13.4135   38.2242   10.6199 C   0  0  0  0  0  0  0  0  0  0  0  0
   12.7116   38.4506   11.9417 C   0  0  0  0  0  0  0  0  0  0  0  0
   13.5078   39.5270   12.6385 C   0  0  0  0  0  0  0  0  0  0  0  0
   14.0478   40.3983   11.5280 C   0  0  0  0  0  0  0  0  0  0  0  0
   15.5488   41.5606    8.7667 C   0  0  0  0  0  0  0  0  0  0  0  0
   16.1674   42.5655    8.0196 C   0  0  0  0  0  0  0  0  0  0  0  0
   15.4913   43.1542    6.9482 C   0  0  0  0  0  0  0  0  0  0  0  0
   14.5057   45.3101    1.7112 C   0  0  0  0  0  0  0  0  0  0  0  0
   14.3736   44.1784    0.8865 C   0  0  0  0  0  0  0  0  0  0  0  0
   17.3663   43.6631   -0.9026 C   0  0  0  0  0  0  0  0  0  0  0  0
   16.3153   45.0932    0.6975 C   0  0  0  0  0  0  0  0  0  0  0  0
   13.0600   44.8040    3.5952 N   0  0  0  0  0  0  0  0  0  0  0  0
   13.4672   43.3208    5.5225 N   0  0  0  0  0  0  0  0  0  0  0  0
   15.5599   44.1126    0.2796 N   0  0  0  0  0  0  0  0  0  0  0  0
   16.0883   43.2851   -0.6088 N   0  0  0  0  0  0  0  0  0  0  0  0
   15.7346   45.8958    1.6003 N   0  0  0  0  0  0  0  0  0  0  0  0
   15.0563   44.8867    4.7984 O   0  0  0  0  0  0  0  0  0  0  0  0
   13.6015   40.1341    9.1719 O   0  0  0  0  0  0  0  0  0  0  0  0
   17.8260   45.0688   -0.0162 S   0  0  0  0  0  0  0  0  0  0  0  0
  2  1  1  6
  2 19  1  0
  2 15  1  0
  3 20  1  0
  5  6  2  0
  6 25  1  0
  7 25  1  0
  7  8  1  0
  8  9  1  0
  9 10  1  0
 10 11  1  0
 11  7  1  0
 12 13  2  0
 14  4  2  0
 15 23  1  0
 16 21  1  0
 17 26  1  0
 18 26  1  0
 18 21  1  0
 19  3  1  0
 20  4  1  0
 21 22  1  0
  3 24  2  0
  4  5  1  0
  6 12  1  0
 13 14  1  0
 15 16  2  0
 17 22  2  0
 18 23  2  0
M  END
>  <rmsd>  (1) 
0.248533726

$$$$
