MolPort-046-180-079 1506401081 CSSS00159964284 MCULE-5925653636 PubChem-132409780 ZINC001506401081
     RDKit          3D

 25 26  0  0  0  0  0  0  0  0999 V2000
   14.0601   41.6040   12.3781 C   0  0  0  0  0  0  0  0  0  0  0  0
   13.7030   40.2829   11.7837 C   0  0  0  0  0  0  0  0  0  0  0  0
   12.4412   39.8595   11.4223 C   0  0  0  0  0  0  0  0  0  0  0  0
   12.6348   38.5838   10.9210 C   0  0  0  0  0  0  0  0  0  0  0  0
   16.0134   39.3304   11.7294 C   0  0  0  0  0  0  0  0  0  0  0  0
   11.5847   37.6757   10.3848 C   0  0  0  0  0  0  0  0  0  0  0  0
   11.1626   40.6342   11.5052 C   0  0  0  0  0  0  0  0  0  0  0  0
    9.6527   40.3228    9.5381 C   0  0  0  0  0  0  0  0  0  0  0  0
   11.3825   42.1484    9.5062 C   0  0  0  0  0  0  0  0  0  0  0  0
   11.1797   42.3907    8.0449 C   0  0  0  0  0  0  0  0  0  0  0  0
   13.6566   41.6970    7.3867 C   0  0  0  0  0  0  0  0  0  0  0  0
   14.3845   41.1097    8.4275 C   0  0  0  0  0  0  0  0  0  0  0  0
   15.6788   41.5453    8.7169 C   0  0  0  0  0  0  0  0  0  0  0  0
   16.2539   42.5690    7.9624 C   0  0  0  0  0  0  0  0  0  0  0  0
   15.5347   43.1542    6.9174 C   0  0  0  0  0  0  0  0  0  0  0  0
   14.2327   42.7242    6.6163 C   0  0  0  0  0  0  0  0  0  0  0  0
   13.9045   44.3686    4.6723 C   0  0  0  0  0  0  0  0  0  0  0  0
   12.9806   44.8528    3.6143 C   0  0  0  0  0  0  0  0  0  0  0  0
   13.9423   38.2610   10.9829 N   0  0  0  0  0  0  0  0  0  0  0  0
   14.5779   39.2971   11.5073 N   0  0  0  0  0  0  0  0  0  0  0  0
   10.7353   41.0550   10.1767 N   0  0  0  0  0  0  0  0  0  0  0  0
   13.4794   43.3146    5.5451 N   0  0  0  0  0  0  0  0  0  0  0  0
   12.1575   42.9111   10.1424 O   0  0  0  0  0  0  0  0  0  0  0  0
   15.0439   44.8930    4.7839 O   0  0  0  0  0  0  0  0  0  0  0  0
   11.9970   41.0985    7.0500 S   0  0  0  0  0  0  0  0  0  0  0  0
  1  2  1  0
  3  4  1  0
  5 20  1  0
  6  4  1  0
  7  3  1  0
  7 21  1  0
  8 21  1  0
 10  9  1  0
 10 25  1  0
 11 25  1  0
 12 13  2  0
 14 15  2  0
 16 22  1  0
 16 11  2  0
 18 17  1  0
 20 19  1  0
 20  2  1  0
 21  9  1  0
 22 17  1  0
  2  3  2  0
  4 19  2  0
  9 23  2  0
 11 12  1  0
 13 14  1  0
 15 16  1  0
 17 24  2  0
M  END
>  <rmsd>  (1) 
0.231939062

$$$$
