MolPort-005-103-567 12481498 CSSS00159780969 MCULE-5989226260 PubChem-25313221 ZINC000012481498
     RDKit          3D

 33 38  0  0  0  0  0  0  0  0999 V2000
   14.3415   42.7699    6.6335 C   0  0  0  0  0  0  0  0  0  0  0  0
   15.6294   43.1621    6.9467 C   0  0  0  0  0  0  0  0  0  0  0  0
   15.9588   42.3502    8.0271 C   0  0  0  0  0  0  0  0  0  0  0  0
   12.6397   41.1538    7.4767 C   0  0  0  0  0  0  0  0  0  0  0  0
   12.7924   39.6414    7.4446 C   0  0  0  0  0  0  0  0  0  0  0  0
   11.4163   38.9770    7.4474 C   0  0  0  0  0  0  0  0  0  0  0  0
   10.4927   40.8933    8.7257 C   0  0  0  0  0  0  0  0  0  0  0  0
   11.8677   41.5579    8.7219 C   0  0  0  0  0  0  0  0  0  0  0  0
   10.7514   38.6924    9.8101 C   0  0  0  0  0  0  0  0  0  0  0  0
   12.0997   38.8735   10.4468 C   0  0  0  0  0  0  0  0  0  0  0  0
   13.1091   38.0000   10.1959 C   0  0  0  0  0  0  0  0  0  0  0  0
   14.4185   38.1550   10.9842 C   0  0  0  0  0  0  0  0  0  0  0  0
   14.3103   39.3148   12.0299 C   0  0  2  0  0  0  0  0  0  0  0  0
   12.9597   39.2106   12.7593 C   0  0  0  0  0  0  0  0  0  0  0  0
   12.4566   37.8082   13.1181 C   0  0  0  0  0  0  0  0  0  0  0  0
   12.9256   40.0951   14.0003 C   0  0  0  0  0  0  0  0  0  0  0  0
   12.3201   39.9148   11.5483 C   0  0  1  0  0  0  0  0  0  0  0  0
   13.7120   40.4778   11.2326 C   0  0  0  0  0  0  0  0  0  0  0  0
   13.8800   44.3580    4.6905 C   0  0  0  0  0  0  0  0  0  0  0  0
   12.9169   44.8182    3.6752 C   0  0  0  0  0  0  0  0  0  0  0  0
   11.6374   44.2173    3.5843 C   0  0  0  0  0  0  0  0  0  0  0  0
   10.7072   44.6433    2.6193 C   0  0  0  0  0  0  0  0  0  0  0  0
   11.0939   45.6719    1.7655 C   0  0  0  0  0  0  0  0  0  0  0  0
   12.3167   46.2541    1.8461 C   0  0  0  0  0  0  0  0  0  0  0  0
   11.1889   47.2772    0.1513 C   0  0  0  0  0  0  0  0  0  0  0  0
   13.2635   45.8591    2.7873 C   0  0  0  0  0  0  0  0  0  0  0  0
   14.9208   41.5386    8.3213 N   0  0  0  0  0  0  0  0  0  0  0  0
   13.9476   41.7974    7.4664 N   0  0  0  0  0  0  0  0  0  0  0  0
   10.5616   39.4337    8.5552 N   0  0  0  0  0  0  0  0  0  0  0  0
   13.5137   43.3056    5.5932 N   0  0  0  0  0  0  0  0  0  0  0  0
   15.0216   44.8901    4.7586 O   0  0  0  0  0  0  0  0  0  0  0  0
   12.4222   47.2376    0.8832 O   0  0  0  0  0  0  0  0  0  0  0  0
   10.3708   46.2598    0.7469 O   0  0  0  0  0  0  0  0  0  0  0  0
  1 30  1  0
  2  3  1  0
  4 28  1  0
  4  5  1  0
  5  6  1  0
  6 29  1  0
  7 29  1  0
  7  8  1  0
  8  4  1  0
  9 29  1  0
  9 10  1  0
 12 11  1  0
 13 12  1  6
 13 14  1  0
 14 15  1  0
 14 16  1  0
 17 14  1  0
 17 18  1  6
 17 10  1  0
 18 13  1  0
 19 20  1  0
 20 21  2  0
 22 23  2  0
 23 33  1  0
 24 32  1  0
 24 26  2  0
 25 32  1  0
 25 33  1  0
 28 27  1  0
 28  1  1  0
 30 19  1  0
  1  2  2  0
  3 27  2  0
 10 11  2  0
 19 31  2  0
 21 22  1  0
 23 24  1  0
 26 20  1  0
M  END
>  <rmsd>  (1) 
0.182944775

$$$$
