Molport-005-262-082 PubChem-43131503
     RDKit          3D

 16 16  0  0  0  0  0  0  0  0999 V2000
   13.5164   39.3673   11.3508 C   0  0  0  0  0  0  0  0  0  0  0  0
   14.3554   39.2677   10.0911 C   0  0  1  0  0  0  0  0  0  0  0  0
   14.5568   37.8402    9.7074 C   0  0  0  0  0  0  0  0  0  0  0  0
   14.3417   41.0078    8.3309 C   0  0  0  0  0  0  0  0  0  0  0  0
   15.6496   41.4184    8.6334 C   0  0  0  0  0  0  0  0  0  0  0  0
   16.2446   42.4568    7.9134 C   0  0  0  0  0  0  0  0  0  0  0  0
   15.5371   43.0898    6.8886 C   0  0  0  0  0  0  0  0  0  0  0  0
   14.2294   42.6887    6.5766 C   0  0  0  0  0  0  0  0  0  0  0  0
   13.6412   41.6475    7.3030 C   0  0  0  0  0  0  0  0  0  0  0  0
   13.9023   44.3882    4.6858 C   0  0  0  0  0  0  0  0  0  0  0  0
   12.9760   44.9134    3.6497 C   0  0  0  0  0  0  0  0  0  0  0  0
   13.5744   37.1164    9.3947 O   0  0  0  0  0  0  0  0  0  0  0  0
   15.8390   37.3090    9.6868 O   0  0  0  0  0  0  0  0  0  0  0  0
   13.7182   39.9716    9.0319 O   0  0  0  0  0  0  0  0  0  0  0  0
   15.0489   44.8953    4.8029 O   0  0  0  0  0  0  0  0  0  0  0  0
   13.4718   43.3143    5.5318 N   0  0  0  0  0  0  0  0  0  0  0  0
  2  1  1  1
  2  3  1  0
  2 14  1  0
  3 13  1  0
  4 14  1  0
  5  6  2  0
  7  8  2  0
  8 16  1  0
  9  4  2  0
 11 10  1  0
 16 10  1  0
  3 12  2  0
  4  5  1  0
  6  7  1  0
  8  9  1  0
 10 15  2  0
M  END
>  <rmsd>  (1) 
0.241259858

$$$$
