MolPort-046-174-258 1506397468 CSSS00159951851 MCULE-2819532415 PubChem-132418381 ZINC001506397468
     RDKit          3D

 26 28  0  0  0  0  0  0  0  0999 V2000
   11.3999   42.2490    3.1065 C   0  0  0  0  0  0  0  0  0  0  0  0
   12.3545   42.9613    2.2063 C   0  0  0  0  0  0  0  0  0  0  0  0
   12.7674   42.5654    0.9414 C   0  0  0  0  0  0  0  0  0  0  0  0
   13.6493   43.5678    0.5509 C   0  0  0  0  0  0  0  0  0  0  0  0
   12.8452   44.8611    3.7634 C   0  0  0  0  0  0  0  0  0  0  0  0
   13.8600   44.3753    4.7397 C   0  0  0  0  0  0  0  0  0  0  0  0
   14.4213   42.6804    6.5567 C   0  0  0  0  0  0  0  0  0  0  0  0
   15.7494   43.0054    6.7630 C   0  0  0  0  0  0  0  0  0  0  0  0
   16.1390   42.1376    7.7767 C   0  0  0  0  0  0  0  0  0  0  0  0
   12.7236   41.1104    7.4959 C   0  0  0  0  0  0  0  0  0  0  0  0
   12.7706   39.5748    7.5312 C   0  0  0  0  0  0  0  0  0  0  0  0
   13.0216   38.9877    8.9326 C   0  0  0  0  0  0  0  0  0  0  0  0
   11.9501   40.8489    9.9229 C   0  0  0  0  0  0  0  0  0  0  0  0
   11.9588   41.7329    8.6734 C   0  0  0  0  0  0  0  0  0  0  0  0
   13.1336   39.3326   11.2433 C   0  0  0  0  0  0  0  0  0  0  0  0
   14.4026   43.6450   -0.7324 C   0  0  0  0  0  0  0  0  0  0  0  0
   12.3778   41.3598    0.1762 C   0  0  0  0  0  0  0  0  0  0  0  0
   11.4821   40.3241    0.7644 C   0  0  0  0  0  0  0  0  0  0  0  0
   13.7571   44.4963    1.5218 N   0  0  0  0  0  0  0  0  0  0  0  0
   12.9643   44.1242    2.5135 N   0  0  0  0  0  0  0  0  0  0  0  0
   13.5291   43.2921    5.6163 N   0  0  0  0  0  0  0  0  0  0  0  0
   15.0955   41.3586    8.1352 N   0  0  0  0  0  0  0  0  0  0  0  0
   14.0613   41.6878    7.3816 N   0  0  0  0  0  0  0  0  0  0  0  0
   13.1475   40.0183    9.9651 N   0  0  0  0  0  0  0  0  0  0  0  0
   15.0036   44.9038    4.7599 O   0  0  0  0  0  0  0  0  0  0  0  0
   12.8060   41.1886   -0.9950 O   0  0  0  0  0  0  0  0  0  0  0  0
  1  2  1  0
  3  4  1  0
  3 17  1  0
  5 20  1  0
  5  6  1  0
  6 21  1  0
  8  9  1  0
 10 23  1  0
 10 11  1  0
 11 12  1  0
 12 24  1  0
 13 24  1  0
 13 14  1  0
 14 10  1  0
 15 24  1  0
 16  4  1  0
 18 17  1  0
 20 19  1  0
 20  2  1  0
 21  7  1  0
 23 22  1  0
 23  7  1  0
  2  3  2  0
  4 19  2  0
  6 25  2  0
  7  8  2  0
  9 22  2  0
 17 26  2  0
M  END
>  <rmsd>  (1) 
0.248302877

$$$$
