MolPort-005-127-121 14980547 CHEMBL1502375 CSSS00159539851 PubChem-24817414 ZINC000014980547
     RDKit          3D

 27 29  0  0  0  0  0  0  0  0999 V2000
    8.8823   45.7111    0.6324 C   0  0  0  0  0  0  0  0  0  0  0  0
   11.0820   45.7613    1.7623 C   0  0  0  0  0  0  0  0  0  0  0  0
   10.7312   44.7223    2.6389 C   0  0  0  0  0  0  0  0  0  0  0  0
   11.6442   44.2684    3.5945 C   0  0  0  0  0  0  0  0  0  0  0  0
   12.9184   44.8451    3.6876 C   0  0  0  0  0  0  0  0  0  0  0  0
   13.2659   45.8828    2.8108 C   0  0  0  0  0  0  0  0  0  0  0  0
   12.3529   46.3370    1.8549 C   0  0  0  0  0  0  0  0  0  0  0  0
   13.8804   44.3657    4.6956 C   0  0  0  0  0  0  0  0  0  0  0  0
   14.3412   42.7413    6.6080 C   0  0  0  0  0  0  0  0  0  0  0  0
   15.6349   43.1168    6.9182 C   0  0  0  0  0  0  0  0  0  0  0  0
   15.9727   42.2692    7.9684 C   0  0  0  0  0  0  0  0  0  0  0  0
   12.6528   41.0846    7.3997 C   0  0  0  0  0  0  0  0  0  0  0  0
   11.9556   41.2638    8.7388 C   0  0  0  0  0  0  0  0  0  0  0  0
   10.5973   40.5647    8.7219 C   0  0  0  0  0  0  0  0  0  0  0  0
   10.9933   38.2355    9.4339 C   0  0  0  0  0  0  0  0  0  0  0  0
   12.3930   38.3461    9.9694 C   0  0  0  0  0  0  0  0  0  0  0  0
   13.4525   37.4428    9.4196 C   0  0  0  0  0  0  0  0  0  0  0  0
   12.6293   39.1435   11.0182 C   0  0  0  0  0  0  0  0  0  0  0  0
   13.9731   39.2672   11.6621 C   0  0  0  0  0  0  0  0  0  0  0  0
   11.4661   38.9044    7.1002 C   0  0  0  0  0  0  0  0  0  0  0  0
   12.8260   39.6018    7.1111 C   0  0  0  0  0  0  0  0  0  0  0  0
   10.1920   46.2378    0.7960 O   0  0  0  0  0  0  0  0  0  0  0  0
   15.0243   44.8918    4.7708 O   0  0  0  0  0  0  0  0  0  0  0  0
   13.5093   43.3036    5.5850 N   0  0  0  0  0  0  0  0  0  0  0  0
   14.9345   41.4526    8.2478 N   0  0  0  0  0  0  0  0  0  0  0  0
   13.9507   41.7476    7.4170 N   0  0  0  0  0  0  0  0  0  0  0  0
   10.6870   39.1512    8.3240 N   0  0  0  0  0  0  0  0  0  0  0  0
  1 22  1  0
  2 22  1  0
  3  4  2  0
  5  6  2  0
  5  8  1  0
  7  2  2  0
  8 24  1  0
 10 11  1  0
 12 26  1  0
 12 13  1  0
 13 14  1  0
 14 27  1  0
 15 27  1  0
 15 16  1  0
 17 16  1  0
 19 18  1  0
 20 27  1  0
 20 21  1  0
 21 12  1  0
 24  9  1  0
 26 25  1  0
 26  9  1  0
  2  3  1  0
  4  5  1  0
  6  7  1  0
  8 23  2  0
  9 10  2  0
 11 25  2  0
 16 18  2  0
M  END
>  <rmsd>  (1) 
0.167569205

$$$$
