Molport-047-869-455 PubChem-165915902
     RDKit          3D

 18 19  0  0  0  0  0  0  0  0999 V2000
   13.4072   39.4028   11.2162 C   0  0  0  0  0  0  0  0  0  0  0  0
   14.3232   39.2845   10.0097 C   0  0  1  0  0  0  0  0  0  0  0  0
   14.4356   37.8641    9.5611 C   0  0  0  0  0  0  0  0  0  0  0  0
   12.6586   40.1325    8.2917 C   0  0  0  0  0  0  0  0  0  0  0  0
   13.7818   41.6709    7.3527 C   0  0  0  0  0  0  0  0  0  0  0  0
   14.2814   42.7089    6.5783 C   0  0  0  0  0  0  0  0  0  0  0  0
   16.3196   42.5457    7.8167 C   0  0  0  0  0  0  0  0  0  0  0  0
   14.5491   41.1143    8.3144 C   0  0  0  0  0  0  0  0  0  0  0  0
   13.8894   44.3809    4.6983 C   0  0  0  0  0  0  0  0  0  0  0  0
   12.9433   44.9013    3.6776 C   0  0  0  0  0  0  0  0  0  0  0  0
   15.5645   37.3101    9.5243 O   0  0  0  0  0  0  0  0  0  0  0  0
   13.3052   37.1521    9.1778 O   0  0  0  0  0  0  0  0  0  0  0  0
   15.0370   44.8904    4.7949 O   0  0  0  0  0  0  0  0  0  0  0  0
   13.8637   40.1422    8.9221 N   0  0  0  0  0  0  0  0  0  0  0  0
   12.5759   41.0741    7.3090 N   0  0  0  0  0  0  0  0  0  0  0  0
   15.5590   43.1276    6.8338 N   0  0  0  0  0  0  0  0  0  0  0  0
   15.8148   41.5236    8.5720 N   0  0  0  0  0  0  0  0  0  0  0  0
   13.4793   43.3091    5.5539 N   0  0  0  0  0  0  0  0  0  0  0  0
  2  1  1  1
  2  3  1  0
  2 14  1  0
  3 12  1  0
  5 15  1  0
  6 16  2  0
  6 18  1  0
  7 17  2  0
  8 14  1  0
  8  5  2  0
 10  9  1  0
 14  4  1  0
 18  9  1  0
  3 11  2  0
  4 15  2  0
  5  6  1  0
  7 16  1  0
  8 17  1  0
  9 13  2  0
M  END
>  <rmsd>  (1) 
0.24938564

$$$$
