MolPort-023-255-931 77376000 CSSS00159601466 MCULE-3572694941 PubChem-70730494 ZINC000077376000 ZINC77376000
     RDKit          3D

 26 29  0  0  0  0  0  0  0  0999 V2000
   16.1895   42.1810    5.0776 C   0  0  0  0  0  0  0  0  0  0  0  0
   15.5562   42.2529    6.4251 C   0  0  0  0  0  0  0  0  0  0  0  0
   14.2577   42.7745    6.6186 C   0  0  0  0  0  0  0  0  0  0  0  0
   13.9548   44.2759    4.5909 C   0  0  0  0  0  0  0  0  0  0  0  0
   13.1443   44.5785    3.4072 C   0  0  0  0  0  0  0  0  0  0  0  0
   13.4711   45.4863    2.4218 C   0  0  0  0  0  0  0  0  0  0  0  0
   12.4189   45.4274    1.5245 C   0  0  0  0  0  0  0  0  0  0  0  0
   11.5268   44.4923    2.0213 C   0  0  0  0  0  0  0  0  0  0  0  0
   13.6789   42.7142    7.8900 C   0  0  0  0  0  0  0  0  0  0  0  0
   14.3864   42.1787    8.9678 C   0  0  0  0  0  0  0  0  0  0  0  0
   15.6789   41.6705    8.7852 C   0  0  0  0  0  0  0  0  0  0  0  0
   16.2570   41.7176    7.5099 C   0  0  0  0  0  0  0  0  0  0  0  0
   17.7305   41.4324   10.1243 C   0  0  0  0  0  0  0  0  0  0  0  0
   18.0754   40.8765   11.3415 C   0  0  0  0  0  0  0  0  0  0  0  0
   16.0124   40.4451   10.9676 C   0  0  0  0  0  0  0  0  0  0  0  0
   14.6807   39.8260   11.1302 C   0  0  0  0  0  0  0  0  0  0  0  0
   14.1665   39.6046   12.4137 C   0  0  0  0  0  0  0  0  0  0  0  0
   12.2285   38.5711   11.5118 C   0  0  0  0  0  0  0  0  0  0  0  0
   12.7099   38.7523   10.2144 C   0  0  0  0  0  0  0  0  0  0  0  0
   13.9441   39.3759   10.0280 C   0  0  0  0  0  0  0  0  0  0  0  0
   13.4798   43.3203    5.5454 N   0  0  0  0  0  0  0  0  0  0  0  0
   16.4323   41.1603    9.8974 N   0  0  0  0  0  0  0  0  0  0  0  0
   16.9972   40.2610   11.8682 N   0  0  0  0  0  0  0  0  0  0  0  0
   12.9617   38.9943   12.5760 N   0  0  0  0  0  0  0  0  0  0  0  0
   15.0430   44.8839    4.7815 O   0  0  0  0  0  0  0  0  0  0  0  0
   11.9958   44.0084    3.1459 O   0  0  0  0  0  0  0  0  0  0  0  0
  1  2  1  0
  3 21  1  0
  3  9  2  0
  4  5  1  0
  5 26  1  0
  6  7  1  0
  8 26  1  0
 10 11  2  0
 11 22  1  0
 12  2  2  0
 14 23  1  0
 15 16  1  0
 15 22  1  0
 17 24  2  0
 18 19  2  0
 20 16  2  0
 21  4  1  0
 22 13  1  0
  2  3  1  0
  4 25  2  0
  5  6  2  0
  7  8  2  0
  9 10  1  0
 11 12  1  0
 13 14  2  0
 15 23  2  0
 16 17  1  0
 18 24  1  0
 19 20  1  0
M  END
>  <rmsd>  (1) 
0.239984035

$$$$
