MolPort-045-953-891 CSSS00160216300 MCULE-4434783732
     RDKit          3D

 26 28  0  0  0  0  0  0  0  0999 V2000
   12.8930   43.5148    2.5211 C   0  0  0  0  0  0  0  0  0  0  0  0
   13.1146   44.7059    3.4327 C   0  0  0  0  0  0  0  0  0  0  0  0
   11.7790   45.2633    3.8853 C   0  0  0  0  0  0  0  0  0  0  0  0
   13.9429   44.3127    4.6100 C   0  0  0  0  0  0  0  0  0  0  0  0
   14.2604   42.7280    6.5630 C   0  0  0  0  0  0  0  0  0  0  0  0
   13.7430   42.7012    7.8619 C   0  0  0  0  0  0  0  0  0  0  0  0
   14.4731   42.1264    8.9036 C   0  0  0  0  0  0  0  0  0  0  0  0
   15.7251   41.5486    8.6538 C   0  0  0  0  0  0  0  0  0  0  0  0
   16.0283   40.5986   11.0036 C   0  0  0  0  0  0  0  0  0  0  0  0
   14.7198   39.9359   11.1866 C   0  0  0  0  0  0  0  0  0  0  0  0
   14.1082   39.9262   12.4653 C   0  0  0  0  0  0  0  0  0  0  0  0
   12.8744   39.2828   12.6734 C   0  0  0  0  0  0  0  0  0  0  0  0
   12.2888   38.6548   11.5786 C   0  0  0  0  0  0  0  0  0  0  0  0
   11.0610   37.5901   10.2459 C   0  0  0  0  0  0  0  0  0  0  0  0
    9.9243   36.7963    9.7085 C   0  0  0  0  0  0  0  0  0  0  0  0
   12.8739   38.6478   10.3506 C   0  0  0  0  0  0  0  0  0  0  0  0
   14.0939   39.2717   10.1091 C   0  0  0  0  0  0  0  0  0  0  0  0
   16.2389   41.5600    7.3548 C   0  0  0  0  0  0  0  0  0  0  0  0
   15.5152   42.1351    6.3052 C   0  0  0  0  0  0  0  0  0  0  0  0
   15.0476   44.8867    4.8040 O   0  0  0  0  0  0  0  0  0  0  0  0
   16.7696   40.7863   12.0047 O   0  0  0  0  0  0  0  0  0  0  0  0
   13.4679   43.3191    5.5271 N   0  0  0  0  0  0  0  0  0  0  0  0
   16.5123   40.9841    9.7095 N   0  0  0  0  0  0  0  0  0  0  0  0
   11.1279   37.9857   11.5436 N   0  0  0  0  0  0  0  0  0  0  0  0
   12.1127   37.9742    9.4770 N   0  0  0  0  0  0  0  0  0  0  0  0
   16.1744   42.0001    4.6821 Cl  0  0  0  0  0  0  0  0  0  0  0  0
  1  2  1  0
  2  3  1  0
  2  4  1  0
  4 22  1  0
  6  7  2  0
  8 23  1  0
  8 18  2  0
  9 10  1  0
 11 12  2  0
 13 24  1  0
 15 14  1  0
 16 25  1  0
 16 13  2  0
 17 10  2  0
 19 26  1  0
 19  5  2  0
 22  5  1  0
 23  9  1  0
 24 14  1  0
  4 20  2  0
  5  6  1  0
  7  8  1  0
  9 21  2  0
 10 11  1  0
 12 13  1  0
 14 25  2  0
 16 17  1  0
 18 19  1  0
M  END
>  <rmsd>  (1) 
0.240554988

$$$$
