MolPort-020-275-231 MCULE-7586230728 PubChem-110252908
     RDKit          3D

 26 28  0  0  0  0  0  0  0  0999 V2000
   12.3157   46.1293    1.7980 C   0  0  0  0  0  0  0  0  0  0  0  0
   13.2915   45.7108    2.8376 C   0  0  0  0  0  0  0  0  0  0  0  0
   14.5379   46.3296    2.9128 C   0  0  0  0  0  0  0  0  0  0  0  0
   15.4252   45.9091    3.9013 C   0  0  0  0  0  0  0  0  0  0  0  0
   13.8444   44.3245    4.6745 C   0  0  0  0  0  0  0  0  0  0  0  0
   14.2363   42.7231    6.6488 C   0  0  0  0  0  0  0  0  0  0  0  0
   14.3865   41.1625    8.4325 C   0  0  0  0  0  0  0  0  0  0  0  0
   15.6807   41.6147    8.7184 C   0  0  0  0  0  0  0  0  0  0  0  0
   15.5310   43.1703    6.9415 C   0  0  0  0  0  0  0  0  0  0  0  0
   13.7488   40.0701    9.2298 C   0  0  2  0  0  0  0  0  0  0  0  0
   13.6029   40.4717   10.6998 C   0  0  0  0  0  0  0  0  0  0  0  0
   12.9326   39.3522   11.4933 C   0  0  0  0  0  0  0  0  0  0  0  0
   13.7451   38.0666   11.3702 C   0  0  0  0  0  0  0  0  0  0  0  0
   14.5364   38.7658    9.0996 C   0  0  0  0  0  0  0  0  0  0  0  0
   13.5252   36.4779    9.4313 C   0  0  0  0  0  0  0  0  0  0  0  0
   13.7188   36.1461    7.9890 C   0  0  0  0  0  0  0  0  0  0  0  0
   15.1400   35.5567    6.4091 C   0  0  0  0  0  0  0  0  0  0  0  0
   16.7645   46.5423    4.0167 C   0  0  0  0  0  0  0  0  0  0  0  0
   15.0657   44.9199    4.7600 N   0  0  0  0  0  0  0  0  0  0  0  0
   12.9687   44.7247    3.7148 N   0  0  0  0  0  0  0  0  0  0  0  0
   13.4600   43.2797    5.5783 N   0  0  0  0  0  0  0  0  0  0  0  0
   13.6996   41.7286    7.4051 N   0  0  0  0  0  0  0  0  0  0  0  0
   16.2225   42.6077    7.9668 N   0  0  0  0  0  0  0  0  0  0  0  0
   13.9382   37.7472    9.9584 N   0  0  0  0  0  0  0  0  0  0  0  0
   13.0172   35.6109   10.1916 O   0  0  0  0  0  0  0  0  0  0  0  0
   14.9999   35.6310    7.7941 O   0  0  0  0  0  0  0  0  0  0  0  0
  1  2  1  0
  2 20  2  0
  3  4  2  0
  5 19  2  0
  5 21  1  0
  7 22  2  0
  8 23  2  0
  9  6  2  0
 10  7  1  6
 10 11  1  0
 11 12  1  0
 12 13  1  0
 13 24  1  0
 14 24  1  0
 14 10  1  0
 16 15  1  0
 16 26  1  0
 17 26  1  0
 18  4  1  0
 21  6  1  0
 24 15  1  0
  2  3  1  0
  4 19  1  0
  5 20  1  0
  6 22  1  0
  7  8  1  0
  9 23  1  0
 15 25  2  0
M  END
>  <rmsd>  (1) 
0.240365282

$$$$
