MolPort-020-298-668 MCULE-1816645541 PubChem-110269813
     RDKit          3D

 22 24  0  0  0  0  0  0  0  0999 V2000
   14.0354   46.9598    1.8904 C   0  0  0  0  0  0  0  0  0  0  0  0
   14.1262   45.9907    3.0133 C   0  0  0  0  0  0  0  0  0  0  0  0
   13.8698   44.3152    4.6989 C   0  0  0  0  0  0  0  0  0  0  0  0
   14.2219   42.7153    6.6679 C   0  0  0  0  0  0  0  0  0  0  0  0
   15.5156   43.1660    6.9646 C   0  0  0  0  0  0  0  0  0  0  0  0
   16.2189   42.5936    8.0245 C   0  0  0  0  0  0  0  0  0  0  0  0
   15.6308   41.5793    8.7793 C   0  0  0  0  0  0  0  0  0  0  0  0
   14.3362   41.1488    8.4595 C   0  0  0  0  0  0  0  0  0  0  0  0
   13.6700   40.0631    9.2423 C   0  0  2  0  0  0  0  0  0  0  0  0
   13.4559   40.4878   10.6986 C   0  0  0  0  0  0  0  0  0  0  0  0
   12.9922   39.3081   11.5550 C   0  0  0  0  0  0  0  0  0  0  0  0
   13.7930   38.0254   11.2790 C   0  0  0  0  0  0  0  0  0  0  0  0
   14.4383   38.7365    9.1139 C   0  0  0  0  0  0  0  0  0  0  0  0
   15.5899   36.9968   10.1883 C   0  0  0  0  0  0  0  0  0  0  0  0
   17.0820   37.1990   10.0051 C   0  0  0  0  0  0  0  0  0  0  0  0
   15.2128   45.8666    3.8060 N   0  0  0  0  0  0  0  0  0  0  0  0
   15.0713   44.9328    4.7451 N   0  0  0  0  0  0  0  0  0  0  0  0
   13.4581   43.2716    5.5896 N   0  0  0  0  0  0  0  0  0  0  0  0
   13.6714   41.7238    7.4205 N   0  0  0  0  0  0  0  0  0  0  0  0
   14.9423   38.2782   10.4100 N   0  0  0  0  0  0  0  0  0  0  0  0
   12.9074   44.9163    3.4563 S   0  0  0  0  0  0  0  0  0  0  0  0
   17.6944   35.9657    9.7898 O   0  0  0  0  0  0  0  0  0  0  0  0
  1  2  1  0
  2 21  1  0
  3 21  1  0
  3 18  1  0
  4 19  2  0
  5  6  2  0
  7  8  2  0
  9  8  1  6
  9 10  1  0
 10 11  1  0
 11 12  1  0
 12 20  1  0
 13 20  1  0
 13  9  1  0
 14 20  1  0
 14 15  1  0
 15 22  1  0
 16 17  1  0
 18  4  1  0
  2 16  2  0
  3 17  2  0
  4  5  1  0
  6  7  1  0
  8 19  1  0
M  END
>  <rmsd>  (1) 
0.24662073

$$$$
