MolPort-001-809-197 CSSS00106531930 MCULE-2952134515 PubChem-2823008 ZINC000001040089 ZINC01040089
     RDKit          3D

 28 30  0  0  0  0  0  0  0  0999 V2000
   12.9780   49.3164   -1.1177 C   0  0  0  0  0  0  0  0  0  0  0  0
   13.6691   47.9000    0.7887 C   0  0  0  0  0  0  0  0  0  0  0  0
   12.4484   47.2119    0.8082 C   0  0  0  0  0  0  0  0  0  0  0  0
   12.1995   46.1976    1.7402 C   0  0  0  0  0  0  0  0  0  0  0  0
   10.4968   44.5284    2.5220 C   0  0  0  0  0  0  0  0  0  0  0  0
   13.2076   45.8623    2.6832 C   0  0  0  0  0  0  0  0  0  0  0  0
   13.8993   44.3741    4.6662 C   0  0  0  0  0  0  0  0  0  0  0  0
   14.2429   42.7332    6.6078 C   0  0  0  0  0  0  0  0  0  0  0  0
   15.5392   43.1598    6.9161 C   0  0  0  0  0  0  0  0  0  0  0  0
   16.2479   42.5612    7.9575 C   0  0  0  0  0  0  0  0  0  0  0  0
   15.6744   41.5262    8.7144 C   0  0  0  0  0  0  0  0  0  0  0  0
   17.7277   41.3037   10.0865 C   0  0  0  0  0  0  0  0  0  0  0  0
   14.3573   41.1002    8.4141 C   0  0  0  0  0  0  0  0  0  0  0  0
   14.1294   39.5144   10.3427 C   0  0  0  0  0  0  0  0  0  0  0  0
   13.7788   40.4380   11.4952 C   0  0  0  0  0  0  0  0  0  0  0  0
   13.2842   39.5389   12.6027 C   0  0  0  0  0  0  0  0  0  0  0  0
   12.6442   38.3664   11.8979 C   0  0  0  0  0  0  0  0  0  0  0  0
   13.3982   38.2070   10.5927 C   0  0  0  0  0  0  0  0  0  0  0  0
   13.6660   41.7070    7.3592 C   0  0  0  0  0  0  0  0  0  0  0  0
   14.4255   46.5594    2.6524 C   0  0  0  0  0  0  0  0  0  0  0  0
   14.6548   47.5671    1.7162 C   0  0  0  0  0  0  0  0  0  0  0  0
   13.9257   48.9138   -0.1383 O   0  0  0  0  0  0  0  0  0  0  0  0
   10.9432   45.5739    1.6707 O   0  0  0  0  0  0  0  0  0  0  0  0
   15.0421   44.8927    4.7834 O   0  0  0  0  0  0  0  0  0  0  0  0
   16.4039   40.9169    9.7418 O   0  0  0  0  0  0  0  0  0  0  0  0
   13.6918   40.0809    9.1134 O   0  0  0  0  0  0  0  0  0  0  0  0
   12.9894   44.8268    3.6551 N   0  0  0  0  0  0  0  0  0  0  0  0
   13.4825   43.3189    5.5420 N   0  0  0  0  0  0  0  0  0  0  0  0
  1 22  1  0
  2 22  1  0
  3  4  2  0
  4 23  1  0
  5 23  1  0
  6 27  1  0
  6 20  2  0
  7 28  1  0
  9 10  2  0
 11 25  1  0
 11 13  2  0
 12 25  1  0
 13 26  1  0
 14 26  1  0
 14 15  1  0
 15 16  1  0
 16 17  1  0
 17 18  1  0
 18 14  1  0
 19  8  2  0
 21  2  2  0
 27  7  1  0
 28  8  1  0
  2  3  1  0
  4  6  1  0
  7 24  2  0
  8  9  1  0
 10 11  1  0
 13 19  1  0
 20 21  1  0
M  END
>  <rmsd>  (1) 
0.233173847

$$$$
