MolPort-047-790-232 1875248683 CSSS03496531032 GIQNNAXNAMEZCU-UHFFFAOYSA-N MCULE-4207706156 PubChem-155910437
     RDKit          3D

 25 27  0  0  0  0  0  0  0  0999 V2000
   13.9270   44.3079    4.6426 C   0  0  0  0  0  0  0  0  0  0  0  0
   14.2344   42.8646    6.7054 C   0  0  0  0  0  0  0  0  0  0  0  0
   13.8193   41.9283    7.6150 C   0  0  0  0  0  0  0  0  0  0  0  0
   14.8461   41.8420    8.5094 C   0  0  0  0  0  0  0  0  0  0  0  0
   14.7944   40.9847    9.6044 C   0  0  0  0  0  0  0  0  0  0  0  0
   13.6402   40.1848    9.7588 C   0  0  0  0  0  0  0  0  0  0  0  0
   13.5076   39.2799   10.9489 C   0  0  0  0  0  0  0  0  0  0  0  0
   12.5727   40.2988    8.8314 C   0  0  0  0  0  0  0  0  0  0  0  0
   12.6550   41.1775    7.7353 C   0  0  0  0  0  0  0  0  0  0  0  0
   13.0316   44.7135    3.5225 C   0  0  0  0  0  0  0  0  0  0  0  0
   12.2268   45.9517    3.9058 C   0  0  0  0  0  0  0  0  0  0  0  0
   10.2512   46.5285    5.3319 C   0  0  0  0  0  0  0  0  0  0  0  0
   10.4100   48.0091    5.2326 C   0  0  0  0  0  0  0  0  0  0  0  0
    9.6286   48.5326    4.0441 C   0  0  0  0  0  0  0  0  0  0  0  0
    9.4321   44.6187    5.8145 C   0  0  0  0  0  0  0  0  0  0  0  0
   10.5547   44.4245    5.0287 C   0  0  0  0  0  0  0  0  0  0  0  0
   13.4873   43.3108    5.5696 N   0  0  0  0  0  0  0  0  0  0  0  0
   15.8398   42.6829    8.1673 N   0  0  0  0  0  0  0  0  0  0  0  0
   15.4627   43.3122    7.0564 N   0  0  0  0  0  0  0  0  0  0  0  0
   11.0609   45.6371    4.7343 N   0  0  0  0  0  0  0  0  0  0  0  0
    9.2410   45.9425    5.9995 N   0  0  0  0  0  0  0  0  0  0  0  0
   12.9371   39.9814   11.9945 F   0  0  0  0  0  0  0  0  0  0  0  0
   12.7064   38.1936   10.6427 F   0  0  0  0  0  0  0  0  0  0  0  0
   14.7505   38.8139   11.3418 F   0  0  0  0  0  0  0  0  0  0  0  0
   15.0485   44.8667    4.7743 O   0  0  0  0  0  0  0  0  0  0  0  0
  1 17  1  0
  2  3  1  0
  3  4  2  0
  4 18  1  0
  5  6  2  0
  7  6  1  0
  7 22  1  0
  7 23  1  0
  7 24  1  0
  8  9  2  0
 10  1  1  0
 10 11  1  0
 11 20  1  0
 13 12  1  0
 13 14  1  0
 15 21  1  0
 16 20  1  0
 17  2  1  0
 18 19  1  0
 20 12  1  0
  1 25  2  0
  2 19  2  0
  4  5  1  0
  6  8  1  0
  9  3  1  0
 12 21  2  0
 15 16  2  0
M  END
>  <rmsd>  (1) 
0.24622719

$$$$
