MolPort-002-847-813 386794 CHEMBL1508199 CSSS00121629189 LN01247476 MCULE-3828966775 PubChem-851895 ZINC000000386794 ZINC00386794
     RDKit          3D

 21 22  0  0  0  0  0  0  0  0999 V2000
   12.2371   46.0772    1.8162 C   0  0  0  0  0  0  0  0  0  0  0  0
   13.3841   45.8293    2.7729 C   0  0  0  0  0  0  0  0  0  0  0  0
   13.9020   44.3569    4.6748 C   0  0  0  0  0  0  0  0  0  0  0  0
   14.2664   42.7621    6.6161 C   0  0  0  0  0  0  0  0  0  0  0  0
   16.0289   42.4716    7.9731 C   0  0  0  0  0  0  0  0  0  0  0  0
   17.3974   42.7619    8.4861 C   0  0  0  0  0  0  0  0  0  0  0  0
   15.1728   41.5078    8.5227 C   0  0  0  0  0  0  0  0  0  0  0  0
   15.4883   40.5725    9.6303 C   0  0  0  0  0  0  0  0  0  0  0  0
   14.4411   39.9139   10.4459 C   0  0  0  0  0  0  0  0  0  0  0  0
   13.1308   40.4144   10.4988 C   0  0  0  0  0  0  0  0  0  0  0  0
   12.1635   39.7944   11.2947 C   0  0  0  0  0  0  0  0  0  0  0  0
   12.4995   38.6703   12.0525 C   0  0  0  0  0  0  0  0  0  0  0  0
   13.8030   38.1698   12.0185 C   0  0  0  0  0  0  0  0  0  0  0  0
   14.7691   38.7909   11.2218 C   0  0  0  0  0  0  0  0  0  0  0  0
   13.0299   44.7947    3.6781 O   0  0  0  0  0  0  0  0  0  0  0  0
   15.0444   44.8784    4.7973 O   0  0  0  0  0  0  0  0  0  0  0  0
   16.6976   40.3203    9.8839 O   0  0  0  0  0  0  0  0  0  0  0  0
   13.4799   43.3093    5.5536 N   0  0  0  0  0  0  0  0  0  0  0  0
   15.5179   43.1669    6.9218 N   0  0  0  0  0  0  0  0  0  0  0  0
   13.7408   41.5320    7.6271 S   0  0  0  0  0  0  0  0  0  0  0  0
   11.2890   37.8929   13.0491 Cl  0  0  0  0  0  0  0  0  0  0  0  0
  1  2  1  0
  2 15  1  0
  3 15  1  0
  3 18  1  0
  4 20  1  0
  5 19  1  0
  6  5  1  0
  7 20  1  0
  7  8  1  0
  8  9  1  0
 10 11  2  0
 12 21  1  0
 12 13  2  0
 14  9  2  0
 18  4  1  0
  3 16  2  0
  4 19  2  0
  5  7  2  0
  8 17  2  0
  9 10  1  0
 11 12  1  0
 13 14  1  0
M  END
>  <rmsd>  (1) 
0.187652126

$$$$
