MolPort-010-852-262 41076407 ChemDiv-G952-1684 MCULE-9578582837 PubChem-52095939 ZINC000041076407 ZINC41076407
     RDKit          3D

 23 25  0  0  0  0  0  0  0  0999 V2000
   12.6758   38.7506   11.5857 C   0  0  0  0  0  0  0  0  0  0  0  0
   13.7267   39.7297   11.1075 C   0  0  0  0  0  0  0  0  0  0  0  0
   14.0355   39.4656    9.6474 C   0  0  0  0  0  0  0  0  0  0  0  0
   15.0676   40.4247    9.1621 C   0  0  0  0  0  0  0  0  0  0  0  0
   16.0391   41.9357    8.0749 C   0  0  0  0  0  0  0  0  0  0  0  0
   14.3604   42.6973    6.5835 C   0  0  0  0  0  0  0  0  0  0  0  0
   13.8775   44.3663    4.7078 C   0  0  0  0  0  0  0  0  0  0  0  0
   12.8902   44.8410    3.6977 C   0  0  0  0  0  0  0  0  0  0  0  0
   13.5056   43.5020    1.6934 C   0  0  0  0  0  0  0  0  0  0  0  0
   13.2054   42.4258    0.8427 C   0  0  0  0  0  0  0  0  0  0  0  0
   14.0686   42.0999   -0.2083 C   0  0  0  0  0  0  0  0  0  0  0  0
   15.2325   42.8433   -0.4189 C   0  0  0  0  0  0  0  0  0  0  0  0
   15.5370   43.9163    0.4215 C   0  0  0  0  0  0  0  0  0  0  0  0
   14.6776   44.2451    1.4729 C   0  0  0  0  0  0  0  0  0  0  0  0
   16.3484   40.5036    9.6143 N   0  0  0  0  0  0  0  0  0  0  0  0
   16.9707   41.4672    8.9225 N   0  0  0  0  0  0  0  0  0  0  0  0
   13.5177   43.3017    5.5954 N   0  0  0  0  0  0  0  0  0  0  0  0
   13.9091   41.6985    7.3943 N   0  0  0  0  0  0  0  0  0  0  0  0
   14.8921   41.3269    8.1975 N   0  0  0  0  0  0  0  0  0  0  0  0
   16.0184   43.1068    6.8787 S   0  0  0  0  0  0  0  0  0  0  0  0
   15.0135   44.9061    4.7598 O   0  0  0  0  0  0  0  0  0  0  0  0
   12.6310   43.8178    2.7415 O   0  0  0  0  0  0  0  0  0  0  0  0
   11.7535   41.4700    1.0804 Cl  0  0  0  0  0  0  0  0  0  0  0  0
  1  2  1  0
  2  3  1  0
  3  4  1  0
  5 20  1  0
  6 20  1  0
  6 17  1  0
  8  7  1  0
  8 22  1  0
  9 22  1  0
 10 23  1  0
 10 11  2  0
 12 13  2  0
 14  9  2  0
 15 16  1  0
 17  7  1  0
 19 18  1  0
 19  4  1  0
 19  5  1  0
  4 15  2  0
  5 16  2  0
  6 18  2  0
  7 21  2  0
  9 10  1  0
 11 12  1  0
 13 14  1  0
M  END
>  <rmsd>  (1) 
0.21481438

$$$$
