MolPort-020-292-476 MCULE-4874534686 PubChem-110264944
     RDKit          3D

 27 29  0  0  0  0  0  0  0  0999 V2000
   11.6170   44.1360    3.4941 C   0  0  0  0  0  0  0  0  0  0  0  0
   12.9660   44.7492    3.6532 C   0  0  0  0  0  0  0  0  0  0  0  0
   13.8486   44.3275    4.6617 C   0  0  0  0  0  0  0  0  0  0  0  0
   15.4709   45.9089    3.9254 C   0  0  0  0  0  0  0  0  0  0  0  0
   14.6188   46.3510    2.9132 C   0  0  0  0  0  0  0  0  0  0  0  0
   13.3603   45.7649    2.7803 C   0  0  0  0  0  0  0  0  0  0  0  0
   14.2140   42.7270    6.6460 C   0  0  0  0  0  0  0  0  0  0  0  0
   13.6446   41.7082    7.4135 C   0  0  0  0  0  0  0  0  0  0  0  0
   14.3668   41.1509    8.4718 C   0  0  0  0  0  0  0  0  0  0  0  0
   16.1999   42.5923    8.0181 C   0  0  0  0  0  0  0  0  0  0  0  0
   15.5061   43.1717    6.9544 C   0  0  0  0  0  0  0  0  0  0  0  0
   17.5711   43.0579    8.3512 C   0  0  0  0  0  0  0  0  0  0  0  0
   13.7531   40.0599    9.2841 C   0  0  2  0  0  0  0  0  0  0  0  0
   13.6362   40.4734   10.7434 C   0  0  0  0  0  0  0  0  0  0  0  0
   12.9961   39.3438   11.5316 C   0  0  0  0  0  0  0  0  0  0  0  0
   13.8287   38.0685   11.3847 C   0  0  0  0  0  0  0  0  0  0  0  0
   14.5742   38.7728    9.1645 C   0  0  0  0  0  0  0  0  0  0  0  0
   13.8939   35.4833    7.6971 C   0  0  0  0  0  0  0  0  0  0  0  0
   11.6768   35.9283    7.1254 C   0  0  0  0  0  0  0  0  0  0  0  0
   15.0724   44.9186    4.7678 N   0  0  0  0  0  0  0  0  0  0  0  0
   13.4522   43.2829    5.5651 N   0  0  0  0  0  0  0  0  0  0  0  0
   15.6223   41.6021    8.7489 N   0  0  0  0  0  0  0  0  0  0  0  0
   14.0326   37.6768    9.9813 N   0  0  0  0  0  0  0  0  0  0  0  0
   12.8901   36.5323    7.6489 N   0  0  0  0  0  0  0  0  0  0  0  0
   12.5719   37.0317    9.2806 S   0  0  0  0  0  0  0  0  0  0  0  0
   12.1126   35.8528   10.0953 O   0  0  0  0  0  0  0  0  0  0  0  0
   11.4871   38.0741    9.2748 O   0  0  0  0  0  0  0  0  0  0  0  0
  1  2  1  0
  3 20  2  0
  3 21  1  0
  4  5  2  0
  6  2  2  0
  8  9  2  0
 10 22  2  0
 11  7  2  0
 12 10  1  0
 13  9  1  6
 13 14  1  0
 14 15  1  0
 15 16  1  0
 16 23  1  0
 17 23  1  0
 17 13  1  0
 18 24  1  0
 19 24  1  0
 21  7  1  0
 25 23  1  0
 25 24  1  0
  2  3  1  0
  4 20  1  0
  5  6  1  0
  7  8  1  0
  9 22  1  0
 10 11  1  0
 25 26  2  0
 25 27  2  0
M  END
>  <rmsd>  (1) 
0.245473042

$$$$
