Molport-020-279-176 MCULE-7641056097 PubChem-110255930
     RDKit          3D

 26 29  0  0  0  0  0  0  0  0999 V2000
   16.7837   46.5356    4.0368 C   0  0  0  0  0  0  0  0  0  0  0  0
   15.4403   45.9137    3.9078 C   0  0  0  0  0  0  0  0  0  0  0  0
   13.8441   44.3246    4.6760 C   0  0  0  0  0  0  0  0  0  0  0  0
   12.9419   44.7348    3.6906 C   0  0  0  0  0  0  0  0  0  0  0  0
   13.3062   45.7512    2.8058 C   0  0  0  0  0  0  0  0  0  0  0  0
   14.5634   46.3474    2.9117 C   0  0  0  0  0  0  0  0  0  0  0  0
   14.2357   42.7223    6.6490 C   0  0  0  0  0  0  0  0  0  0  0  0
   14.3864   41.1614    8.4324 C   0  0  0  0  0  0  0  0  0  0  0  0
   15.6813   41.6125    8.7170 C   0  0  0  0  0  0  0  0  0  0  0  0
   15.5312   43.1683    6.9403 C   0  0  0  0  0  0  0  0  0  0  0  0
   13.7482   40.0703    9.2310 C   0  0  2  0  0  0  0  0  0  0  0  0
   13.6029   40.4739   10.7004 C   0  0  0  0  0  0  0  0  0  0  0  0
   12.9340   39.3551   11.4958 C   0  0  0  0  0  0  0  0  0  0  0  0
   13.7464   38.0698   11.3712 C   0  0  0  0  0  0  0  0  0  0  0  0
   14.5349   38.7652    9.1028 C   0  0  0  0  0  0  0  0  0  0  0  0
   13.5115   36.4773    9.4223 C   0  0  0  0  0  0  0  0  0  0  0  0
   12.9245   35.5039   10.2395 C   0  0  0  0  0  0  0  0  0  0  0  0
   12.7044   34.0454    8.3940 C   0  0  0  0  0  0  0  0  0  0  0  0
   13.6747   36.1743    8.0653 C   0  0  0  0  0  0  0  0  0  0  0  0
   15.0662   44.9218    4.7600 N   0  0  0  0  0  0  0  0  0  0  0  0
   13.4589   43.2797    5.5793 N   0  0  0  0  0  0  0  0  0  0  0  0
   13.6989   41.7283    7.4059 N   0  0  0  0  0  0  0  0  0  0  0  0
   16.2232   42.6050    7.9647 N   0  0  0  0  0  0  0  0  0  0  0  0
   13.9310   37.7452    9.9579 N   0  0  0  0  0  0  0  0  0  0  0  0
   12.5341   34.3135    9.7145 N   0  0  0  0  0  0  0  0  0  0  0  0
   13.2711   34.9721    7.5786 N   0  0  0  0  0  0  0  0  0  0  0  0
  1  2  1  0
  3 20  2  0
  3 21  1  0
  4  5  2  0
  6  2  2  0
  8 22  2  0
  9 23  2  0
 10  7  2  0
 11  8  1  6
 11 12  1  0
 12 13  1  0
 13 14  1  0
 14 24  1  0
 15 24  1  0
 15 11  1  0
 17 25  2  0
 18 26  2  0
 19 16  2  0
 21  7  1  0
 24 16  1  0
  2 20  1  0
  3  4  1  0
  5  6  1  0
  7 22  1  0
  8  9  1  0
 10 23  1  0
 16 17  1  0
 18 25  1  0
 19 26  1  0
M  END
>  <rmsd>  (1) 
0.240435734

$$$$
