MolPort-045-966-356 952991293 CSSS00160229454 MCULE-7681060958 PubChem-131937820 ZINC000952991293
     RDKit          3D

 27 29  0  0  0  0  0  0  0  0999 V2000
   13.0863   44.6818    1.1800 C   0  0  0  0  0  0  0  0  0  0  0  0
   13.1412   44.5357    3.3804 C   0  0  0  0  0  0  0  0  0  0  0  0
   13.9622   44.2551    4.5892 C   0  0  0  0  0  0  0  0  0  0  0  0
   14.2618   42.7687    6.6333 C   0  0  0  0  0  0  0  0  0  0  0  0
   13.6406   42.5967    7.8742 C   0  0  0  0  0  0  0  0  0  0  0  0
   14.3449   42.0603    8.9528 C   0  0  0  0  0  0  0  0  0  0  0  0
   15.6800   41.6668    8.7989 C   0  0  0  0  0  0  0  0  0  0  0  0
   15.9151   40.6628   11.1379 C   0  0  0  0  0  0  0  0  0  0  0  0
   14.6198   39.9462   11.2035 C   0  0  0  0  0  0  0  0  0  0  0  0
   13.7577   40.0234   12.3238 C   0  0  0  0  0  0  0  0  0  0  0  0
   14.0606   40.8888   13.5056 C   0  0  0  0  0  0  0  0  0  0  0  0
   10.7046   38.4108   12.7357 C   0  0  0  0  0  0  0  0  0  0  0  0
   11.0517   37.9294   11.4679 C   0  0  0  0  0  0  0  0  0  0  0  0
   12.2660   38.5381   11.2476 C   0  0  0  0  0  0  0  0  0  0  0  0
   14.2324   39.1195   10.1256 C   0  0  0  0  0  0  0  0  0  0  0  0
   16.3000   41.8205    7.5569 C   0  0  0  0  0  0  0  0  0  0  0  0
   15.5997   42.3523    6.4607 C   0  0  0  0  0  0  0  0  0  0  0  0
   17.5444   42.0291    4.9594 C   0  0  0  0  0  0  0  0  0  0  0  0
   13.8539   44.1863    2.2332 O   0  0  0  0  0  0  0  0  0  0  0  0
   15.0380   44.8849    4.7733 O   0  0  0  0  0  0  0  0  0  0  0  0
   16.6109   40.7860   12.1803 O   0  0  0  0  0  0  0  0  0  0  0  0
   16.2057   42.4403    5.2022 O   0  0  0  0  0  0  0  0  0  0  0  0
   13.4871   43.3156    5.5581 N   0  0  0  0  0  0  0  0  0  0  0  0
   16.4436   41.1571    9.8992 N   0  0  0  0  0  0  0  0  0  0  0  0
   12.6055   39.3052   12.2835 N   0  0  0  0  0  0  0  0  0  0  0  0
   11.6651   39.2437   13.2060 N   0  0  0  0  0  0  0  0  0  0  0  0
   13.0587   38.4262   10.1565 N   0  0  0  0  0  0  0  0  0  0  0  0
  1 19  1  0
  2 19  1  0
  2  3  1  0
  3 23  1  0
  5  6  2  0
  7 24  1  0
  7 16  2  0
  8  9  1  0
 10 25  1  0
 11 10  1  0
 12 13  1  0
 14 27  1  0
 14 25  1  0
 15  9  1  0
 17 22  1  0
 17  4  2  0
 18 22  1  0
 23  4  1  0
 24  8  1  0
 25 26  1  0
  3 20  2  0
  4  5  1  0
  6  7  1  0
  8 21  2  0
  9 10  2  0
 12 26  2  0
 13 14  2  0
 15 27  2  0
 16 17  1  0
M  END
>  <rmsd>  (1) 
0.239808306

$$$$
