Molport-053-366-839
     RDKit          3D

 20 22  0  0  0  0  0  0  0  0999 V2000
   11.1245   45.3056   -0.1955 O   0  0  0  0  0  0  0  0  0  0  0  0
   15.0504   44.8679    4.8089 O   0  0  0  0  0  0  0  0  0  0  0  0
   11.8302   45.0548    0.9766 C   0  0  0  0  0  0  0  0  0  0  0  0
   12.7267   46.0050    1.4669 C   0  0  0  0  0  0  0  0  0  0  0  0
   13.4277   45.7414    2.6448 C   0  0  0  0  0  0  0  0  0  0  0  0
   13.2252   44.5342    3.3349 C   0  0  0  0  0  0  0  0  0  0  0  0
   12.3190   43.6037    2.7954 C   0  0  0  0  0  0  0  0  0  0  0  0
   13.9735   44.2507    4.5836 C   0  0  0  0  0  0  0  0  0  0  0  0
   14.2626   42.7998    6.6333 C   0  0  0  0  0  0  0  0  0  0  0  0
   14.9217   41.7341    8.4090 C   0  0  0  0  0  0  0  0  0  0  0  0
   14.8756   40.9163    9.5356 C   0  0  0  0  0  0  0  0  0  0  0  0
   13.6417   40.3151    9.8553 C   0  0  0  0  0  0  0  0  0  0  0  0
   12.5019   40.5459    9.0474 C   0  0  0  0  0  0  0  0  0  0  0  0
   12.5849   41.3785    7.9148 C   0  0  0  0  0  0  0  0  0  0  0  0
   13.8208   41.9559    7.6311 C   0  0  0  0  0  0  0  0  0  0  0  0
   11.6512   43.8838    1.6444 N   0  0  0  0  0  0  0  0  0  0  0  0
   13.4733   43.3088    5.5481 N   0  0  0  0  0  0  0  0  0  0  0  0
   15.5802   43.0575    6.8197 N   0  0  0  0  0  0  0  0  0  0  0  0
   15.9735   42.4043    7.9083 N   0  0  0  0  0  0  0  0  0  0  0  0
   13.5183   39.2745   11.2615 Cl  0  0  0  0  0  0  0  0  0  0  0  0
  3  1  1  0
  3 16  2  0
  4  5  2  0
  6  7  2  0
  6  8  1  0
  8 17  1  0
 11 12  2  0
 12 20  1  0
 13 14  2  0
 15  9  1  0
 15 10  2  0
 17  9  1  0
 19 18  1  0
 19 10  1  0
  3  4  1  0
  5  6  1  0
  7 16  1  0
  8  2  2  0
  9 18  2  0
 10 11  1  0
 12 13  1  0
 14 15  1  0
M  END
>  <rmsd>  (1) 
0.193207785

$$$$
