MolPort-016-630-554 65535736 CSSS00159586613 MCULE-5089715295 PubChem-50985435 ZINC000065535736 ZINC65535736
     RDKit          3D

 23 25  0  0  0  0  0  0  0  0999 V2000
   16.2998   40.7449    4.5791 C   0  0  0  0  0  0  0  0  0  0  0  0
   16.1813   42.1791    5.0615 C   0  0  0  0  0  0  0  0  0  0  0  0
   15.5508   42.2315    6.4169 C   0  0  0  0  0  0  0  0  0  0  0  0
   14.2585   42.7681    6.6168 C   0  0  0  0  0  0  0  0  0  0  0  0
   13.9544   44.2790    4.5979 C   0  0  0  0  0  0  0  0  0  0  0  0
   13.1264   44.6038    3.4079 C   0  0  0  0  0  0  0  0  0  0  0  0
   13.6838   42.7145    7.8904 C   0  0  0  0  0  0  0  0  0  0  0  0
   14.3907   42.1777    8.9675 C   0  0  0  0  0  0  0  0  0  0  0  0
   15.6799   41.6628    8.7834 C   0  0  0  0  0  0  0  0  0  0  0  0
   16.2546   41.7026    7.5068 C   0  0  0  0  0  0  0  0  0  0  0  0
   17.7335   41.4242   10.1193 C   0  0  0  0  0  0  0  0  0  0  0  0
   18.0795   40.8703   11.3371 C   0  0  0  0  0  0  0  0  0  0  0  0
   16.0149   40.4423   10.9680 C   0  0  0  0  0  0  0  0  0  0  0  0
   14.6823   39.8264   11.1343 C   0  0  0  0  0  0  0  0  0  0  0  0
   14.1708   39.6066   12.4192 C   0  0  0  0  0  0  0  0  0  0  0  0
   12.2281   38.5774   11.5228 C   0  0  0  0  0  0  0  0  0  0  0  0
   12.7065   38.7570   10.2241 C   0  0  0  0  0  0  0  0  0  0  0  0
   13.9417   39.3775   10.0342 C   0  0  0  0  0  0  0  0  0  0  0  0
   13.4802   43.3185    5.5461 N   0  0  0  0  0  0  0  0  0  0  0  0
   16.4343   41.1542    9.8956 N   0  0  0  0  0  0  0  0  0  0  0  0
   17.0011   40.2583   11.8673 N   0  0  0  0  0  0  0  0  0  0  0  0
   12.9650   38.9993   12.5850 N   0  0  0  0  0  0  0  0  0  0  0  0
   15.0436   44.8847    4.7813 O   0  0  0  0  0  0  0  0  0  0  0  0
  1  2  1  0
  2  3  1  0
  4 19  1  0
  4  7  2  0
  6  5  1  0
  8  9  2  0
  9 20  1  0
 10  3  2  0
 12 21  1  0
 13 14  1  0
 13 20  1  0
 15 22  2  0
 16 17  2  0
 18 14  2  0
 19  5  1  0
 20 11  1  0
  3  4  1  0
  5 23  2  0
  7  8  1  0
  9 10  1  0
 11 12  2  0
 13 21  2  0
 14 15  1  0
 16 22  1  0
 17 18  1  0
M  END
>  <rmsd>  (1) 
0.239509627

$$$$
