MolPort-020-278-652 MCULE-3701403446 PubChem-110255524
     RDKit          3D

 26 29  0  0  0  0  0  0  0  0999 V2000
   17.5908   43.0300    8.3283 C   0  0  0  0  0  0  0  0  0  0  0  0
   16.2156   42.5767    7.9950 C   0  0  0  0  0  0  0  0  0  0  0  0
   15.5239   43.1671    6.9396 C   0  0  0  0  0  0  0  0  0  0  0  0
   14.2307   42.7199    6.6485 C   0  0  0  0  0  0  0  0  0  0  0  0
   14.3738   41.1594    8.4273 C   0  0  0  0  0  0  0  0  0  0  0  0
   13.7379   40.0696    9.2244 C   0  0  2  0  0  0  0  0  0  0  0  0
   13.6052   40.4801   10.6924 C   0  0  0  0  0  0  0  0  0  0  0  0
   12.9515   39.3612   11.5008 C   0  0  0  0  0  0  0  0  0  0  0  0
   13.7737   38.0818   11.3797 C   0  0  0  0  0  0  0  0  0  0  0  0
   14.5396   38.7743    9.0981 C   0  0  0  0  0  0  0  0  0  0  0  0
   13.5553   36.4825    9.4454 C   0  0  0  0  0  0  0  0  0  0  0  0
   13.3426   35.0010    7.6095 C   0  0  0  0  0  0  0  0  0  0  0  0
   12.7762   34.0351    8.4388 C   0  0  0  0  0  0  0  0  0  0  0  0
   12.6132   34.3367    9.7894 C   0  0  0  0  0  0  0  0  0  0  0  0
   13.8450   44.3248    4.6751 C   0  0  0  0  0  0  0  0  0  0  0  0
   12.9444   44.7358    3.6886 C   0  0  0  0  0  0  0  0  0  0  0  0
   13.3103   45.7525    2.8047 C   0  0  0  0  0  0  0  0  0  0  0  0
   14.5676   46.3482    2.9125 C   0  0  0  0  0  0  0  0  0  0  0  0
   15.4430   45.9135    3.9094 C   0  0  0  0  0  0  0  0  0  0  0  0
   13.6872   41.7260    7.4001 N   0  0  0  0  0  0  0  0  0  0  0  0
   15.6326   41.5869    8.7185 N   0  0  0  0  0  0  0  0  0  0  0  0
   13.9591   37.7556    9.9683 N   0  0  0  0  0  0  0  0  0  0  0  0
   13.7202   36.2006    8.1231 N   0  0  0  0  0  0  0  0  0  0  0  0
   13.0028   35.5472   10.2670 N   0  0  0  0  0  0  0  0  0  0  0  0
   13.4576   43.2794    5.5771 N   0  0  0  0  0  0  0  0  0  0  0  0
   15.0675   44.9214    4.7609 N   0  0  0  0  0  0  0  0  0  0  0  0
  1  2  1  0
  2 21  2  0
  3  4  2  0
  4 25  1  0
  5 20  2  0
  6  5  1  6
  6  7  1  0
  7  8  1  0
  8  9  1  0
  9 22  1  0
 10 22  1  0
 10  6  1  0
 11 24  2  0
 12 23  2  0
 13 14  2  0
 15 26  2  0
 16 17  2  0
 18 19  2  0
 22 11  1  0
 25 15  1  0
  2  3  1  0
  4 20  1  0
  5 21  1  0
 11 23  1  0
 12 13  1  0
 14 24  1  0
 15 16  1  0
 17 18  1  0
 19 26  1  0
M  END
>  <rmsd>  (1) 
0.240007058

$$$$
