MolPort-020-295-333 MCULE-5513549119 PubChem-110267415
     RDKit          3D

 32 35  0  0  0  0  0  0  0  0999 V2000
   15.0188   47.4361    2.0020 C   0  0  0  0  0  0  0  0  0  0  0  0
   14.6005   46.3512    2.9272 C   0  0  0  0  0  0  0  0  0  0  0  0
   15.4639   45.9080    3.9304 C   0  0  0  0  0  0  0  0  0  0  0  0
   13.8482   44.3260    4.6720 C   0  0  0  0  0  0  0  0  0  0  0  0
   12.9596   44.7467    3.6784 C   0  0  0  0  0  0  0  0  0  0  0  0
   13.3405   45.7649    2.8026 C   0  0  0  0  0  0  0  0  0  0  0  0
   14.2292   42.7317    6.6343 C   0  0  0  0  0  0  0  0  0  0  0  0
   16.2226   42.6667    7.9097 C   0  0  0  0  0  0  0  0  0  0  0  0
   15.6975   41.6466    8.6995 C   0  0  0  0  0  0  0  0  0  0  0  0
   14.4065   41.1852    8.4202 C   0  0  0  0  0  0  0  0  0  0  0  0
   13.7840   40.0918    9.2285 C   0  0  2  0  0  0  0  0  0  0  0  0
   13.6362   40.5047   10.6955 C   0  0  0  0  0  0  0  0  0  0  0  0
   12.9896   39.3813   11.5026 C   0  0  0  0  0  0  0  0  0  0  0  0
   13.8265   38.1120   11.3839 C   0  0  0  0  0  0  0  0  0  0  0  0
   14.5840   38.7935    9.1047 C   0  0  0  0  0  0  0  0  0  0  0  0
   13.7609   36.4490    9.4671 C   0  0  0  0  0  0  0  0  0  0  0  0
   12.8112   35.5130   10.1142 C   0  0  0  0  0  0  0  0  0  0  0  0
   12.8650   34.1451    9.8084 C   0  0  0  0  0  0  0  0  0  0  0  0
   11.9603   33.2510   10.3878 C   0  0  0  0  0  0  0  0  0  0  0  0
   10.9831   33.7093   11.2760 C   0  0  0  0  0  0  0  0  0  0  0  0
   10.9173   35.0776   11.5749 C   0  0  0  0  0  0  0  0  0  0  0  0
   11.8217   35.9712   10.9955 C   0  0  0  0  0  0  0  0  0  0  0  0
    9.0140   33.0414   12.7747 C   0  0  0  0  0  0  0  0  0  0  0  0
    8.1653   31.9258   13.2673 C   0  0  0  0  0  0  0  0  0  0  0  0
   15.0736   44.9144    4.7736 N   0  0  0  0  0  0  0  0  0  0  0  0
   13.4481   43.2805    5.5659 N   0  0  0  0  0  0  0  0  0  0  0  0
   15.4842   43.1888    6.8966 N   0  0  0  0  0  0  0  0  0  0  0  0
   13.7032   41.7365    7.3963 N   0  0  0  0  0  0  0  0  0  0  0  0
   13.9995   37.7752    9.9728 N   0  0  0  0  0  0  0  0  0  0  0  0
   10.0733   32.7613   11.8509 N   0  0  0  0  0  0  0  0  0  0  0  0
   14.3717   36.0707    8.4296 O   0  0  0  0  0  0  0  0  0  0  0  0
    8.7884   34.2129   13.1775 O   0  0  0  0  0  0  0  0  0  0  0  0
  1  2  1  0
  3 25  2  0
  4  5  2  0
  4 26  1  0
  6  2  2  0
  7 28  2  0
  8 27  2  0
  9 10  2  0
 11 10  1  6
 11 12  1  0
 12 13  1  0
 13 14  1  0
 14 29  1  0
 15 29  1  0
 15 11  1  0
 16 17  1  0
 18 19  2  0
 20 21  2  0
 20 30  1  0
 22 17  2  0
 24 23  1  0
 26  7  1  0
 29 16  1  0
 30 23  1  0
  2  3  1  0
  4 25  1  0
  5  6  1  0
  7 27  1  0
  8  9  1  0
 10 28  1  0
 16 31  2  0
 17 18  1  0
 19 20  1  0
 21 22  1  0
 23 32  2  0
M  END
>  <rmsd>  (1) 
0.24123016

$$$$
