MolPort-008-359-969 CSSS00159442944 MCULE-9166582463 PubChem-46982465
     RDKit          3D

 24 25  0  0  0  0  0  0  0  0999 V2000
   14.8431   40.1442   13.8430 C   0  0  0  0  0  0  0  0  0  0  0  0
   14.4847   41.1168   12.7298 C   0  0  0  0  0  0  0  0  0  0  0  0
   14.4449   40.4596   11.3481 C   0  0  2  0  0  0  0  0  0  0  0  0
   13.4766   39.2873   11.2761 C   0  0  0  0  0  0  0  0  0  0  0  0
   16.5407   39.0394   11.5085 C   0  0  0  0  0  0  0  0  0  0  0  0
   16.7555   37.8938   10.5762 C   0  0  0  0  0  0  0  0  0  0  0  0
   15.7615   36.9258   10.4125 C   0  0  0  0  0  0  0  0  0  0  0  0
   15.9744   35.8728    9.5202 C   0  0  0  0  0  0  0  0  0  0  0  0
   18.1162   36.7325    8.9608 C   0  0  0  0  0  0  0  0  0  0  0  0
   17.9412   37.8008    9.8433 C   0  0  0  0  0  0  0  0  0  0  0  0
   16.4133   40.9121    9.8457 C   0  0  0  0  0  0  0  0  0  0  0  0
   15.6464   41.5473    8.7498 C   0  0  0  0  0  0  0  0  0  0  0  0
   16.2337   42.5656    7.9853 C   0  0  0  0  0  0  0  0  0  0  0  0
   15.5313   43.1558    6.9312 C   0  0  0  0  0  0  0  0  0  0  0  0
   14.2314   42.7318    6.6202 C   0  0  0  0  0  0  0  0  0  0  0  0
   13.6486   41.7085    7.3735 C   0  0  0  0  0  0  0  0  0  0  0  0
   14.3511   41.1182    8.4275 C   0  0  0  0  0  0  0  0  0  0  0  0
   13.9059   44.3646    4.6715 C   0  0  0  0  0  0  0  0  0  0  0  0
   12.9861   44.8434    3.6074 C   0  0  0  0  0  0  0  0  0  0  0  0
   15.7777   40.1026   10.8535 N   0  0  0  0  0  0  0  0  0  0  0  0
   17.1378   35.7979    8.8187 N   0  0  0  0  0  0  0  0  0  0  0  0
   13.4786   43.3135    5.5470 N   0  0  0  0  0  0  0  0  0  0  0  0
   17.6639   41.0762    9.8886 O   0  0  0  0  0  0  0  0  0  0  0  0
   15.0443   44.8906    4.7859 O   0  0  0  0  0  0  0  0  0  0  0  0
  1  2  1  0
  3  2  1  0
  3  4  1  1
  3 20  1  0
  5 20  1  0
  5  6  1  0
  7  8  2  0
  9 21  2  0
 10  6  2  0
 11 12  1  0
 13 14  2  0
 15 16  2  0
 15 22  1  0
 17 12  2  0
 19 18  1  0
 20 11  1  0
 22 18  1  0
  6  7  1  0
  8 21  1  0
  9 10  1  0
 11 23  2  0
 12 13  1  0
 14 15  1  0
 16 17  1  0
 18 24  2  0
M  END
>  <rmsd>  (1) 
0.231393605

$$$$
