MolPort-006-609-967 ChemDiv-V013-4409 MCULE-6473052264 PubChem-46070051 ZINC000034735463 ZINC34735463
     RDKit          3D

 32 35  0  0  0  0  0  0  0  0999 V2000
   12.0997   32.2380    6.7778 C   0  0  0  0  0  0  0  0  0  0  0  0
   11.5693   33.9735    8.4611 C   0  0  0  0  0  0  0  0  0  0  0  0
   11.4559   34.9785    7.4849 C   0  0  0  0  0  0  0  0  0  0  0  0
   11.1424   36.2889    7.8568 C   0  0  0  0  0  0  0  0  0  0  0  0
   10.9359   36.6039    9.2040 C   0  0  0  0  0  0  0  0  0  0  0  0
   10.6214   38.0073    9.6045 C   0  0  0  0  0  0  0  0  0  0  0  0
   12.3842   38.5674   11.2954 C   0  0  0  0  0  0  0  0  0  0  0  0
   13.3564   39.6896   11.6443 C   0  0  0  0  0  0  0  0  0  0  0  0
   14.4269   39.7631   10.5675 C   0  0  0  0  0  0  0  0  0  0  0  0
   12.5992   39.4052    8.9237 C   0  0  0  0  0  0  0  0  0  0  0  0
   14.4158   41.1179    8.4542 C   0  0  0  0  0  0  0  0  0  0  0  0
   15.7352   41.5368    8.6930 C   0  0  0  0  0  0  0  0  0  0  0  0
   16.3193   42.5335    7.9082 C   0  0  0  0  0  0  0  0  0  0  0  0
   15.5894   43.1285    6.8774 C   0  0  0  0  0  0  0  0  0  0  0  0
   14.2690   42.7310    6.6247 C   0  0  0  0  0  0  0  0  0  0  0  0
   13.9027   44.3460    4.6673 C   0  0  0  0  0  0  0  0  0  0  0  0
   12.9840   44.7709    3.5716 C   0  0  0  0  0  0  0  0  0  0  0  0
   13.0974   43.8477    2.4067 C   0  0  0  0  0  0  0  0  0  0  0  0
   14.0351   44.1002    1.4000 C   0  0  0  0  0  0  0  0  0  0  0  0
   14.1492   43.2264    0.3144 C   0  0  0  0  0  0  0  0  0  0  0  0
   13.3266   42.0979    0.2352 C   0  0  0  0  0  0  0  0  0  0  0  0
   12.3947   41.8406    1.2440 C   0  0  0  0  0  0  0  0  0  0  0  0
   12.2805   42.7136    2.3304 C   0  0  0  0  0  0  0  0  0  0  0  0
   13.6938   41.7309    7.4154 C   0  0  0  0  0  0  0  0  0  0  0  0
   11.0513   35.6069   10.1786 C   0  0  0  0  0  0  0  0  0  0  0  0
   11.3659   34.2966    9.8069 C   0  0  0  0  0  0  0  0  0  0  0  0
   11.8820   32.6549    8.1221 O   0  0  0  0  0  0  0  0  0  0  0  0
   12.1908   39.3984    7.7294 O   0  0  0  0  0  0  0  0  0  0  0  0
   15.0326   44.8931    4.7746 O   0  0  0  0  0  0  0  0  0  0  0  0
   11.8426   38.7278    9.9447 N   0  0  0  0  0  0  0  0  0  0  0  0
   13.8154   40.0953    9.2812 N   0  0  0  0  0  0  0  0  0  0  0  0
   13.4904   43.3085    5.5667 N   0  0  0  0  0  0  0  0  0  0  0  0
  1 27  1  0
  2 27  1  0
  3  4  2  0
  5 25  2  0
  6  5  1  0
  6 30  1  0
  7 30  1  0
  7  8  1  0
  8  9  1  0
  9 31  1  0
 10 30  1  0
 12 13  2  0
 14 15  2  0
 15 32  1  0
 17 16  1  0
 17 18  1  0
 19 20  2  0
 21 22  2  0
 23 18  2  0
 24 11  2  0
 26  2  2  0
 31 10  1  0
 31 11  1  0
 32 16  1  0
  2  3  1  0
  4  5  1  0
 10 28  2  0
 11 12  1  0
 13 14  1  0
 15 24  1  0
 16 29  2  0
 18 19  1  0
 20 21  1  0
 22 23  1  0
 25 26  1  0
M  END
>  <rmsd>  (1) 
0.244477138

$$$$
