MolPort-047-072-334 PubChem-132766320
     RDKit          3D

 29 32  0  0  0  0  0  0  0  0999 V2000
   14.0643   46.9892    1.9209 C   0  0  0  0  0  0  0  0  0  0  0  0
   14.1447   46.0069    3.0330 C   0  0  0  0  0  0  0  0  0  0  0  0
   13.8701   44.3168    4.6999 C   0  0  0  0  0  0  0  0  0  0  0  0
   14.2294   42.7179    6.6465 C   0  0  0  0  0  0  0  0  0  0  0  0
   13.6876   41.6978    7.4279 C   0  0  0  0  0  0  0  0  0  0  0  0
   14.4576   41.1670    8.4626 C   0  0  0  0  0  0  0  0  0  0  0  0
   16.2242   42.6426    7.9192 C   0  0  0  0  0  0  0  0  0  0  0  0
   17.5941   43.1537    8.1834 C   0  0  0  0  0  0  0  0  0  0  0  0
   13.8973   40.0742    9.3106 C   0  0  2  0  0  0  0  0  0  0  0  0
   13.7964   40.5174   10.7735 C   0  0  0  0  0  0  0  0  0  0  0  0
   13.3349   39.3969   11.7201 C   0  0  0  0  0  0  0  0  0  0  0  0
   13.1722   38.0457   11.0229 C   0  0  0  0  0  0  0  0  0  0  0  0
   14.7418   38.8040    9.1853 C   0  0  0  0  0  0  0  0  0  0  0  0
   15.0729   36.5693   10.2799 C   0  0  0  0  0  0  0  0  0  0  0  0
   14.6823   35.5493   11.2669 C   0  0  0  0  0  0  0  0  0  0  0  0
   15.3540   34.4117   11.4089 C   0  0  0  0  0  0  0  0  0  0  0  0
   14.9487   33.4107   12.3971 C   0  0  0  0  0  0  0  0  0  0  0  0
   15.5910   32.2110   12.6039 C   0  0  0  0  0  0  0  0  0  0  0  0
   14.8729   31.5978   13.6163 C   0  0  0  0  0  0  0  0  0  0  0  0
   13.8463   32.4633   13.9551 C   0  0  0  0  0  0  0  0  0  0  0  0
   15.2268   45.8681    3.8294 N   0  0  0  0  0  0  0  0  0  0  0  0
   15.0749   44.9265    4.7588 N   0  0  0  0  0  0  0  0  0  0  0  0
   13.4490   43.2710    5.5814 N   0  0  0  0  0  0  0  0  0  0  0  0
   15.7103   41.6485    8.6890 N   0  0  0  0  0  0  0  0  0  0  0  0
   15.4863   43.1697    6.9077 N   0  0  0  0  0  0  0  0  0  0  0  0
   14.3226   37.7877   10.1558 N   0  0  0  0  0  0  0  0  0  0  0  0
   16.0742   36.3700    9.5375 O   0  0  0  0  0  0  0  0  0  0  0  0
   13.9256   33.5351   13.2044 O   0  0  0  0  0  0  0  0  0  0  0  0
   12.9167   44.9362    3.4597 S   0  0  0  0  0  0  0  0  0  0  0  0
  1  2  1  0
  2 29  1  0
  3 23  1  0
  3 29  1  0
  4 25  2  0
  5  6  2  0
  7 24  2  0
  8  7  1  0
  9  6  1  6
  9 10  1  0
 10 11  1  0
 11 12  1  0
 12 26  1  0
 13 26  1  0
 13  9  1  0
 14 15  1  0
 16 17  1  0
 17 28  1  0
 18 19  1  0
 20 28  1  0
 21 22  1  0
 23  4  1  0
 26 14  1  0
  2 21  2  0
  3 22  2  0
  4  5  1  0
  6 24  1  0
  7 25  1  0
 14 27  2  0
 15 16  2  0
 17 18  2  0
 19 20  2  0
M  END
>  <rmsd>  (1) 
0.245959803

$$$$
