MolPort-046-958-364 MCULE-2708019974 PubChem-110093584
     RDKit          3D

 31 35  0  0  0  0  0  0  0  0999 V2000
   17.5649   43.0081    8.3583 C   0  0  0  0  0  0  0  0  0  0  0  0
   16.1913   42.5519    8.0224 C   0  0  0  0  0  0  0  0  0  0  0  0
   15.5006   43.1416    6.9623 C   0  0  0  0  0  0  0  0  0  0  0  0
   14.2060   42.7054    6.6523 C   0  0  0  0  0  0  0  0  0  0  0  0
   13.6305   41.6854    7.4134 C   0  0  0  0  0  0  0  0  0  0  0  0
   14.3504   41.1175    8.4679 C   0  0  0  0  0  0  0  0  0  0  0  0
   13.7306   40.0267    9.2766 C   0  0  2  0  0  0  0  0  0  0  0  0
   13.6014   40.4468   10.7423 C   0  0  0  0  0  0  0  0  0  0  0  0
   12.9726   39.3240   11.5644 C   0  0  0  0  0  0  0  0  0  0  0  0
   13.8144   38.0580   11.4413 C   0  0  0  0  0  0  0  0  0  0  0  0
   14.5454   38.7387    9.1556 C   0  0  0  0  0  0  0  0  0  0  0  0
   13.6406   36.4204    9.5001 C   0  0  0  0  0  0  0  0  0  0  0  0
   12.8782   35.4188   10.2812 C   0  0  0  0  0  0  0  0  0  0  0  0
   11.9045   33.5933   10.9623 C   0  0  0  0  0  0  0  0  0  0  0  0
   12.6196   34.1126    9.9163 C   0  0  0  0  0  0  0  0  0  0  0  0
   13.0949   33.3090    8.7451 C   0  0  0  0  0  0  0  0  0  0  0  0
   12.2618   32.0245    8.6178 C   0  0  0  0  0  0  0  0  0  0  0  0
   12.1090   31.3203    9.9761 C   0  0  0  0  0  0  0  0  0  0  0  0
   11.3534   32.2026   10.9823 C   0  0  0  0  0  0  0  0  0  0  0  0
   13.8769   44.3206    4.6946 C   0  0  0  0  0  0  0  0  0  0  0  0
   15.1969   45.8841    3.7920 C   0  0  0  0  0  0  0  0  0  0  0  0
   14.0996   46.0494    2.9472 C   0  0  0  0  0  0  0  0  0  0  0  0
   16.4319   46.6990    3.6531 C   0  0  0  0  0  0  0  0  0  0  0  0
   15.6082   41.5607    8.7474 N   0  0  0  0  0  0  0  0  0  0  0  0
   13.9759   37.7168   10.0301 N   0  0  0  0  0  0  0  0  0  0  0  0
   12.2920   35.6530   11.4769 N   0  0  0  0  0  0  0  0  0  0  0  0
   11.6928   34.5424   11.8902 N   0  0  0  0  0  0  0  0  0  0  0  0
   13.4503   43.2743    5.5750 N   0  0  0  0  0  0  0  0  0  0  0  0
   15.0769   44.9320    4.7558 N   0  0  0  0  0  0  0  0  0  0  0  0
   13.9978   36.1268    8.3266 O   0  0  0  0  0  0  0  0  0  0  0  0
   12.9378   44.9376    3.4538 S   0  0  0  0  0  0  0  0  0  0  0  0
  1  2  1  0
  2 24  2  0
  3  4  2  0
  4 28  1  0
  5  6  2  0
  7  6  1  6
  7  8  1  0
  8  9  1  0
  9 10  1  0
 10 25  1  0
 11 25  1  0
 11  7  1  0
 12 13  1  0
 15 13  1  0
 16 15  1  0
 16 17  1  0
 17 18  1  0
 18 19  1  0
 19 14  1  0
 20 31  1  0
 21 29  1  0
 22 31  1  0
 23 21  1  0
 25 12  1  0
 27 26  1  0
 27 14  1  0
 28 20  1  0
  2  3  1  0
  4  5  1  0
  6 24  1  0
 12 30  2  0
 13 26  2  0
 14 15  2  0
 20 29  2  0
 21 22  2  0
M  END
>  <rmsd>  (1) 
0.24316448

$$$$
