MolPort-009-685-328 6790940 CSSS03437122812 LN01384662 MCULE-7478355009 PubChem-4126701 ZINC000006790940
     RDKit          3D

 23 25  0  0  0  0  0  0  0  0999 V2000
   14.3651   42.7638    6.6523 C   0  0  0  0  0  0  0  0  0  0  0  0
   13.8813   44.3329    4.6915 C   0  0  0  0  0  0  0  0  0  0  0  0
   12.9005   44.7416    3.6465 C   0  0  0  0  0  0  0  0  0  0  0  0
   13.6010   43.3649    1.6991 C   0  0  0  0  0  0  0  0  0  0  0  0
   14.7618   44.1256    1.4808 C   0  0  0  0  0  0  0  0  0  0  0  0
   15.6456   43.7837    0.4532 C   0  0  0  0  0  0  0  0  0  0  0  0
   15.3751   42.6819   -0.3629 C   0  0  0  0  0  0  0  0  0  0  0  0
   14.2208   41.9227   -0.1516 C   0  0  0  0  0  0  0  0  0  0  0  0
   13.3368   42.2645    0.8765 C   0  0  0  0  0  0  0  0  0  0  0  0
   16.0981   42.1303    8.2382 C   0  0  0  0  0  0  0  0  0  0  0  0
   14.8997   41.4456    8.3775 C   0  0  0  0  0  0  0  0  0  0  0  0
   14.7508   40.4738    9.3719 C   0  0  0  0  0  0  0  0  0  0  0  0
   15.8488   40.2137   10.2191 C   0  0  0  0  0  0  0  0  0  0  0  0
   17.0582   40.9172   10.0650 C   0  0  0  0  0  0  0  0  0  0  0  0
   17.1925   41.8902    9.0635 C   0  0  0  0  0  0  0  0  0  0  0  0
   13.2937   38.8205   10.5167 C   0  0  0  0  0  0  0  0  0  0  0  0
   12.9954   39.5105   11.8346 C   0  0  0  0  0  0  0  0  0  0  0  0
   13.5291   43.3011    5.6202 N   0  0  0  0  0  0  0  0  0  0  0  0
   13.9296   41.7956    7.4936 N   0  0  0  0  0  0  0  0  0  0  0  0
   12.6954   43.6811    2.7180 O   0  0  0  0  0  0  0  0  0  0  0  0
   15.0058   44.8971    4.7353 O   0  0  0  0  0  0  0  0  0  0  0  0
   13.5373   39.7872    9.5010 O   0  0  0  0  0  0  0  0  0  0  0  0
   15.9695   43.2205    6.9704 S   0  0  0  0  0  0  0  0  0  0  0  0
  1 18  1  0
  1 23  1  0
  3  2  1  0
  3 20  1  0
  4 20  1  0
  5  6  2  0
  7  8  2  0
  9  4  2  0
 10 23  1  0
 11 12  2  0
 11 19  1  0
 12 22  1  0
 13 14  2  0
 15 10  2  0
 16 22  1  0
 16 17  1  0
 18  2  1  0
  1 19  2  0
  2 21  2  0
  4  5  1  0
  6  7  1  0
  8  9  1  0
 10 11  1  0
 12 13  1  0
 14 15  1  0
M  END
>  <rmsd>  (1) 
0.246604621

$$$$
