MolPort-039-210-396 CSSS03436989980 MCULE-9187658324 PubChem-121016984
     RDKit          3D

 25 28  0  0  0  0  0  0  0  0999 V2000
   15.0420   44.8888    4.8296 O   0  0  0  0  0  0  0  0  0  0  0  0
   13.4603   41.3539   10.5603 O   0  0  0  0  0  0  0  0  0  0  0  0
   13.8758   44.4168    4.7341 C   0  0  0  0  0  0  0  0  0  0  0  0
   14.3040   42.6422    6.5113 C   0  0  0  0  0  0  0  0  0  0  0  0
   13.9155   41.5643    7.2735 C   0  0  0  0  0  0  0  0  0  0  0  0
   15.0099   40.2015    9.0367 C   0  0  0  0  0  0  0  0  0  0  0  0
   14.7457   40.7685   10.4332 C   0  0  2  0  0  0  0  0  0  0  0  0
   15.0241   39.7441   11.5403 C   0  0  0  0  0  0  0  0  0  0  0  0
   13.9153   38.6989   11.5970 C   0  0  0  0  0  0  0  0  0  0  0  0
   12.5598   39.3872   11.6393 C   0  0  0  0  0  0  0  0  0  0  0  0
   12.4685   40.3526   10.4621 C   0  0  0  0  0  0  0  0  0  0  0  0
   15.6036   42.9613    6.8606 C   0  0  0  0  0  0  0  0  0  0  0  0
   12.9081   45.0361    3.7544 C   0  0  0  0  0  0  0  0  0  0  0  0
   13.4522   44.8437    2.3391 C   0  0  0  0  0  0  0  0  0  0  0  0
   12.3198   44.2852    1.5055 C   0  0  0  0  0  0  0  0  0  0  0  0
   11.4337   43.5563    2.4846 C   0  0  0  0  0  0  0  0  0  0  0  0
   11.5496   44.3337    3.7783 C   0  0  0  0  0  0  0  0  0  0  0  0
   12.7090   46.4975    4.0837 C   0  0  0  0  0  0  0  0  0  0  0  0
   12.1851   46.9863    5.2757 C   0  0  0  0  0  0  0  0  0  0  0  0
   12.1224   48.3872    5.3181 C   0  0  0  0  0  0  0  0  0  0  0  0
   12.5939   49.0210    4.1710 C   0  0  0  0  0  0  0  0  0  0  0  0
   13.4796   43.2999    5.5439 N   0  0  0  0  0  0  0  0  0  0  0  0
   14.9746   41.2630    8.0450 N   0  0  0  0  0  0  0  0  0  0  0  0
   15.9836   42.0884    7.8142 N   0  0  0  0  0  0  0  0  0  0  0  0
   13.0890   47.8151    3.1083 S   0  0  0  0  0  0  0  0  0  0  0  0
  3 22  1  0
  5 23  1  0
  6 23  1  0
  7  6  1  6
  7  8  1  0
  7  2  1  0
  8  9  1  0
  9 10  1  0
 10 11  1  0
 11  2  1  0
 12  4  1  0
 13  3  1  0
 13 14  1  0
 13 18  1  0
 14 15  1  0
 15 16  1  0
 16 17  1  0
 17 13  1  0
 18 25  1  0
 19 20  1  0
 21 25  1  0
 22  4  1  0
 23 24  1  0
  3  1  2  0
  4  5  2  0
 12 24  2  0
 18 19  2  0
 20 21  2  0
M  END
>  <rmsd>  (1) 
0.243573248

$$$$
