MolPort-002-786-865 9777945 CSC046478744 CSSS00046478744 LN01162733 MCULE-7710624974 PubChem-17095034 ZINC000009777945 ZINC09777945
     RDKit          3D

 17 18  0  0  0  0  0  0  0  0999 V2000
   11.2344   39.6338   10.8734 C   0  0  0  0  0  0  0  0  0  0  0  0
   12.3368   38.9114   11.6241 C   0  0  0  0  0  0  0  0  0  0  0  0
   13.6248   39.7182   11.5896 C   0  0  0  0  0  0  0  0  0  0  0  0
   14.3884   39.4810   10.2960 C   0  0  0  0  0  0  0  0  0  0  0  0
   14.3700   41.1308    8.4512 C   0  0  0  0  0  0  0  0  0  0  0  0
   15.6898   41.5339    8.7087 C   0  0  0  0  0  0  0  0  0  0  0  0
   16.2871   42.5257    7.9274 C   0  0  0  0  0  0  0  0  0  0  0  0
   15.5698   43.1195    6.8860 C   0  0  0  0  0  0  0  0  0  0  0  0
   14.2498   42.7263    6.6192 C   0  0  0  0  0  0  0  0  0  0  0  0
   13.9070   44.3483    4.6619 C   0  0  0  0  0  0  0  0  0  0  0  0
   12.9717   44.8318    3.6018 C   0  0  0  0  0  0  0  0  0  0  0  0
   12.5543   43.6748    2.7121 C   0  0  0  0  0  0  0  0  0  0  0  0
   13.6029   44.6521    2.2328 C   0  0  0  0  0  0  0  0  0  0  0  0
   13.6598   41.7313    7.4063 C   0  0  0  0  0  0  0  0  0  0  0  0
   13.7433   40.1422    9.2143 O   0  0  0  0  0  0  0  0  0  0  0  0
   15.0390   44.8895    4.7844 O   0  0  0  0  0  0  0  0  0  0  0  0
   13.4831   43.3104    5.5575 N   0  0  0  0  0  0  0  0  0  0  0  0
  1  2  1  0
  2  3  1  0
  3  4  1  0
  4 15  1  0
  5 15  1  0
  6  7  2  0
  8  9  2  0
  9 17  1  0
 11 10  1  0
 11 12  1  0
 12 13  1  0
 13 11  1  0
 14  5  2  0
 17 10  1  0
  5  6  1  0
  7  8  1  0
  9 14  1  0
 10 16  2  0
M  END
>  <rmsd>  (1) 
0.244265378

$$$$
