MolPort-009-692-422 9320458 CSSS03437188557 MCULE-7610529004 PubChem-16949111 ZINC000009320458 ZINC09320458
     RDKit          3D

 27 29  0  0  0  0  0  0  0  0999 V2000
   12.3222   48.3444    3.8634 C   0  0  0  0  0  0  0  0  0  0  0  0
   12.3423   47.2273    4.8484 C   0  0  0  0  0  0  0  0  0  0  0  0
   12.9724   44.9582    3.6811 C   0  0  0  0  0  0  0  0  0  0  0  0
   13.8974   44.3969    4.7051 C   0  0  0  0  0  0  0  0  0  0  0  0
   14.2507   42.7027    6.5608 C   0  0  0  0  0  0  0  0  0  0  0  0
   16.0213   42.3451    7.9055 C   0  0  0  0  0  0  0  0  0  0  0  0
   15.1537   41.3497    8.3930 C   0  0  0  0  0  0  0  0  0  0  0  0
   15.4619   40.2847    9.3705 C   0  0  0  0  0  0  0  0  0  0  0  0
   14.4724   39.8324   10.3735 C   0  0  0  0  0  0  0  0  0  0  0  0
   14.7207   38.6762   11.1293 C   0  0  0  0  0  0  0  0  0  0  0  0
   13.8035   38.2472   12.0933 C   0  0  0  0  0  0  0  0  0  0  0  0
   12.6311   38.9740   12.3142 C   0  0  0  0  0  0  0  0  0  0  0  0
   12.3769   40.1306   11.5733 C   0  0  0  0  0  0  0  0  0  0  0  0
   13.2945   40.5588   10.6098 C   0  0  0  0  0  0  0  0  0  0  0  0
   17.3662   42.6508    8.4414 C   0  0  0  0  0  0  0  0  0  0  0  0
   17.7015   42.3762    9.7761 C   0  0  0  0  0  0  0  0  0  0  0  0
   18.9646   42.7083   10.2740 C   0  0  0  0  0  0  0  0  0  0  0  0
   19.9010   43.3293    9.4439 C   0  0  0  0  0  0  0  0  0  0  0  0
   19.5723   43.6222    8.1181 C   0  0  0  0  0  0  0  0  0  0  0  0
   18.3086   43.2892    7.6214 C   0  0  0  0  0  0  0  0  0  0  0  0
   12.9198   47.3657    5.9138 O   0  0  0  0  0  0  0  0  0  0  0  0
   15.0537   44.8822    4.8231 O   0  0  0  0  0  0  0  0  0  0  0  0
   16.5926   39.7279    9.3267 O   0  0  0  0  0  0  0  0  0  0  0  0
   11.5054   45.6869    4.4752 S   0  0  0  0  0  0  0  0  0  0  0  0
   13.7208   41.4256    7.5054 S   0  0  0  0  0  0  0  0  0  0  0  0
   13.4658   43.3095    5.5303 N   0  0  0  0  0  0  0  0  0  0  0  0
   15.5028   43.0874    6.8869 N   0  0  0  0  0  0  0  0  0  0  0  0
  1  2  1  0
  2 24  1  0
  3 24  1  0
  3  4  1  0
  4 26  1  0
  5 25  1  0
  6 27  1  0
  6 15  1  0
  7 25  1  0
  7  8  1  0
  8  9  1  0
 10 11  2  0
 12 13  2  0
 14  9  2  0
 16 17  2  0
 18 19  2  0
 20 15  2  0
 26  5  1  0
  2 21  2  0
  4 22  2  0
  5 27  2  0
  6  7  2  0
  8 23  2  0
  9 10  1  0
 11 12  1  0
 13 14  1  0
 15 16  1  0
 17 18  1  0
 19 20  1  0
M  END
>  <rmsd>  (1) 
0.209576905

$$$$
