Molport-047-879-298 PubChem-165936795
     RDKit          3D

 29 31  0  0  0  0  0  0  0  0999 V2000
   15.0388   45.3075   11.8788 C   0  0  0  0  0  0  0  0  0  0  0  0
   16.1484   44.3390   12.2528 C   0  0  0  0  0  0  0  0  0  0  0  0
   17.3852   45.1102   12.6805 C   0  0  0  0  0  0  0  0  0  0  0  0
   15.6771   43.5017   13.4227 C   0  0  0  0  0  0  0  0  0  0  0  0
   16.9100   43.8905    9.9071 C   0  0  0  0  0  0  0  0  0  0  0  0
   17.1079   42.8845    8.8278 C   0  0  0  0  0  0  0  0  0  0  0  0
   14.8599   41.8246    8.5067 C   0  0  0  0  0  0  0  0  0  0  0  0
   13.8268   41.9285    7.6182 C   0  0  0  0  0  0  0  0  0  0  0  0
   12.6492   41.1986    7.7527 C   0  0  0  0  0  0  0  0  0  0  0  0
   12.5563   40.3318    8.8582 C   0  0  0  0  0  0  0  0  0  0  0  0
   13.6215   40.2225    9.7827 C   0  0  0  0  0  0  0  0  0  0  0  0
   14.7979   40.9784    9.6136 C   0  0  0  0  0  0  0  0  0  0  0  0
   14.2460   42.8613    6.6967 C   0  0  0  0  0  0  0  0  0  0  0  0
   13.9282   44.3015    4.6329 C   0  0  0  0  0  0  0  0  0  0  0  0
   13.4698   45.5796    2.5654 C   0  0  0  0  0  0  0  0  0  0  0  0
   14.3931   44.9510    1.5776 C   0  0  0  0  0  0  0  0  0  0  0  0
   13.8974   44.0511    0.6273 C   0  0  0  0  0  0  0  0  0  0  0  0
   14.7652   43.4569   -0.2935 C   0  0  0  0  0  0  0  0  0  0  0  0
   16.1300   43.7596   -0.2629 C   0  0  0  0  0  0  0  0  0  0  0  0
   16.6270   44.6559    0.6885 C   0  0  0  0  0  0  0  0  0  0  0  0
   15.7592   45.2506    1.6087 C   0  0  0  0  0  0  0  0  0  0  0  0
   16.4475   43.4676   11.1604 O   0  0  0  0  0  0  0  0  0  0  0  0
   17.1224   45.1089    9.6663 O   0  0  0  0  0  0  0  0  0  0  0  0
   15.0469   44.8674    4.7742 O   0  0  0  0  0  0  0  0  0  0  0  0
   13.0942   44.6387    3.5644 O   0  0  0  0  0  0  0  0  0  0  0  0
   15.8520   42.6528    8.1301 N   0  0  0  0  0  0  0  0  0  0  0  0
   15.4852   43.2990    7.0282 N   0  0  0  0  0  0  0  0  0  0  0  0
   13.4892   43.3120    5.5681 N   0  0  0  0  0  0  0  0  0  0  0  0
   13.4594   39.0469   11.2740 Br  0  0  0  0  0  0  0  0  0  0  0  0
  1  2  1  0
  2  3  1  0
  2  4  1  0
  2 22  1  0
  5 22  1  0
  6  5  1  0
  6 26  1  0
  8  9  2  0
  8 13  1  0
 10 11  2  0
 11 29  1  0
 12  7  2  0
 13 28  1  0
 14 25  1  0
 15 25  1  0
 15 16  1  0
 17 18  2  0
 19 20  2  0
 21 16  2  0
 26  7  1  0
 26 27  1  0
 28 14  1  0
  5 23  2  0
  7  8  1  0
  9 10  1  0
 11 12  1  0
 13 27  2  0
 14 24  2  0
 16 17  1  0
 18 19  1  0
 20 21  1  0
M  END
>  <rmsd>  (1) 
0.241923824

$$$$
