MolPort-002-764-926 MCULE-8940206986 PubChem-19587676
     RDKit          3D

 28 30  0  0  0  0  0  0  0  0999 V2000
   12.9474   39.4864   11.9349 C   0  0  0  0  0  0  0  0  0  0  0  0
   13.9836   39.3433   10.8394 C   0  0  0  0  0  0  0  0  0  0  0  0
   14.9923   40.2701    9.1090 C   0  0  0  0  0  0  0  0  0  0  0  0
   13.8948   41.6164    7.3313 C   0  0  0  0  0  0  0  0  0  0  0  0
   14.2950   42.6685    6.5395 C   0  0  0  0  0  0  0  0  0  0  0  0
   13.8894   44.3945    4.7120 C   0  0  0  0  0  0  0  0  0  0  0  0
   12.9437   44.9590    3.7061 C   0  0  1  0  0  0  0  0  0  0  0  0
   12.5306   43.8929    2.7024 C   0  0  0  0  0  0  0  0  0  0  0  0
   11.5731   44.5027    1.6933 C   0  0  0  0  0  0  0  0  0  0  0  0
   10.3543   45.0803    2.4162 C   0  0  0  0  0  0  0  0  0  0  0  0
   11.7069   45.5358    4.4002 C   0  0  0  0  0  0  0  0  0  0  0  0
   11.5351   48.7499    4.0010 C   0  0  0  0  0  0  0  0  0  0  0  0
   12.7000   48.9793    4.6988 C   0  0  0  0  0  0  0  0  0  0  0  0
   14.0025   48.2695    4.5336 C   0  0  0  0  0  0  0  0  0  0  0  0
   13.4162   50.5322    6.5199 C   0  0  0  0  0  0  0  0  0  0  0  0
   10.6035   49.6372    4.5127 C   0  0  0  0  0  0  0  0  0  0  0  0
   15.5999   42.9805    6.8762 C   0  0  0  0  0  0  0  0  0  0  0  0
   14.0695   40.5364   10.1213 O   0  0  0  0  0  0  0  0  0  0  0  0
   15.0421   44.8921    4.8149 O   0  0  0  0  0  0  0  0  0  0  0  0
   12.5132   47.3625    1.9444 O   0  0  0  0  0  0  0  0  0  0  0  0
   10.1834   48.0828    1.8151 O   0  0  0  0  0  0  0  0  0  0  0  0
   14.9497   41.3277    8.1138 N   0  0  0  0  0  0  0  0  0  0  0  0
   13.4810   43.3021    5.5472 N   0  0  0  0  0  0  0  0  0  0  0  0
   10.7161   46.0629    3.4496 N   0  0  0  0  0  0  0  0  0  0  0  0
   12.4637   49.9645    5.5801 N   0  0  0  0  0  0  0  0  0  0  0  0
   11.2073   50.3663    5.4776 N   0  0  0  0  0  0  0  0  0  0  0  0
   15.9710   42.1286    7.8521 N   0  0  0  0  0  0  0  0  0  0  0  0
   11.2508   47.5619    2.7374 S   0  0  0  0  0  0  0  0  0  0  0  0
  1  2  1  0
  2 18  1  0
  3 18  1  0
  3 22  1  0
  5 23  1  0
  5 17  1  0
  7  6  1  1
  7  8  1  0
  8  9  1  0
  9 10  1  0
 10 24  1  0
 11 24  1  0
 11  7  1  0
 13 25  1  0
 14 13  1  0
 15 25  1  0
 16 12  1  0
 22  4  1  0
 22 27  1  0
 23  6  1  0
 25 26  1  0
 28 24  1  0
 28 12  1  0
  4  5  2  0
  6 19  2  0
 12 13  2  0
 16 26  2  0
 17 27  2  0
 28 20  2  0
 28 21  2  0
M  END
>  <rmsd>  (1) 
0.1994441

$$$$
