MolPort-029-901-571 CSSS00159880775 MCULE-6545676483 PubChem-72913081
     RDKit          3D

 25 27  0  0  0  0  0  0  0  0999 V2000
   13.5970   47.1754    3.3151 C   0  0  0  0  0  0  0  0  0  0  0  0
   13.3916   45.8417    2.6211 C   0  0  1  0  0  0  0  0  0  0  0  0
   14.6317   45.4709    1.8146 C   0  0  0  0  0  0  0  0  0  0  0  0
   14.3789   44.2865    0.9421 C   0  0  0  0  0  0  0  0  0  0  0  0
   14.8384   42.0293    0.3903 C   0  0  0  0  0  0  0  0  0  0  0  0
   13.9359   42.1047   -0.6722 C   0  0  0  0  0  0  0  0  0  0  0  0
   13.4790   44.3632   -0.1254 C   0  0  0  0  0  0  0  0  0  0  0  0
   13.9187   44.3626    4.6477 C   0  0  0  0  0  0  0  0  0  0  0  0
   14.1916   42.7450    6.6185 C   0  0  0  0  0  0  0  0  0  0  0  0
   13.5824   41.7340    7.3696 C   0  0  0  0  0  0  0  0  0  0  0  0
   14.2499   41.1418    8.4467 C   0  0  0  0  0  0  0  0  0  0  0  0
   14.1803   39.4998   10.3083 C   0  0  0  0  0  0  0  0  0  0  0  0
   13.4214   38.2209   10.6163 C   0  0  0  0  0  0  0  0  0  0  0  0
   12.7136   38.4436   11.9356 C   0  0  0  0  0  0  0  0  0  0  0  0
   13.5024   39.5228   12.6360 C   0  0  0  0  0  0  0  0  0  0  0  0
   14.0428   40.3972   11.5279 C   0  0  0  0  0  0  0  0  0  0  0  0
   15.5471   41.5684    8.7723 C   0  0  0  0  0  0  0  0  0  0  0  0
   16.1633   42.5768    8.0278 C   0  0  0  0  0  0  0  0  0  0  0  0
   15.4879   43.1631    6.9547 C   0  0  0  0  0  0  0  0  0  0  0  0
   15.0416   43.1221    1.1728 N   0  0  0  0  0  0  0  0  0  0  0  0
   13.2766   43.2700   -0.9075 N   0  0  0  0  0  0  0  0  0  0  0  0
   13.0567   44.8012    3.5920 N   0  0  0  0  0  0  0  0  0  0  0  0
   13.4675   43.3214    5.5230 N   0  0  0  0  0  0  0  0  0  0  0  0
   15.0557   44.8864    4.7978 O   0  0  0  0  0  0  0  0  0  0  0  0
   13.6051   40.1327    9.1702 O   0  0  0  0  0  0  0  0  0  0  0  0
  2  1  1  1
  2  3  1  0
  2 22  1  0
  3  4  1  0
  5 20  2  0
  6 21  2  0
  7  4  2  0
  8 23  1  0
 10 11  2  0
 11 25  1  0
 12 25  1  0
 12 13  1  0
 13 14  1  0
 14 15  1  0
 15 16  1  0
 16 12  1  0
 17 18  2  0
 19  9  2  0
 22  8  1  0
 23  9  1  0
  4 20  1  0
  5  6  1  0
  7 21  1  0
  8 24  2  0
  9 10  1  0
 11 17  1  0
 18 19  1  0
M  END
>  <rmsd>  (1) 
0.248787373

$$$$
