MolPort-002-278-582 568467 CSSS00030047638 MCULE-7370993696 PubChem-959490 ZINC000000568467 ZINC00568467
     RDKit          3D

 23 24  0  0  0  0  0  0  0  0999 V2000
   13.4424   39.5379   12.0755 C   0  0  0  0  0  0  0  0  0  0  0  0
   13.6431   38.8145   10.7562 C   0  0  0  0  0  0  0  0  0  0  0  0
   14.8272   40.5761    9.4810 C   0  0  0  0  0  0  0  0  0  0  0  0
   14.8191   41.5557    8.3753 C   0  0  0  0  0  0  0  0  0  0  0  0
   15.8283   42.4458    8.0270 C   0  0  0  0  0  0  0  0  0  0  0  0
   17.1443   42.5928    8.7100 C   0  0  0  0  0  0  0  0  0  0  0  0
   14.2385   42.7792    6.6293 C   0  0  0  0  0  0  0  0  0  0  0  0
   13.9176   44.3514    4.6602 C   0  0  0  0  0  0  0  0  0  0  0  0
   13.4361   45.8383    2.6834 C   0  0  0  0  0  0  0  0  0  0  0  0
   12.3360   46.0754    1.7101 C   0  0  0  0  0  0  0  0  0  0  0  0
   12.2855   45.3436    0.5184 C   0  0  0  0  0  0  0  0  0  0  0  0
   11.2397   45.5510   -0.3864 C   0  0  0  0  0  0  0  0  0  0  0  0
   10.2409   46.4862   -0.0982 C   0  0  0  0  0  0  0  0  0  0  0  0
   10.2863   47.2127    1.0958 C   0  0  0  0  0  0  0  0  0  0  0  0
   11.3320   47.0057    2.0009 C   0  0  0  0  0  0  0  0  0  0  0  0
   13.7989   41.7786    7.4686 C   0  0  0  0  0  0  0  0  0  0  0  0
   12.4789   41.0882    7.3950 C   0  0  0  0  0  0  0  0  0  0  0  0
   13.7187   39.7484    9.6854 O   0  0  0  0  0  0  0  0  0  0  0  0
   15.8342   40.4829   10.2347 O   0  0  0  0  0  0  0  0  0  0  0  0
   15.0552   44.8771    4.8025 O   0  0  0  0  0  0  0  0  0  0  0  0
   15.4776   43.1944    6.9615 N   0  0  0  0  0  0  0  0  0  0  0  0
   13.4764   43.3131    5.5404 N   0  0  0  0  0  0  0  0  0  0  0  0
   13.0519   44.7884    3.6134 N   0  0  0  0  0  0  0  0  0  0  0  0
  1  2  1  0
  2 18  1  0
  3 18  1  0
  3  4  1  0
  5 21  1  0
  6  5  1  0
  7 22  1  0
  8 23  1  0
  9 23  1  0
  9 10  1  0
 11 12  2  0
 13 14  2  0
 15 10  2  0
 16  4  1  0
 17 16  1  0
 21  7  1  0
 22  8  1  0
  3 19  2  0
  4  5  2  0
  7 16  2  0
  8 20  2  0
 10 11  1  0
 12 13  1  0
 14 15  1  0
M  END
>  <rmsd>  (1) 
0.189452291

$$$$
