MolPort-046-676-541 MCULE-3604227003 PubChem-137944645
     RDKit          3D

 23 24  0  0  0  0  0  0  0  0999 V2000
   13.5176   39.3573   11.3420 C   0  0  0  0  0  0  0  0  0  0  0  0
   14.3702   39.2724   10.0904 C   0  0  1  0  0  0  0  0  0  0  0  0
   14.3488   41.0156    8.3335 C   0  0  0  0  0  0  0  0  0  0  0  0
   15.6476   41.4445    8.6497 C   0  0  0  0  0  0  0  0  0  0  0  0
   16.2345   42.4929    7.9377 C   0  0  0  0  0  0  0  0  0  0  0  0
   15.5280   43.1177    6.9072 C   0  0  0  0  0  0  0  0  0  0  0  0
   14.2296   42.6981    6.5812 C   0  0  0  0  0  0  0  0  0  0  0  0
   13.8961   44.3922    4.6853 C   0  0  0  0  0  0  0  0  0  0  0  0
   13.3304   45.9746    2.8699 C   0  0  0  0  0  0  0  0  0  0  0  0
   13.1687   47.2642    3.6011 C   0  0  0  0  0  0  0  0  0  0  0  0
   11.8890   47.7618    3.8723 C   0  0  0  0  0  0  0  0  0  0  0  0
   11.7389   48.9641    4.5703 C   0  0  0  0  0  0  0  0  0  0  0  0
   12.8678   49.6686    5.0000 C   0  0  0  0  0  0  0  0  0  0  0  0
   14.1468   49.1707    4.7325 C   0  0  0  0  0  0  0  0  0  0  0  0
   14.2971   47.9685    4.0345 C   0  0  0  0  0  0  0  0  0  0  0  0
   13.6492   41.6473    7.3000 C   0  0  0  0  0  0  0  0  0  0  0  0
   14.5961   37.8487    9.7060 C   0  0  0  0  0  0  0  0  0  0  0  0
   13.7335   39.9691    9.0264 O   0  0  0  0  0  0  0  0  0  0  0  0
   15.0484   44.8922    4.8024 O   0  0  0  0  0  0  0  0  0  0  0  0
   13.0120   44.8771    3.7188 O   0  0  0  0  0  0  0  0  0  0  0  0
   15.8860   37.3359    9.6970 O   0  0  0  0  0  0  0  0  0  0  0  0
   13.6273   37.1115    9.3823 O   0  0  0  0  0  0  0  0  0  0  0  0
   13.4724   43.3158    5.5313 N   0  0  0  0  0  0  0  0  0  0  0  0
  2  1  1  1
  2 18  1  0
  2 17  1  0
  3 18  1  0
  4  5  2  0
  6  7  2  0
  7 23  1  0
  8 20  1  0
  9 20  1  0
  9 10  1  0
 11 12  2  0
 13 14  2  0
 15 10  2  0
 16  3  2  0
 17 21  1  0
 23  8  1  0
  3  4  1  0
  5  6  1  0
  7 16  1  0
  8 19  2  0
 10 11  1  0
 12 13  1  0
 14 15  1  0
 17 22  2  0
M  END
>  <rmsd>  (1) 
0.238895476

$$$$
