Molport-051-825-208 MCULE-6404919247 MCULE-9761543365
     RDKit          3D

 29 31  0  0  0  0  0  0  0  0999 V2000
   13.4151   39.3181   11.2954 C   0  0  0  0  0  0  0  0  0  0  0  0
   11.8053   40.4628   10.0637 C   0  0  0  0  0  0  0  0  0  0  0  0
   11.4016   41.9216    9.9692 C   0  0  0  0  0  0  0  0  0  0  0  0
   13.8497   39.8791    9.0781 C   0  0  0  0  0  0  0  0  0  0  0  0
   14.4488   41.0135    8.3189 C   0  0  0  0  0  0  0  0  0  0  0  0
   15.7229   41.4842    8.6508 C   0  0  0  0  0  0  0  0  0  0  0  0
   16.2724   42.5626    7.9530 C   0  0  0  0  0  0  0  0  0  0  0  0
   15.5463   43.1731    6.9264 C   0  0  0  0  0  0  0  0  0  0  0  0
   14.2652   42.7095    6.5904 C   0  0  0  0  0  0  0  0  0  0  0  0
   13.8772   44.4023    4.6990 C   0  0  0  0  0  0  0  0  0  0  0  0
   12.9264   44.9372    3.6883 C   0  0  0  0  0  0  0  0  0  0  0  0
   11.5328   44.9708    3.9185 C   0  0  0  0  0  0  0  0  0  0  0  0
   10.9159   44.5313    5.2040 C   0  0  0  0  0  0  0  0  0  0  0  0
   10.6846   45.4782    2.9378 C   0  0  0  0  0  0  0  0  0  0  0  0
   11.2276   45.9436    1.7432 C   0  0  0  0  0  0  0  0  0  0  0  0
   13.3944   45.4337    2.4500 C   0  0  0  0  0  0  0  0  0  0  0  0
   10.3231   46.4836    0.6875 C   0  0  2  0  0  0  0  0  0  0  0  0
   10.3899   45.6074   -0.5656 C   0  0  0  0  0  0  0  0  0  0  0  0
    9.6722   46.2738   -1.7397 C   0  0  0  0  0  0  0  0  0  0  0  0
   10.0337   47.7604   -1.8844 C   0  0  0  0  0  0  0  0  0  0  0  0
   10.6535   47.9576    0.3974 C   0  0  0  0  0  0  0  0  0  0  0  0
   13.7221   41.6302    7.2950 C   0  0  0  0  0  0  0  0  0  0  0  0
   13.2357   40.3639   10.3051 N   0  0  0  0  0  0  0  0  0  0  0  0
   13.4855   43.3150    5.5505 N   0  0  0  0  0  0  0  0  0  0  0  0
   11.1137   48.1506   -0.9778 N   0  0  0  0  0  0  0  0  0  0  0  0
   10.0312   42.0102    9.7307 O   0  0  0  0  0  0  0  0  0  0  0  0
   15.0358   44.8925    4.7866 O   0  0  0  0  0  0  0  0  0  0  0  0
   12.5418   45.9067    1.5458 O   0  0  0  0  0  0  0  0  0  0  0  0
   14.6240   45.4225    2.1750 O   0  0  0  0  0  0  0  0  0  0  0  0
  1 23  1  0
  2 23  1  0
  2  3  1  0
  3 26  1  0
  4 23  1  0
  4  5  1  0
  6  7  2  0
  8  9  2  0
  9 24  1  0
 10 11  1  0
 12 14  1  0
 13 12  1  0
 15 28  1  0
 16 28  1  0
 16 11  1  0
 17 15  1  1
 17 18  1  0
 18 19  1  0
 19 20  1  0
 20 25  1  0
 21 25  1  0
 21 17  1  0
 22  5  2  0
 24 10  1  0
  5  6  1  0
  7  8  1  0
  9 22  1  0
 10 27  2  0
 11 12  2  0
 14 15  2  0
 16 29  2  0
M  END
>  <rmsd>  (1) 
0.230769902

$$$$
