MolPort-035-706-965 CSSS03437789219 MCULE-5786311522 PubChem-91938290
     RDKit          3D

 28 30  0  0  0  0  0  0  0  0999 V2000
   13.6620   34.6258   10.8962 C   0  0  0  0  0  0  0  0  0  0  0  0
   14.8044   35.4258   10.3061 C   0  0  0  0  0  0  0  0  0  0  0  0
   14.5322   37.7947    9.6867 C   0  0  0  0  0  0  0  0  0  0  0  0
   14.4020   39.2331   10.1080 C   0  0  1  0  0  0  0  0  0  0  0  0
   13.5027   39.3245   11.3311 C   0  0  0  0  0  0  0  0  0  0  0  0
   14.3594   41.0328    8.3488 C   0  0  0  0  0  0  0  0  0  0  0  0
   13.6568   41.6491    7.3090 C   0  0  0  0  0  0  0  0  0  0  0  0
   14.2293   42.7071    6.5942 C   0  0  0  0  0  0  0  0  0  0  0  0
   13.8968   44.3905    4.6901 C   0  0  0  0  0  0  0  0  0  0  0  0
   12.9573   44.9310    3.6664 C   0  0  0  0  0  0  0  0  0  0  0  0
   11.7949   45.6710    4.3181 C   0  0  0  0  0  0  0  0  0  0  0  0
   12.1729   47.0616    4.7129 C   0  0  0  0  0  0  0  0  0  0  0  0
   13.0306   47.2909    5.7969 C   0  0  0  0  0  0  0  0  0  0  0  0
   13.3570   48.5984    6.1693 C   0  0  0  0  0  0  0  0  0  0  0  0
   12.8212   49.6800    5.4640 C   0  0  0  0  0  0  0  0  0  0  0  0
   11.9569   49.4543    4.3884 C   0  0  0  0  0  0  0  0  0  0  0  0
   11.6305   48.1466    4.0158 C   0  0  0  0  0  0  0  0  0  0  0  0
   15.5181   43.1473    6.9337 C   0  0  0  0  0  0  0  0  0  0  0  0
   16.2230   42.5349    7.9736 C   0  0  0  0  0  0  0  0  0  0  0  0
   15.6429   41.4783    8.6794 C   0  0  0  0  0  0  0  0  0  0  0  0
   15.7726   39.7691   10.4694 C   0  0  0  0  0  0  0  0  0  0  0  0
   14.6550   36.7937   10.6549 O   0  0  0  0  0  0  0  0  0  0  0  0
   14.5873   37.5018    8.4601 O   0  0  0  0  0  0  0  0  0  0  0  0
   13.7710   39.9760    9.0517 O   0  0  0  0  0  0  0  0  0  0  0  0
   15.0471   44.8922    4.7960 O   0  0  0  0  0  0  0  0  0  0  0  0
   16.4239   39.2504   11.4158 O   0  0  0  0  0  0  0  0  0  0  0  0
   13.4737   43.3137    5.5372 N   0  0  0  0  0  0  0  0  0  0  0  0
   16.3505   40.8542    9.7439 N   0  0  0  0  0  0  0  0  0  0  0  0
  1  2  1  0
  2 22  1  0
  3 22  1  0
  4  3  1  0
  4  5  1  1
  4 24  1  0
  4 21  1  0
  6 24  1  0
  7  8  2  0
  8 27  1  0
 10  9  1  0
 10 11  1  0
 11 12  1  0
 13 14  2  0
 15 16  2  0
 17 12  2  0
 18 19  2  0
 20 28  1  0
 20  6  2  0
 27  9  1  0
 28 21  1  0
  3 23  2  0
  6  7  1  0
  8 18  1  0
  9 25  2  0
 12 13  1  0
 14 15  1  0
 16 17  1  0
 19 20  1  0
 21 26  2  0
M  END
>  <rmsd>  (1) 
0.233119413

$$$$
