MolPort-020-280-781 MCULE-7982223215 PubChem-110256834
     RDKit          3D

 25 27  0  0  0  0  0  0  0  0999 V2000
   17.6022   43.1828    8.1666 C   0  0  0  0  0  0  0  0  0  0  0  0
   16.2337   42.6660    7.9058 C   0  0  0  0  0  0  0  0  0  0  0  0
   14.4737   41.1851    8.4546 C   0  0  0  0  0  0  0  0  0  0  0  0
   13.7000   41.7112    7.4203 C   0  0  0  0  0  0  0  0  0  0  0  0
   14.2363   42.7322    6.6361 C   0  0  0  0  0  0  0  0  0  0  0  0
   13.8473   44.3254    4.6765 C   0  0  0  0  0  0  0  0  0  0  0  0
   15.4447   45.9074    3.9202 C   0  0  0  0  0  0  0  0  0  0  0  0
   14.5574   46.3306    2.9296 C   0  0  0  0  0  0  0  0  0  0  0  0
   12.9620   44.7513    3.6840 C   0  0  0  0  0  0  0  0  0  0  0  0
   13.9189   40.0914    9.3053 C   0  0  2  0  0  0  0  0  0  0  0  0
   13.8192   40.5364   10.7676 C   0  0  0  0  0  0  0  0  0  0  0  0
   13.3603   39.4157   11.7145 C   0  0  0  0  0  0  0  0  0  0  0  0
   13.2042   38.0636   11.0175 C   0  0  0  0  0  0  0  0  0  0  0  0
   14.7683   38.8242    9.1812 C   0  0  0  0  0  0  0  0  0  0  0  0
   15.1283   36.5943   10.2734 C   0  0  0  0  0  0  0  0  0  0  0  0
   14.7910   35.5180   11.2636 C   0  0  0  0  0  0  0  0  0  0  0  0
   13.4166   34.9305   11.0038 C   0  0  0  0  0  0  0  0  0  0  0  0
   14.9038   36.0183   12.6915 C   0  0  0  0  0  0  0  0  0  0  0  0
   15.7249   41.6713    8.6781 N   0  0  0  0  0  0  0  0  0  0  0  0
   15.4921   43.1887    6.8948 N   0  0  0  0  0  0  0  0  0  0  0  0
   13.4500   43.2796    5.5713 N   0  0  0  0  0  0  0  0  0  0  0  0
   15.0709   44.9156    4.7708 N   0  0  0  0  0  0  0  0  0  0  0  0
   13.3355   45.7434    2.8331 N   0  0  0  0  0  0  0  0  0  0  0  0
   14.3589   37.8070   10.1555 N   0  0  0  0  0  0  0  0  0  0  0  0
   16.1261   36.4131    9.5251 O   0  0  0  0  0  0  0  0  0  0  0  0
  1  2  1  0
  2 20  2  0
  3 19  2  0
  4  5  2  0
  5 21  1  0
  7 22  2  0
  8 23  2  0
  9  6  2  0
 10  3  1  6
 10 11  1  0
 11 12  1  0
 12 13  1  0
 13 24  1  0
 14 24  1  0
 14 10  1  0
 16 15  1  0
 16 17  1  0
 16 18  1  0
 21  6  1  0
 24 15  1  0
  2 19  1  0
  3  4  1  0
  5 20  1  0
  6 22  1  0
  7  8  1  0
  9 23  1  0
 15 25  2  0
M  END
>  <rmsd>  (1) 
0.248098567

$$$$
