Molport-047-891-363 MCULE-4209140988 PubChem-160480027 PubChem-67268484
     RDKit          3D

 25 26  0  0  0  0  0  0  0  0999 V2000
   13.7081   41.7060   10.2619 B   0  0  0  0  0  0  0  0  0  0  0  0
   12.2574   41.7389   10.3432 O   0  0  0  0  0  0  0  0  0  0  0  0
   14.2963   40.7504   11.1853 O   0  0  0  0  0  0  0  0  0  0  0  0
   16.1784   42.4177    5.0898 O   0  0  0  0  0  0  0  0  0  0  0  0
   15.0398   44.8938    4.7884 O   0  0  0  0  0  0  0  0  0  0  0  0
   13.1577   44.5829    3.4763 O   0  0  0  0  0  0  0  0  0  0  0  0
   11.9663   40.4082   10.6791 C   0  0  0  0  0  0  0  0  0  0  0  0
   13.3021   39.7617   11.2365 C   0  0  0  0  0  0  0  0  0  0  0  0
   13.1901   39.2985   12.6863 C   0  0  0  0  0  0  0  0  0  0  0  0
   13.7799   38.5504   10.4331 C   0  0  0  0  0  0  0  0  0  0  0  0
   11.4145   39.7038    9.4377 C   0  0  0  0  0  0  0  0  0  0  0  0
   10.8325   40.4292   11.7003 C   0  0  0  0  0  0  0  0  0  0  0  0
   14.3889   41.9231    8.8680 C   0  0  0  0  0  0  0  0  0  0  0  0
   13.6732   42.5121    7.8219 C   0  0  0  0  0  0  0  0  0  0  0  0
   14.2716   42.7239    6.5754 C   0  0  0  0  0  0  0  0  0  0  0  0
   15.5987   42.2931    6.3577 C   0  0  0  0  0  0  0  0  0  0  0  0
   16.3135   41.7107    7.4179 C   0  0  0  0  0  0  0  0  0  0  0  0
   15.7141   41.5317    8.6656 C   0  0  0  0  0  0  0  0  0  0  0  0
   17.5059   41.9991    4.8029 C   0  0  0  0  0  0  0  0  0  0  0  0
   13.9505   44.2874    4.5933 C   0  0  0  0  0  0  0  0  0  0  0  0
   13.5029   45.5315    2.4638 C   0  0  0  0  0  0  0  0  0  0  0  0
   13.6351   46.9244    3.0549 C   0  0  0  0  0  0  0  0  0  0  0  0
   12.4013   45.5547    1.4257 C   0  0  0  0  0  0  0  0  0  0  0  0
   14.8003   45.1378    1.7786 C   0  0  0  0  0  0  0  0  0  0  0  0
   13.4824   43.3202    5.5379 N   0  0  0  0  0  0  0  0  0  0  0  0
  1  2  1  0
  1 13  1  0
  1  3  1  0
  7  2  1  0
  7  8  1  0
  7 11  1  0
  7 12  1  0
  8  3  1  0
  8  9  1  0
  8 10  1  0
 14 15  2  0
 15 25  1  0
 16 17  2  0
 16  4  1  0
 18 13  2  0
 19  4  1  0
 20  6  1  0
 21  6  1  0
 21 22  1  0
 21 23  1  0
 21 24  1  0
 25 20  1  0
 13 14  1  0
 15 16  1  0
 17 18  1  0
 20  5  2  0
M  END
>  <rmsd>  (1) 
0.243324593

$$$$
