MolPort-007-967-225 ChemDiv-L497-0048 MCULE-3085249082 PubChem-46385449 ZINC000033129559 ZINC33129559
     RDKit          3D

 25 27  0  0  0  0  0  0  0  0999 V2000
   16.5316   42.5039    5.4271 C   0  0  0  0  0  0  0  0  0  0  0  0
   15.6671   42.5190    6.6394 C   0  0  0  0  0  0  0  0  0  0  0  0
   14.3105   42.8503    6.7056 C   0  0  0  0  0  0  0  0  0  0  0  0
   13.9721   44.2017    4.5724 C   0  0  0  0  0  0  0  0  0  0  0  0
   13.1774   44.3629    3.3424 C   0  0  0  0  0  0  0  0  0  0  0  0
   11.9982   43.6261    3.1591 C   0  0  0  0  0  0  0  0  0  0  0  0
   11.2447   43.7768    1.9912 C   0  0  0  0  0  0  0  0  0  0  0  0
   11.6652   44.6653    0.9976 C   0  0  0  0  0  0  0  0  0  0  0  0
   12.8393   45.4029    1.1720 C   0  0  0  0  0  0  0  0  0  0  0  0
   13.5929   45.2522    2.3399 C   0  0  0  0  0  0  0  0  0  0  0  0
   10.8916   44.8196   -0.2017 C   0  0  0  0  0  0  0  0  0  0  0  0
   13.7321   42.6096    7.9581 C   0  0  0  0  0  0  0  0  0  0  0  0
   14.6529   42.1215    8.8748 C   0  0  0  0  0  0  0  0  0  0  0  0
   14.1038   39.6417   12.1106 C   0  0  0  0  0  0  0  0  0  0  0  0
   13.1496   38.4740   12.0902 C   0  0  0  0  0  0  0  0  0  0  0  0
   12.4462   38.6057   10.7709 C   0  0  0  0  0  0  0  0  0  0  0  0
   13.4364   39.3270    9.8827 C   0  0  0  0  0  0  0  0  0  0  0  0
   13.5222   43.3116    5.6017 N   0  0  0  0  0  0  0  0  0  0  0  0
   10.2680   44.9443   -1.1686 N   0  0  0  0  0  0  0  0  0  0  0  0
   14.4432   39.9645   10.7290 N   0  0  0  0  0  0  0  0  0  0  0  0
   15.0211   44.8823    4.7368 O   0  0  0  0  0  0  0  0  0  0  0  0
   12.9018   42.1271   10.8801 O   0  0  0  0  0  0  0  0  0  0  0  0
   15.2702   42.3835   11.4416 O   0  0  0  0  0  0  0  0  0  0  0  0
   16.1544   41.9473    8.1416 S   0  0  0  0  0  0  0  0  0  0  0  0
   14.2974   41.6834   10.5344 S   0  0  0  0  0  0  0  0  0  0  0  0
  1  2  1  0
  2 24  1  0
  3 18  1  0
  3 12  1  0
  4  5  1  0
  6  7  2  0
  8  9  2  0
  8 11  1  0
 10  5  2  0
 13 24  1  0
 14 20  1  0
 14 15  1  0
 15 16  1  0
 16 17  1  0
 17 20  1  0
 18  4  1  0
 25 13  1  0
 25 20  1  0
  2  3  2  0
  4 21  2  0
  5  6  1  0
  7  8  1  0
  9 10  1  0
 12 13  2  0
 25 22  2  0
 25 23  2  0
 11 19  3  0
M  END
>  <rmsd>  (1) 
0.246761203

$$$$
