MolPort-007-807-850 ChemDiv-F689-0640 MCULE-7230852670 PubChem-46325690 ZINC000033007958
     RDKit          3D

 27 29  0  0  0  0  0  0  0  0999 V2000
   19.3727   44.2015    8.6212 C   0  0  0  0  0  0  0  0  0  0  0  0
   17.2473   42.9382    8.6633 C   0  0  0  0  0  0  0  0  0  0  0  0
   15.9961   42.6819    8.0957 C   0  0  0  0  0  0  0  0  0  0  0  0
   14.2708   42.8447    6.6886 C   0  0  0  0  0  0  0  0  0  0  0  0
   13.9132   44.3164    4.6519 C   0  0  0  0  0  0  0  0  0  0  0  0
   13.0058   44.7069    3.5421 C   0  0  0  0  0  0  0  0  0  0  0  0
   15.1526   41.7341    8.6546 C   0  0  0  0  0  0  0  0  0  0  0  0
   15.5019   41.0058    9.7858 C   0  0  0  0  0  0  0  0  0  0  0  0
   16.7559   41.2495   10.3748 C   0  0  0  0  0  0  0  0  0  0  0  0
   14.7153   40.1060   12.9341 C   0  0  0  0  0  0  0  0  0  0  0  0
   14.7831   40.9656   14.0368 C   0  0  0  0  0  0  0  0  0  0  0  0
   13.6305   41.5921   14.5175 C   0  0  0  0  0  0  0  0  0  0  0  0
   12.4013   41.3655   13.8945 C   0  0  0  0  0  0  0  0  0  0  0  0
   12.3249   40.5125   12.7909 C   0  0  0  0  0  0  0  0  0  0  0  0
   13.4754   39.8818   12.3069 C   0  0  0  0  0  0  0  0  0  0  0  0
   17.6193   42.2097    9.8128 C   0  0  0  0  0  0  0  0  0  0  0  0
   18.0905   43.8957    8.0910 O   0  0  0  0  0  0  0  0  0  0  0  0
   15.0363   44.8759    4.7597 O   0  0  0  0  0  0  0  0  0  0  0  0
   15.9107   38.2190   11.4174 O   0  0  0  0  0  0  0  0  0  0  0  0
   16.9637   38.8195   13.5323 O   0  0  0  0  0  0  0  0  0  0  0  0
   15.5083   43.3077    6.9939 N   0  0  0  0  0  0  0  0  0  0  0  0
   13.4955   43.3105    5.5800 N   0  0  0  0  0  0  0  0  0  0  0  0
   17.1755   40.5404   11.5434 N   0  0  0  0  0  0  0  0  0  0  0  0
   13.7347   41.6517    7.7614 S   0  0  0  0  0  0  0  0  0  0  0  0
   16.2016   39.3578   12.3545 S   0  0  0  0  0  0  0  0  0  0  0  0
   13.7057   42.4206   15.5862 F   0  0  0  0  0  0  0  0  0  0  0  0
   13.3706   39.0668   11.2288 F   0  0  0  0  0  0  0  0  0  0  0  0
  1 17  1  0
  2 17  1  0
  3 21  1  0
  4 22  1  0
  4 24  1  0
  6  5  1  0
  7 24  1  0
  7  3  2  0
  8  9  2  0
  9 23  1  0
 11 12  2  0
 12 26  1  0
 13 14  2  0
 15 27  1  0
 15 10  2  0
 16  2  2  0
 22  5  1  0
 25 23  1  0
 25 10  1  0
  2  3  1  0
  4 21  2  0
  5 18  2  0
  7  8  1  0
  9 16  1  0
 10 11  1  0
 12 13  1  0
 14 15  1  0
 25 19  2  0
 25 20  2  0
M  END
>  <rmsd>  (1) 
0.242307812

$$$$
