MolPort-035-706-964 CSSS03437789218 MCULE-3222529105 PubChem-91938289
     RDKit          3D

 27 29  0  0  0  0  0  0  0  0999 V2000
   15.0190   36.3610    6.2441 C   0  0  0  0  0  0  0  0  0  0  0  0
   14.9618   36.3036    7.7557 C   0  0  0  0  0  0  0  0  0  0  0  0
   14.6479   37.8557    9.6411 C   0  0  0  0  0  0  0  0  0  0  0  0
   14.4276   39.2632   10.1253 C   0  0  1  0  0  0  0  0  0  0  0  0
   13.4952   39.2592   11.3284 C   0  0  0  0  0  0  0  0  0  0  0  0
   14.3597   41.0773    8.3835 C   0  0  0  0  0  0  0  0  0  0  0  0
   13.6629   41.6711    7.3272 C   0  0  0  0  0  0  0  0  0  0  0  0
   14.2262   42.7352    6.6139 C   0  0  0  0  0  0  0  0  0  0  0  0
   13.8967   44.3838    4.6740 C   0  0  0  0  0  0  0  0  0  0  0  0
   12.9776   44.8885    3.6387 C   0  0  0  0  0  0  0  0  0  0  0  0
   11.6896   44.3485    3.5103 C   0  0  0  0  0  0  0  0  0  0  0  0
   10.8165   44.8268    2.5287 C   0  0  0  0  0  0  0  0  0  0  0  0
   11.2251   45.8490    1.6682 C   0  0  0  0  0  0  0  0  0  0  0  0
   12.5063   46.3935    1.7895 C   0  0  0  0  0  0  0  0  0  0  0  0
   12.9415   47.4796    0.8737 C   0  0  0  0  0  0  0  0  0  0  0  0
   13.3793   45.9153    2.7710 C   0  0  0  0  0  0  0  0  0  0  0  0
   15.4991   43.2051    6.9733 C   0  0  0  0  0  0  0  0  0  0  0  0
   16.1969   42.6167    8.0315 C   0  0  0  0  0  0  0  0  0  0  0  0
   15.6265   41.5533    8.7349 C   0  0  0  0  0  0  0  0  0  0  0  0
   15.7584   39.8591   10.5383 C   0  0  0  0  0  0  0  0  0  0  0  0
   14.7348   37.6068    8.2693 O   0  0  0  0  0  0  0  0  0  0  0  0
   14.8087   36.9157   10.4693 O   0  0  0  0  0  0  0  0  0  0  0  0
   13.7815   40.0135    9.0844 O   0  0  0  0  0  0  0  0  0  0  0  0
   15.0464   44.8892    4.7896 O   0  0  0  0  0  0  0  0  0  0  0  0
   16.3939   39.3710   11.5114 O   0  0  0  0  0  0  0  0  0  0  0  0
   13.4764   43.3180    5.5395 N   0  0  0  0  0  0  0  0  0  0  0  0
   16.3231   40.9576    9.8226 N   0  0  0  0  0  0  0  0  0  0  0  0
  1  2  1  0
  2 21  1  0
  3 21  1  0
  4  3  1  0
  4  5  1  1
  4 23  1  0
  4 20  1  0
  6 23  1  0
  7  8  2  0
  8 26  1  0
  9 10  1  0
 11 12  2  0
 13 14  2  0
 15 14  1  0
 16 10  2  0
 17 18  2  0
 19 27  1  0
 19  6  2  0
 26  9  1  0
 27 20  1  0
  3 22  2  0
  6  7  1  0
  8 17  1  0
  9 24  2  0
 10 11  1  0
 12 13  1  0
 14 16  1  0
 18 19  1  0
 20 25  2  0
M  END
>  <rmsd>  (1) 
0.230580032

$$$$
