MolPort-001-807-228 CSSS03437702633 MCULE-7238973406 PubChem-2811213 ZINC000001031142 ZINC01031142
     RDKit          3D

 26 29  0  0  0  0  0  0  0  0999 V2000
   17.7604   41.2903   10.0570 C   0  0  0  0  0  0  0  0  0  0  0  0
   15.6969   41.5188    8.7016 C   0  0  0  0  0  0  0  0  0  0  0  0
   16.2668   42.5527    7.9406 C   0  0  0  0  0  0  0  0  0  0  0  0
   15.5516   43.1533    6.9049 C   0  0  0  0  0  0  0  0  0  0  0  0
   14.2519   42.7299    6.6064 C   0  0  0  0  0  0  0  0  0  0  0  0
   13.8964   44.3743    4.6702 C   0  0  0  0  0  0  0  0  0  0  0  0
   13.2193   45.8652    2.7051 C   0  0  0  0  0  0  0  0  0  0  0  0
   13.9554   47.6359    1.2589 C   0  0  0  0  0  0  0  0  0  0  0  0
   14.6650   48.6812    0.4623 C   0  0  0  0  0  0  0  0  0  0  0  0
   14.9957   49.8671    1.3495 C   0  0  0  0  0  0  0  0  0  0  0  0
   13.8240   49.9430    0.3973 C   0  0  0  0  0  0  0  0  0  0  0  0
   13.6785   41.7047    7.3620 C   0  0  0  0  0  0  0  0  0  0  0  0
   14.3764   41.0960    8.4114 C   0  0  0  0  0  0  0  0  0  0  0  0
   14.1592   39.5110   10.3420 C   0  0  0  0  0  0  0  0  0  0  0  0
   13.4242   38.2065   10.5955 C   0  0  0  0  0  0  0  0  0  0  0  0
   12.5508   38.4290   11.8118 C   0  0  0  0  0  0  0  0  0  0  0  0
   13.1910   39.5716   12.5620 C   0  0  0  0  0  0  0  0  0  0  0  0
   13.8174   40.4396   11.4956 C   0  0  0  0  0  0  0  0  0  0  0  0
   16.4329   40.9074    9.7230 O   0  0  0  0  0  0  0  0  0  0  0  0
   15.0390   44.8936    4.7821 O   0  0  0  0  0  0  0  0  0  0  0  0
   13.7140   40.0783    9.1157 O   0  0  0  0  0  0  0  0  0  0  0  0
   13.4848   43.3176    5.5467 N   0  0  0  0  0  0  0  0  0  0  0  0
   12.9829   44.8284    3.6654 N   0  0  0  0  0  0  0  0  0  0  0  0
   12.2936   46.2261    1.7910 N   0  0  0  0  0  0  0  0  0  0  0  0
   12.7038   47.2037    0.9845 N   0  0  0  0  0  0  0  0  0  0  0  0
   14.6331   46.7733    2.5392 S   0  0  0  0  0  0  0  0  0  0  0  0
  1 19  1  0
  2 19  1  0
  3  4  2  0
  5 22  1  0
  5 12  2  0
  6 23  1  0
  7 26  1  0
  8 26  1  0
  9  8  1  0
  9 10  1  0
 10 11  1  0
 11  9  1  0
 13 21  1  0
 13  2  2  0
 14 21  1  0
 14 15  1  0
 15 16  1  0
 16 17  1  0
 17 18  1  0
 18 14  1  0
 22  6  1  0
 23  7  1  0
 24 25  1  0
  2  3  1  0
  4  5  1  0
  6 20  2  0
  7 24  2  0
  8 25  2  0
 12 13  1  0
M  END
>  <rmsd>  (1) 
0.230379447

$$$$
