MolPort-002-849-489 8715579 LN01247785 MCULE-8954675726 PubChem-11842445 ZINC000008715579 ZINC08715579
     RDKit          3D

 24 25  0  0  0  0  0  0  0  0999 V2000
   13.3095   47.1886    3.5114 C   0  0  0  0  0  0  0  0  0  0  0  0
   13.3497   45.8565    2.7849 C   0  0  0  0  0  0  0  0  0  0  0  0
   13.9013   44.3584    4.6756 C   0  0  0  0  0  0  0  0  0  0  0  0
   14.2664   42.7640    6.6172 C   0  0  0  0  0  0  0  0  0  0  0  0
   16.0266   42.4791    7.9784 C   0  0  0  0  0  0  0  0  0  0  0  0
   17.3928   42.7741    8.4949 C   0  0  0  0  0  0  0  0  0  0  0  0
   15.1725   41.5120    8.5253 C   0  0  0  0  0  0  0  0  0  0  0  0
   15.4884   40.5773    9.6333 C   0  0  0  0  0  0  0  0  0  0  0  0
   14.4415   39.9145   10.4456 C   0  0  0  0  0  0  0  0  0  0  0  0
   14.7712   38.7925   11.2217 C   0  0  0  0  0  0  0  0  0  0  0  0
   13.8052   38.1674   12.0148 C   0  0  0  0  0  0  0  0  0  0  0  0
   12.4972   38.6601   12.0452 C   0  0  0  0  0  0  0  0  0  0  0  0
   12.1627   39.7870   11.2884 C   0  0  0  0  0  0  0  0  0  0  0  0
   13.1300   40.4109   10.4961 C   0  0  0  0  0  0  0  0  0  0  0  0
   11.2896   38.6208   14.6653 C   0  0  0  0  0  0  0  0  0  0  0  0
   13.0280   44.7952    3.6764 O   0  0  0  0  0  0  0  0  0  0  0  0
   15.0448   44.8778    4.7963 O   0  0  0  0  0  0  0  0  0  0  0  0
   16.6981   40.3293    9.8900 O   0  0  0  0  0  0  0  0  0  0  0  0
    9.9294   38.0479   12.4243 O   0  0  0  0  0  0  0  0  0  0  0  0
   11.5920   36.4161   13.1663 O   0  0  0  0  0  0  0  0  0  0  0  0
   13.4803   43.3094    5.5534 N   0  0  0  0  0  0  0  0  0  0  0  0
   15.5156   43.1731    6.9263 N   0  0  0  0  0  0  0  0  0  0  0  0
   13.7427   41.5317    7.6262 S   0  0  0  0  0  0  0  0  0  0  0  0
   11.2865   37.8828   13.0488 S   0  0  0  0  0  0  0  0  0  0  0  0
  1  2  1  0
  2 16  1  0
  3 16  1  0
  3 21  1  0
  4 23  1  0
  5 22  1  0
  6  5  1  0
  7 23  1  0
  7  8  1  0
  8  9  1  0
 10 11  2  0
 12 13  2  0
 14  9  2  0
 21  4  1  0
 24 12  1  0
 24 15  1  0
  3 17  2  0
  4 22  2  0
  5  7  2  0
  8 18  2  0
  9 10  1  0
 11 12  1  0
 13 14  1  0
 24 19  2  0
 24 20  2  0
M  END
>  <rmsd>  (1) 
0.188183174

$$$$
