MolPort-001-806-690 CSSS00104793305 MCULE-2498389420 PubChem-2810090 ZINC000000119557 ZINC00119557
     RDKit          3D

 22 24  0  0  0  0  0  0  0  0999 V2000
   17.7256   41.3006   10.0879 C   0  0  0  0  0  0  0  0  0  0  0  0
   15.6726   41.5240    8.7157 C   0  0  0  0  0  0  0  0  0  0  0  0
   16.2464   42.5589    7.9590 C   0  0  0  0  0  0  0  0  0  0  0  0
   15.5381   43.1578    6.9175 C   0  0  0  0  0  0  0  0  0  0  0  0
   14.2417   42.7316    6.6092 C   0  0  0  0  0  0  0  0  0  0  0  0
   13.9012   44.3739    4.6678 C   0  0  0  0  0  0  0  0  0  0  0  0
   12.9870   44.8545    3.6254 C   0  0  0  0  0  0  0  0  0  0  0  0
   13.2572   45.8631    2.7131 C   0  0  0  0  0  0  0  0  0  0  0  0
   12.1889   46.1026    1.8365 C   0  0  0  0  0  0  0  0  0  0  0  0
   11.0761   45.2914    2.0482 C   0  0  0  0  0  0  0  0  0  0  0  0
   13.6644   41.7056    7.3604 C   0  0  0  0  0  0  0  0  0  0  0  0
   14.3552   41.0985    8.4153 C   0  0  0  0  0  0  0  0  0  0  0  0
   14.1265   39.5129   10.3439 C   0  0  0  0  0  0  0  0  0  0  0  0
   13.3948   38.2059   10.5940 C   0  0  0  0  0  0  0  0  0  0  0  0
   12.6428   38.3645   11.9005 C   0  0  0  0  0  0  0  0  0  0  0  0
   13.2831   39.5375   12.6044 C   0  0  0  0  0  0  0  0  0  0  0  0
   13.7758   40.4367   11.4962 C   0  0  0  0  0  0  0  0  0  0  0  0
   16.4017   40.9144    9.7433 O   0  0  0  0  0  0  0  0  0  0  0  0
   15.0435   44.8942    4.7819 O   0  0  0  0  0  0  0  0  0  0  0  0
   13.6894   40.0795    9.1145 O   0  0  0  0  0  0  0  0  0  0  0  0
   13.4819   43.3177    5.5436 N   0  0  0  0  0  0  0  0  0  0  0  0
   11.4398   44.2749    3.3383 S   0  0  0  0  0  0  0  0  0  0  0  0
  1 18  1  0
  2 18  1  0
  3  4  2  0
  5 21  1  0
  5 11  2  0
  6  7  1  0
  7 22  1  0
  8  9  1  0
 10 22  1  0
 12 20  1  0
 12  2  2  0
 13 20  1  0
 13 14  1  0
 14 15  1  0
 15 16  1  0
 16 17  1  0
 17 13  1  0
 21  6  1  0
  2  3  1  0
  4  5  1  0
  6 19  2  0
  7  8  2  0
  9 10  2  0
 11 12  1  0
M  END
>  <rmsd>  (1) 
0.233208597

$$$$
