Molport-020-278-742 MCULE-4235539066 PubChem-110255612
     RDKit          3D

 26 29  0  0  0  0  0  0  0  0999 V2000
   17.5292   43.1465    8.2295 C   0  0  0  0  0  0  0  0  0  0  0  0
   16.1632   42.6407    7.9365 C   0  0  0  0  0  0  0  0  0  0  0  0
   14.3813   41.1696    8.4398 C   0  0  0  0  0  0  0  0  0  0  0  0
   13.6341   41.7061    7.3914 C   0  0  0  0  0  0  0  0  0  0  0  0
   14.1943   42.7270    6.6241 C   0  0  0  0  0  0  0  0  0  0  0  0
   13.8579   44.3319    4.6634 C   0  0  0  0  0  0  0  0  0  0  0  0
   12.9905   44.7630    3.6560 C   0  0  0  0  0  0  0  0  0  0  0  0
   13.3945   45.7827    2.7924 C   0  0  0  0  0  0  0  0  0  0  0  0
   14.6558   46.3611    2.9414 C   0  0  0  0  0  0  0  0  0  0  0  0
   15.4970   45.9063    3.9585 C   0  0  0  0  0  0  0  0  0  0  0  0
   13.8004   40.0748    9.2717 C   0  0  2  0  0  0  0  0  0  0  0  0
   13.6870   40.5087   10.7347 C   0  0  0  0  0  0  0  0  0  0  0  0
   13.0900   39.3844   11.5784 C   0  0  0  0  0  0  0  0  0  0  0  0
   13.9514   38.1307   11.4603 C   0  0  0  0  0  0  0  0  0  0  0  0
   14.6424   38.8046    9.1520 C   0  0  0  0  0  0  0  0  0  0  0  0
   13.7379   36.4895    9.5475 C   0  0  0  0  0  0  0  0  0  0  0  0
   13.5361   34.9848    7.7215 C   0  0  0  0  0  0  0  0  0  0  0  0
   13.0184   34.0114    8.5763 C   0  0  0  0  0  0  0  0  0  0  0  0
   13.2171   35.5068   10.4010 C   0  0  0  0  0  0  0  0  0  0  0  0
   15.6309   41.6458    8.6926 N   0  0  0  0  0  0  0  0  0  0  0  0
   15.4473   43.1735    6.9122 N   0  0  0  0  0  0  0  0  0  0  0  0
   13.4350   43.2848    5.5450 N   0  0  0  0  0  0  0  0  0  0  0  0
   15.0851   44.9115    4.7897 N   0  0  0  0  0  0  0  0  0  0  0  0
   14.1126   37.7822   10.0500 N   0  0  0  0  0  0  0  0  0  0  0  0
   13.8833   36.1986    8.2244 N   0  0  0  0  0  0  0  0  0  0  0  0
   12.8703   34.2932    9.8970 N   0  0  0  0  0  0  0  0  0  0  0  0
  1  2  1  0
  2 21  2  0
  3 20  2  0
  4  5  2  0
  5 22  1  0
  6 23  2  0
  7  8  2  0
  9 10  2  0
 11  3  1  6
 11 12  1  0
 12 13  1  0
 13 14  1  0
 14 24  1  0
 15 24  1  0
 15 11  1  0
 17 25  2  0
 18 26  2  0
 19 16  2  0
 22  6  1  0
 24 16  1  0
  2 20  1  0
  3  4  1  0
  5 21  1  0
  6  7  1  0
  8  9  1  0
 10 23  1  0
 16 25  1  0
 17 18  1  0
 19 26  1  0
M  END
>  <rmsd>  (1) 
0.249603122

$$$$
