MolPort-006-579-784 ChemDiv-V014-3570 MCULE-8107585728 PubChem-46040748 ZINC000037544503 ZINC37544503
     RDKit          3D

 31 34  0  0  0  0  0  0  0  0999 V2000
   15.5708   33.1328    7.9179 F   0  0  0  0  0  0  0  0  0  0  0  0
   13.8508   32.3589    6.6678 F   0  0  0  0  0  0  0  0  0  0  0  0
   15.5048   33.5438    5.7062 F   0  0  0  0  0  0  0  0  0  0  0  0
   14.7381   33.4050    6.8469 C   0  0  0  0  0  0  0  0  0  0  0  0
   13.1634   34.8270    8.1649 C   0  0  0  0  0  0  0  0  0  0  0  0
   12.9574   33.8436    9.1465 C   0  0  0  0  0  0  0  0  0  0  0  0
   12.1029   34.0895   10.2241 C   0  0  0  0  0  0  0  0  0  0  0  0
   11.4467   35.3184   10.3278 C   0  0  0  0  0  0  0  0  0  0  0  0
   11.6399   36.2997    9.3513 C   0  0  0  0  0  0  0  0  0  0  0  0
   10.9498   37.6162    9.4766 C   0  0  0  0  0  0  0  0  0  0  0  0
   12.2093   38.7711   11.3205 C   0  0  0  0  0  0  0  0  0  0  0  0
   13.7159   38.8466   11.4812 C   0  0  0  0  0  0  0  0  0  0  0  0
   14.2462   40.0892   10.7666 C   0  0  0  0  0  0  0  0  0  0  0  0
   12.6134   39.4333    8.9517 C   0  0  0  0  0  0  0  0  0  0  0  0
   14.3610   41.2158    8.5367 C   0  0  0  0  0  0  0  0  0  0  0  0
   15.6792   41.6352    8.7819 C   0  0  0  0  0  0  0  0  0  0  0  0
   16.2830   42.5986    7.9715 C   0  0  0  0  0  0  0  0  0  0  0  0
   15.5734   43.1598    6.9084 C   0  0  0  0  0  0  0  0  0  0  0  0
   14.2540   42.7631    6.6510 C   0  0  0  0  0  0  0  0  0  0  0  0
   13.9118   44.3286    4.6469 C   0  0  0  0  0  0  0  0  0  0  0  0
   12.9829   44.7665    3.5616 C   0  0  0  0  0  0  0  0  0  0  0  0
   12.5733   43.5732    2.7175 C   0  0  0  0  0  0  0  0  0  0  0  0
   13.6237   44.5321    2.2054 C   0  0  0  0  0  0  0  0  0  0  0  0
   13.6596   41.7966    7.4672 C   0  0  0  0  0  0  0  0  0  0  0  0
   12.4990   36.0531    8.2742 C   0  0  0  0  0  0  0  0  0  0  0  0
   14.0225   34.6173    7.0781 O   0  0  0  0  0  0  0  0  0  0  0  0
   12.2897   39.3911    7.7329 O   0  0  0  0  0  0  0  0  0  0  0  0
   15.0346   44.8897    4.7651 O   0  0  0  0  0  0  0  0  0  0  0  0
   11.8895   38.6441    9.9064 N   0  0  0  0  0  0  0  0  0  0  0  0
   13.7388   40.2303    9.3910 N   0  0  0  0  0  0  0  0  0  0  0  0
   13.4914   43.3122    5.5686 N   0  0  0  0  0  0  0  0  0  0  0  0
  4  1  1  0
  4  2  1  0
  4  3  1  0
  4 26  1  0
  5 26  1  0
  6  7  2  0
  8  9  2  0
 10  9  1  0
 10 29  1  0
 11 29  1  0
 11 12  1  0
 12 13  1  0
 13 30  1  0
 14 29  1  0
 16 17  2  0
 18 19  2  0
 19 31  1  0
 21 20  1  0
 21 22  1  0
 22 23  1  0
 23 21  1  0
 24 15  2  0
 25  5  2  0
 30 14  1  0
 30 15  1  0
 31 20  1  0
  5  6  1  0
  7  8  1  0
  9 25  1  0
 14 27  2  0
 15 16  1  0
 17 18  1  0
 19 24  1  0
 20 28  2  0
M  END
>  <rmsd>  (1) 
0.241280392

$$$$
