MolPort-007-713-437 ChemDiv-E002-0307 MCULE-4157698301 PubChem-22509881 ZINC000006768038 ZINC06768038
     RDKit          3D

 24 25  0  0  0  0  0  0  0  0999 V2000
   13.0692   38.7387   11.7019 C   0  0  0  0  0  0  0  0  0  0  0  0
   14.0537   39.8096   11.2831 C   0  0  0  0  0  0  0  0  0  0  0  0
   14.5322   39.5306    9.8706 C   0  0  0  0  0  0  0  0  0  0  0  0
   16.7975   40.6174   10.0717 C   0  0  0  0  0  0  0  0  0  0  0  0
   17.6786   39.4731    9.5930 C   0  0  0  0  0  0  0  0  0  0  0  0
   18.1211   39.7057    8.1612 C   0  0  0  0  0  0  0  0  0  0  0  0
   15.1530   41.4425    8.3686 C   0  0  0  0  0  0  0  0  0  0  0  0
   14.2359   42.7176    6.5639 C   0  0  0  0  0  0  0  0  0  0  0  0
   13.8984   44.4004    4.6938 C   0  0  0  0  0  0  0  0  0  0  0  0
   13.1956   46.1225    2.9558 C   0  0  0  0  0  0  0  0  0  0  0  0
   13.6187   47.3158    3.5822 C   0  0  0  0  0  0  0  0  0  0  0  0
   14.2761   48.5073    5.6532 C   0  0  0  0  0  0  0  0  0  0  0  0
   13.7661   48.4811    2.8102 C   0  0  0  0  0  0  0  0  0  0  0  0
   13.4727   48.4716    1.4454 C   0  0  0  0  0  0  0  0  0  0  0  0
   13.0201   47.2997    0.8386 C   0  0  0  0  0  0  0  0  0  0  0  0
   12.8767   46.1338    1.5933 C   0  0  0  0  0  0  0  0  0  0  0  0
   15.4797   40.5546    9.4466 N   0  0  0  0  0  0  0  0  0  0  0  0
   15.9903   42.4047    7.9179 N   0  0  0  0  0  0  0  0  0  0  0  0
   15.4800   43.1144    6.9132 N   0  0  0  0  0  0  0  0  0  0  0  0
   13.4629   43.3156    5.5189 N   0  0  0  0  0  0  0  0  0  0  0  0
   13.0175   44.8999    3.6830 N   0  0  0  0  0  0  0  0  0  0  0  0
   15.0574   44.8803    4.8228 O   0  0  0  0  0  0  0  0  0  0  0  0
   13.8548   47.3395    4.9616 O   0  0  0  0  0  0  0  0  0  0  0  0
   13.6969   41.4362    7.5113 S   0  0  0  0  0  0  0  0  0  0  0  0
  1  2  1  0
  2  3  1  0
  3 17  1  0
  4 17  1  0
  4  5  1  0
  5  6  1  0
  7 24  1  0
  8 20  1  0
  8 24  1  0
  9 21  1  0
 11 23  1  0
 11 13  2  0
 12 23  1  0
 14 15  2  0
 16 10  2  0
 17  7  1  0
 18 19  1  0
 20  9  1  0
 21 10  1  0
  7 18  2  0
  8 19  2  0
  9 22  2  0
 10 11  1  0
 13 14  1  0
 15 16  1  0
M  END
>  <rmsd>  (1) 
0.219050482

$$$$
