MolPort-004-160-381 CSC027240159 CSSS00027240159 ChemDiv-D039-0048 MCULE-6137790506 PubChem-16309714 Z198974558 ZINC000008338083 ZINC08338083
     RDKit          3D

 22 23  0  0  0  0  0  0  0  0999 V2000
   12.7673   39.2197   11.8020 C   0  0  0  0  0  0  0  0  0  0  0  0
   13.9205   38.9162   10.8688 C   0  0  0  0  0  0  0  0  0  0  0  0
   15.0049   40.6867    9.5436 C   0  0  0  0  0  0  0  0  0  0  0  0
   14.9499   41.6412    8.4174 C   0  0  0  0  0  0  0  0  0  0  0  0
   15.9327   42.5418    8.0235 C   0  0  0  0  0  0  0  0  0  0  0  0
   17.2627   42.7283    8.6686 C   0  0  0  0  0  0  0  0  0  0  0  0
   14.3015   42.8141    6.6606 C   0  0  0  0  0  0  0  0  0  0  0  0
   13.9007   44.3353    4.6664 C   0  0  0  0  0  0  0  0  0  0  0  0
   13.2668   45.7748    2.6450 C   0  0  0  0  0  0  0  0  0  0  0  0
   14.4736   45.4077    1.7717 C   0  0  0  0  0  0  0  0  0  0  0  0
   14.9593   46.6305    0.9997 C   0  0  0  0  0  0  0  0  0  0  0  0
   15.4043   47.7638    1.9362 C   0  0  0  0  0  0  0  0  0  0  0  0
   14.8048   47.6753    3.3451 C   0  0  0  0  0  0  0  0  0  0  0  0
   13.3675   47.1589    3.3094 C   0  0  0  0  0  0  0  0  0  0  0  0
   13.9027   41.8246    7.5328 C   0  0  0  0  0  0  0  0  0  0  0  0
   12.5947   41.1083    7.5088 C   0  0  0  0  0  0  0  0  0  0  0  0
   13.9190   39.8456    9.7955 O   0  0  0  0  0  0  0  0  0  0  0  0
   16.0303   40.6320   10.2762 O   0  0  0  0  0  0  0  0  0  0  0  0
   15.0331   44.8805    4.7669 O   0  0  0  0  0  0  0  0  0  0  0  0
   15.5405   43.2596    6.9513 N   0  0  0  0  0  0  0  0  0  0  0  0
   13.5016   43.3094    5.5805 N   0  0  0  0  0  0  0  0  0  0  0  0
   12.9957   44.7328    3.6310 N   0  0  0  0  0  0  0  0  0  0  0  0
  1  2  1  0
  2 17  1  0
  3 17  1  0
  3  4  1  0
  5 20  1  0
  6  5  1  0
  7 21  1  0
  8 22  1  0
  9 22  1  0
  9 10  1  0
 10 11  1  0
 11 12  1  0
 12 13  1  0
 13 14  1  0
 14  9  1  0
 15  4  1  0
 16 15  1  0
 20  7  1  0
 21  8  1  0
  3 18  2  0
  4  5  2  0
  7 15  2  0
  8 19  2  0
M  END
>  <rmsd>  (1) 
0.206498027

$$$$
