MolPort-028-600-042 90408699 CHEMBL3183131 CSSS00025701770 MCULE-2835404757 PubChem-59437537 ZINC000090408699
     RDKit          3D

 26 28  0  0  0  0  0  0  0  0999 V2000
   13.6167   39.9166   12.1691 C   0  0  0  0  0  0  0  0  0  0  0  0
   13.7929   39.1164   10.8922 C   0  0  0  0  0  0  0  0  0  0  0  0
   12.6296   38.1588   10.7455 C   0  0  0  0  0  0  0  0  0  0  0  0
   14.9261   40.8818    9.4469 C   0  0  0  0  0  0  0  0  0  0  0  0
   16.0950   40.8925   10.2289 C   0  0  0  0  0  0  0  0  0  0  0  0
   17.1592   41.7587    9.8926 C   0  0  0  0  0  0  0  0  0  0  0  0
   18.3859   41.8123   10.7558 C   0  0  0  0  0  0  0  0  0  0  0  0
   17.0316   42.6291    8.7920 C   0  0  0  0  0  0  0  0  0  0  0  0
   15.8522   42.5695    8.0561 C   0  0  0  0  0  0  0  0  0  0  0  0
   14.3031   42.8388    6.6851 C   0  0  0  0  0  0  0  0  0  0  0  0
   13.9042   44.3203    4.6575 C   0  0  0  0  0  0  0  0  0  0  0  0
   12.9894   44.7135    3.5717 C   0  0  0  0  0  0  0  0  0  0  0  0
   11.7343   44.1070    3.4409 C   0  0  0  0  0  0  0  0  0  0  0  0
   10.8755   44.4872    2.4085 C   0  0  0  0  0  0  0  0  0  0  0  0
   11.2841   45.4763    1.5122 C   0  0  0  0  0  0  0  0  0  0  0  0
   13.3567   45.7017    2.6485 C   0  0  0  0  0  0  0  0  0  0  0  0
   13.8280   40.0105    9.7428 N   0  0  0  0  0  0  0  0  0  0  0  0
   15.5465   43.3074    6.9743 N   0  0  0  0  0  0  0  0  0  0  0  0
   13.5080   43.3068    5.5911 N   0  0  0  0  0  0  0  0  0  0  0  0
   12.5056   46.0583    1.6492 N   0  0  0  0  0  0  0  0  0  0  0  0
   13.8729   41.8775    7.5346 N   0  0  0  0  0  0  0  0  0  0  0  0
   14.8671   41.7271    8.3870 N   0  0  0  0  0  0  0  0  0  0  0  0
   19.4910   42.1698   10.0029 F   0  0  0  0  0  0  0  0  0  0  0  0
   18.6258   40.5763   11.3312 F   0  0  0  0  0  0  0  0  0  0  0  0
   18.1994   42.7475   11.7565 F   0  0  0  0  0  0  0  0  0  0  0  0
   15.0313   44.8774    4.7601 O   0  0  0  0  0  0  0  0  0  0  0  0
  1  2  1  0
  2  3  1  0
  2 17  1  0
  5  6  1  0
  7  6  1  0
  7 23  1  0
  7 24  1  0
  7 25  1  0
  8  9  1  0
 10 18  1  0
 10 19  1  0
 11 12  1  0
 13 14  2  0
 15 20  2  0
 16 12  2  0
 17  4  1  0
 19 11  1  0
 22 21  1  0
 22  4  1  0
 22  9  1  0
  4  5  2  0
  6  8  2  0
  9 18  2  0
 10 21  2  0
 11 26  2  0
 12 13  1  0
 14 15  1  0
 16 20  1  0
M  END
>  <rmsd>  (1) 
0.207670122

$$$$
