MolPort-047-015-567 MCULE-9450906358 PubChem-110095388
     RDKit          3D

 24 26  0  0  0  0  0  0  0  0999 V2000
   17.5560   43.0171    8.3732 C   0  0  0  0  0  0  0  0  0  0  0  0
   16.1831   42.5664    8.0273 C   0  0  0  0  0  0  0  0  0  0  0  0
   15.5033   43.1562    6.9639 C   0  0  0  0  0  0  0  0  0  0  0  0
   14.2119   42.7109    6.6617 C   0  0  0  0  0  0  0  0  0  0  0  0
   14.3337   41.1540    8.4447 C   0  0  0  0  0  0  0  0  0  0  0  0
   13.6868   40.0680    9.2387 C   0  0  2  0  0  0  0  0  0  0  0  0
   13.5413   40.4855   10.7013 C   0  0  0  0  0  0  0  0  0  0  0  0
   12.9799   39.3325   11.5272 C   0  0  0  0  0  0  0  0  0  0  0  0
   13.8395   38.0881   11.3171 C   0  0  0  0  0  0  0  0  0  0  0  0
   14.4984   38.7754    9.1437 C   0  0  0  0  0  0  0  0  0  0  0  0
   14.6685   36.5255    9.7863 C   0  0  0  0  0  0  0  0  0  0  0  0
   14.1599   35.6373    8.6633 C   0  0  0  0  0  0  0  0  0  0  0  0
   13.8723   44.3144    4.6937 C   0  0  0  0  0  0  0  0  0  0  0  0
   15.1966   45.8788    3.7872 C   0  0  0  0  0  0  0  0  0  0  0  0
   14.0866   46.0144    2.9588 C   0  0  0  0  0  0  0  0  0  0  0  0
   13.9401   46.9669    1.8236 C   0  0  0  0  0  0  0  0  0  0  0  0
   16.4339   46.6956    3.6481 C   0  0  0  0  0  0  0  0  0  0  0  0
   13.6583   41.7200    7.4098 N   0  0  0  0  0  0  0  0  0  0  0  0
   15.5906   41.5795    8.7472 N   0  0  0  0  0  0  0  0  0  0  0  0
   13.8385   37.7135    9.9038 N   0  0  0  0  0  0  0  0  0  0  0  0
   13.4532   43.2714    5.5819 N   0  0  0  0  0  0  0  0  0  0  0  0
   15.0745   44.9308    4.7532 N   0  0  0  0  0  0  0  0  0  0  0  0
   12.9134   35.1108    9.0020 O   0  0  0  0  0  0  0  0  0  0  0  0
   12.9137   44.9138    3.4489 S   0  0  0  0  0  0  0  0  0  0  0  0
  1  2  1  0
  2 19  2  0
  3  4  2  0
  4 21  1  0
  5 18  2  0
  6  5  1  6
  6  7  1  0
  7  8  1  0
  8  9  1  0
  9 20  1  0
 10 20  1  0
 10  6  1  0
 11 20  1  0
 11 12  1  0
 12 23  1  0
 13 24  1  0
 14 22  1  0
 15 24  1  0
 16 15  1  0
 17 14  1  0
 21 13  1  0
  2  3  1  0
  4 18  1  0
  5 19  1  0
 13 22  2  0
 14 15  2  0
M  END
>  <rmsd>  (1) 
0.243732959

$$$$
