MolPort-046-949-852 141560344 MCULE-9951375541 PubChem-46951964 ZINC000141560344
     RDKit          3D

 29 32  0  0  0  0  0  0  0  0999 V2000
   13.0179   39.4961   11.8163 C   0  0  0  0  0  0  0  0  0  0  0  0
   13.2851   38.8010   10.4937 C   0  0  0  0  0  0  0  0  0  0  0  0
   14.7406   40.4803    9.3790 C   0  0  0  0  0  0  0  0  0  0  0  0
   15.8233   40.2473   10.2533 C   0  0  0  0  0  0  0  0  0  0  0  0
   17.0159   40.9854   10.1336 C   0  0  0  0  0  0  0  0  0  0  0  0
   17.1481   41.9666    9.1399 C   0  0  0  0  0  0  0  0  0  0  0  0
   16.0697   42.1787    8.2864 C   0  0  0  0  0  0  0  0  0  0  0  0
   14.3594   42.7720    6.6608 C   0  0  0  0  0  0  0  0  0  0  0  0
   13.8741   44.3451    4.7029 C   0  0  0  0  0  0  0  0  0  0  0  0
   12.8610   44.8126    3.7149 C   0  0  0  0  0  0  0  0  0  0  0  0
   12.0463   47.0004    4.7675 C   0  0  0  0  0  0  0  0  0  0  0  0
   11.0265   48.7425    6.3328 C   0  0  0  0  0  0  0  0  0  0  0  0
   10.2227   46.2834    6.0566 C   0  0  0  0  0  0  0  0  0  0  0  0
    8.7671   46.6200    5.6963 C   0  0  0  0  0  0  0  0  0  0  0  0
    7.7980   45.5339    6.1618 C   0  0  0  0  0  0  0  0  0  0  0  0
    7.9471   45.3005    7.6602 C   0  0  0  0  0  0  0  0  0  0  0  0
    9.3689   44.8520    7.9756 C   0  0  0  0  0  0  0  0  0  0  0  0
   10.3693   45.9237    7.5444 C   0  0  0  0  0  0  0  0  0  0  0  0
   10.7789   45.1970    5.1671 C   0  0  0  0  0  0  0  0  0  0  0  0
   14.8885   41.4591    8.3913 C   0  0  0  0  0  0  0  0  0  0  0  0
   13.5430   39.7603    9.4739 O   0  0  0  0  0  0  0  0  0  0  0  0
   15.0059   44.8955    4.7327 O   0  0  0  0  0  0  0  0  0  0  0  0
   12.9682   47.7405    4.3313 O   0  0  0  0  0  0  0  0  0  0  0  0
   10.3559   44.0099    5.1334 O   0  0  0  0  0  0  0  0  0  0  0  0
   15.9405   43.2745    7.0234 S   0  0  0  0  0  0  0  0  0  0  0  0
   13.5289   43.3016    5.6210 N   0  0  0  0  0  0  0  0  0  0  0  0
   11.8681   45.6533    4.3711 N   0  0  0  0  0  0  0  0  0  0  0  0
   11.0906   47.4173    5.7334 N   0  0  0  0  0  0  0  0  0  0  0  0
   13.9305   41.7876    7.4864 N   0  0  0  0  0  0  0  0  0  0  0  0
  1  2  1  0
  2 21  1  0
  3 21  1  0
  4  5  2  0
  6  7  2  0
  7 25  1  0
  8 25  1  0
  8 26  1  0
 10  9  1  0
 10 27  1  0
 11 28  1  0
 12 28  1  0
 13 28  1  0
 13 14  1  0
 13 19  1  0
 14 15  1  0
 15 16  1  0
 16 17  1  0
 17 18  1  0
 18 13  1  0
 19 27  1  0
 20 29  1  0
 20  3  2  0
 26  9  1  0
 27 11  1  0
  3  4  1  0
  5  6  1  0
  8 29  2  0
  9 22  2  0
 11 23  2  0
 19 24  2  0
 20  7  1  0
M  END
>  <rmsd>  (1) 
0.249259651

$$$$
