Molport-020-293-022 MCULE-4916102994 PubChem-110265489
     RDKit          3D

 29 32  0  0  0  0  0  0  0  0999 V2000
   20.0570   31.3928   10.7151 C   0  0  0  0  0  0  0  0  0  0  0  0
   19.4140   33.7135   10.1505 C   0  0  0  0  0  0  0  0  0  0  0  0
   19.5639   34.8093    9.2935 C   0  0  0  0  0  0  0  0  0  0  0  0
   18.8434   35.9860    9.5193 C   0  0  0  0  0  0  0  0  0  0  0  0
   17.9700   36.0752   10.6082 C   0  0  0  0  0  0  0  0  0  0  0  0
   17.8110   34.9816   11.4655 C   0  0  0  0  0  0  0  0  0  0  0  0
   18.5313   33.8053   11.2395 C   0  0  0  0  0  0  0  0  0  0  0  0
   17.1891   37.3216   10.8374 C   0  0  0  0  0  0  0  0  0  0  0  0
   15.8627   37.2491   10.1010 C   0  0  0  0  0  0  0  0  0  0  0  0
   14.1412   38.1800   11.3986 C   0  0  0  0  0  0  0  0  0  0  0  0
   13.0809   39.2850   11.5535 C   0  0  0  0  0  0  0  0  0  0  0  0
   13.3753   40.4958   10.6699 C   0  0  0  0  0  0  0  0  0  0  0  0
   13.5999   40.0698    9.2137 C   0  0  2  0  0  0  0  0  0  0  0  0
   14.3698   38.7447    9.1002 C   0  0  0  0  0  0  0  0  0  0  0  0
   14.2809   41.1554    8.4425 C   0  0  0  0  0  0  0  0  0  0  0  0
   14.1968   42.7243    6.6505 C   0  0  0  0  0  0  0  0  0  0  0  0
   15.4867   43.1713    6.9676 C   0  0  0  0  0  0  0  0  0  0  0  0
   16.1728   42.5963    8.0372 C   0  0  0  0  0  0  0  0  0  0  0  0
   15.5717   41.5825    8.7819 C   0  0  0  0  0  0  0  0  0  0  0  0
   13.8556   44.3234    4.6640 C   0  0  0  0  0  0  0  0  0  0  0  0
   12.9757   44.7337    3.6586 C   0  0  0  0  0  0  0  0  0  0  0  0
   13.3615   45.7468    2.7792 C   0  0  0  0  0  0  0  0  0  0  0  0
   14.6179   46.3397    2.9100 C   0  0  0  0  0  0  0  0  0  0  0  0
   15.4724   45.9058    3.9253 C   0  0  0  0  0  0  0  0  0  0  0  0
   20.1487   32.5518    9.8980 O   0  0  0  0  0  0  0  0  0  0  0  0
   15.1063   38.4669   10.3313 N   0  0  0  0  0  0  0  0  0  0  0  0
   13.6335   41.7330    7.3943 N   0  0  0  0  0  0  0  0  0  0  0  0
   13.4477   43.2819    5.5613 N   0  0  0  0  0  0  0  0  0  0  0  0
   15.0775   44.9172    4.7721 N   0  0  0  0  0  0  0  0  0  0  0  0
  1 25  1  0
  2 25  1  0
  3  4  2  0
  5  6  2  0
  7  2  2  0
  8  5  1  0
  8  9  1  0
  9 26  1  0
 10 26  1  0
 10 11  1  0
 11 12  1  0
 12 13  1  0
 13 14  1  0
 13 15  1  6
 14 26  1  0
 16 27  2  0
 16 28  1  0
 17 18  2  0
 19 15  2  0
 20 29  2  0
 21 22  2  0
 23 24  2  0
 28 20  1  0
  2  3  1  0
  4  5  1  0
  6  7  1  0
 15 27  1  0
 16 17  1  0
 18 19  1  0
 20 21  1  0
 22 23  1  0
 24 29  1  0
M  END
>  <rmsd>  (1) 
0.249042645

$$$$
