MolPort-045-959-764 952873461 CSSS00159691194 MCULE-7349963438 PubChem-131952780 ZINC000952873461
     RDKit          3D

 30 32  0  0  0  0  0  0  0  0999 V2000
   12.5179   37.3151   11.8979 C   0  0  0  0  0  0  0  0  0  0  0  0
   12.3396   38.7915   11.5975 C   0  0  0  0  0  0  0  0  0  0  0  0
   13.6490   39.5342   11.7936 C   0  0  0  0  0  0  0  0  0  0  0  0
   14.5925   39.2603   10.6345 C   0  0  0  0  0  0  0  0  0  0  0  0
   15.8728   40.0065   10.8219 C   0  0  0  0  0  0  0  0  0  0  0  0
   15.5760   41.6138    8.8160 C   0  0  0  0  0  0  0  0  0  0  0  0
   14.2636   41.2243    8.5110 C   0  0  0  0  0  0  0  0  0  0  0  0
   13.5833   41.7921    7.4315 C   0  0  0  0  0  0  0  0  0  0  0  0
   14.2009   42.7625    6.6396 C   0  0  0  0  0  0  0  0  0  0  0  0
   13.9252   44.3424    4.6408 C   0  0  0  0  0  0  0  0  0  0  0  0
   13.0554   44.7521    3.4995 C   0  0  0  0  0  0  0  0  0  0  0  0
   12.4450   42.7514    2.2183 C   0  0  0  0  0  0  0  0  0  0  0  0
   11.3448   42.4561    3.1857 C   0  0  0  0  0  0  0  0  0  0  0  0
   12.6250   41.8700    1.1526 C   0  0  0  0  0  0  0  0  0  0  0  0
   13.6253   42.1028    0.2156 C   0  0  0  0  0  0  0  0  0  0  0  0
   14.4462   43.2294    0.3459 C   0  0  0  0  0  0  0  0  0  0  0  0
   15.4590   43.4944   -0.5881 C   0  0  0  0  0  0  0  0  0  0  0  0
   16.2684   44.6233   -0.4511 C   0  0  0  0  0  0  0  0  0  0  0  0
   16.0731   45.4974    0.6187 C   0  0  0  0  0  0  0  0  0  0  0  0
   15.0688   45.2442    1.5551 C   0  0  0  0  0  0  0  0  0  0  0  0
   14.2430   44.1106    1.4378 C   0  0  0  0  0  0  0  0  0  0  0  0
   15.5111   43.1586    6.9405 C   0  0  0  0  0  0  0  0  0  0  0  0
   16.1968   42.5932    8.0197 C   0  0  0  0  0  0  0  0  0  0  0  0
   17.5878   43.0484    8.3024 C   0  0  0  0  0  0  0  0  0  0  0  0
   16.6232   39.6926   11.7826 O   0  0  0  0  0  0  0  0  0  0  0  0
   15.0519   44.8865    4.7853 O   0  0  0  0  0  0  0  0  0  0  0  0
   13.7765   41.2956   -0.7407 O   0  0  0  0  0  0  0  0  0  0  0  0
   16.2917   41.0486    9.9283 N   0  0  0  0  0  0  0  0  0  0  0  0
   13.4734   43.3190    5.5367 N   0  0  0  0  0  0  0  0  0  0  0  0
   13.2520   43.8536    2.3562 N   0  0  0  0  0  0  0  0  0  0  0  0
  1  2  1  0
  2  3  1  0
  3  4  1  0
  4  5  1  0
  5 28  1  0
  7  8  2  0
  9 29  1  0
  9 22  2  0
 11 10  1  0
 11 30  1  0
 13 12  1  0
 14 15  1  0
 15 16  1  0
 17 18  2  0
 19 20  2  0
 21 30  1  0
 21 16  2  0
 23  6  2  0
 24 23  1  0
 28  6  1  0
 29 10  1  0
 30 12  1  0
  5 25  2  0
  6  7  1  0
  8  9  1  0
 10 26  2  0
 12 14  2  0
 15 27  2  0
 16 17  1  0
 18 19  1  0
 20 21  1  0
 22 23  1  0
M  END
>  <rmsd>  (1) 
0.243188068

$$$$
