MolPort-007-723-442 6818294 ChemDiv-E157-5468 MCULE-5967525956 PubChem-22518006 ZINC000006818294 ZINC06818294
     RDKit          3D

 22 23  0  0  0  0  0  0  0  0999 V2000
   11.6213   44.2660    3.6330 C   0  0  0  0  0  0  0  0  0  0  0  0
   13.0226   44.8495    3.5598 C   0  0  0  0  0  0  0  0  0  0  0  0
   13.6318   44.5241    2.2097 C   0  0  0  0  0  0  0  0  0  0  0  0
   13.9115   44.3524    4.6623 C   0  0  0  0  0  0  0  0  0  0  0  0
   14.2420   42.7640    6.6196 C   0  0  0  0  0  0  0  0  0  0  0  0
   15.1481   41.5831    8.4860 C   0  0  0  0  0  0  0  0  0  0  0  0
   13.5262   39.3025   11.2595 C   0  0  0  0  0  0  0  0  0  0  0  0
   13.6810   41.7955   11.5649 C   0  0  0  0  0  0  0  0  0  0  0  0
   12.5481   41.7793   12.3965 C   0  0  0  0  0  0  0  0  0  0  0  0
   12.0685   42.9600   12.9707 C   0  0  0  0  0  0  0  0  0  0  0  0
   12.7158   44.1719   12.7197 C   0  0  0  0  0  0  0  0  0  0  0  0
   13.8429   44.2030   11.8955 C   0  0  0  0  0  0  0  0  0  0  0  0
   14.3220   43.0221   11.3226 C   0  0  0  0  0  0  0  0  0  0  0  0
   15.0504   44.8728    4.8070 O   0  0  0  0  0  0  0  0  0  0  0  0
   16.7346   41.1044   10.5781 O   0  0  0  0  0  0  0  0  0  0  0  0
   15.7983   39.1786    9.3952 O   0  0  0  0  0  0  0  0  0  0  0  0
   13.4722   43.3093    5.5439 N   0  0  0  0  0  0  0  0  0  0  0  0
   15.4968   43.1560    6.9335 N   0  0  0  0  0  0  0  0  0  0  0  0
   16.0010   42.4974    7.9753 N   0  0  0  0  0  0  0  0  0  0  0  0
   14.1708   40.5764   10.9705 N   0  0  0  0  0  0  0  0  0  0  0  0
   13.6887   41.5513    7.6459 S   0  0  0  0  0  0  0  0  0  0  0  0
   15.5178   40.5766    9.8711 S   0  0  0  0  0  0  0  0  0  0  0  0
  1  2  1  0
  2  3  1  0
  2  4  1  0
  4 17  1  0
  5 21  1  0
  6 21  1  0
  7 20  1  0
  9 10  2  0
 11 12  2  0
 13  8  2  0
 17  5  1  0
 18 19  1  0
 20  8  1  0
 22  6  1  0
 22 20  1  0
  4 14  2  0
  5 18  2  0
  6 19  2  0
  8  9  1  0
 10 11  1  0
 12 13  1  0
 22 15  2  0
 22 16  2  0
M  END
>  <rmsd>  (1) 
0.194089219

$$$$
