MolPort-047-072-147 PubChem-132766983
     RDKit          3D

 31 34  0  0  0  0  0  0  0  0999 V2000
   16.4376   46.6931    3.6628 C   0  0  0  0  0  0  0  0  0  0  0  0
   15.1968   45.8813    3.8002 C   0  0  0  0  0  0  0  0  0  0  0  0
   13.8676   44.3172    4.6990 C   0  0  0  0  0  0  0  0  0  0  0  0
   14.2318   42.7196    6.6458 C   0  0  0  0  0  0  0  0  0  0  0  0
   13.6927   41.6989    7.4282 C   0  0  0  0  0  0  0  0  0  0  0  0
   14.4648   41.1698    8.4622 C   0  0  0  0  0  0  0  0  0  0  0  0
   16.2283   42.6480    7.9161 C   0  0  0  0  0  0  0  0  0  0  0  0
   17.5977   43.1617    8.1783 C   0  0  0  0  0  0  0  0  0  0  0  0
   13.9074   40.0762    9.3113 C   0  0  2  0  0  0  0  0  0  0  0  0
   13.8106   40.5181   10.7742 C   0  0  0  0  0  0  0  0  0  0  0  0
   13.3088   39.4054   11.7087 C   0  0  0  0  0  0  0  0  0  0  0  0
   13.1925   38.0449   11.0191 C   0  0  0  0  0  0  0  0  0  0  0  0
   14.7558   38.8079    9.1866 C   0  0  0  0  0  0  0  0  0  0  0  0
   15.1199   36.5763   10.2653 C   0  0  0  0  0  0  0  0  0  0  0  0
   15.1286   35.7122   11.4607 C   0  0  0  0  0  0  0  0  0  0  0  0
   14.6108   36.0642   12.6330 C   0  0  0  0  0  0  0  0  0  0  0  0
   14.6409   35.1700   13.7991 C   0  0  0  0  0  0  0  0  0  0  0  0
   15.1854   33.8985   13.8465 C   0  0  0  0  0  0  0  0  0  0  0  0
   14.9566   33.4900   15.1557 C   0  0  0  0  0  0  0  0  0  0  0  0
   13.4684   36.7158   15.3745 C   0  0  0  0  0  0  0  0  0  0  0  0
   14.0846   46.0285    2.9765 C   0  0  0  0  0  0  0  0  0  0  0  0
   13.9392   46.9901    1.8489 C   0  0  0  0  0  0  0  0  0  0  0  0
   15.0733   44.9267    4.7596 N   0  0  0  0  0  0  0  0  0  0  0  0
   13.4493   43.2710    5.5814 N   0  0  0  0  0  0  0  0  0  0  0  0
   15.7170   41.6534    8.6869 N   0  0  0  0  0  0  0  0  0  0  0  0
   15.4883   43.1736    6.9054 N   0  0  0  0  0  0  0  0  0  0  0  0
   14.3682   37.8029   10.1822 N   0  0  0  0  0  0  0  0  0  0  0  0
   14.3161   34.4676   15.8302 N   0  0  0  0  0  0  0  0  0  0  0  0
   14.1306   35.4768   15.0015 N   0  0  0  0  0  0  0  0  0  0  0  0
   15.8187   36.2139    9.2815 O   0  0  0  0  0  0  0  0  0  0  0  0
   12.9074   44.9301    3.4621 S   0  0  0  0  0  0  0  0  0  0  0  0
  1  2  1  0
  2 23  1  0
  3 24  1  0
  3 31  1  0
  4 26  2  0
  5  6  2  0
  7 25  2  0
  8  7  1  0
  9  6  1  6
  9 10  1  0
 10 11  1  0
 11 12  1  0
 12 27  1  0
 13 27  1  0
 13  9  1  0
 14 15  1  0
 16 17  1  0
 18 19  1  0
 20 29  1  0
 21 31  1  0
 22 21  1  0
 24  4  1  0
 27 14  1  0
 29 28  1  0
 29 17  1  0
  3 23  2  0
  4  5  1  0
  6 25  1  0
  7 26  1  0
 14 30  2  0
 15 16  2  0
 17 18  2  0
 19 28  2  0
 21  2  2  0
M  END
>  <rmsd>  (1) 
0.247334763

$$$$
