MolPort-035-704-099 LN00427521 PubChem-86207152 ZINC000218305408
     RDKit          3D

 30 33  0  0  0  0  0  0  0  0999 V2000
   16.2594   37.1796   13.6697 C   0  0  0  0  0  0  0  0  0  0  0  0
   17.0294   39.3341   12.6559 C   0  0  0  0  0  0  0  0  0  0  0  0
   18.1102   40.2138   12.5196 C   0  0  0  0  0  0  0  0  0  0  0  0
   17.9914   41.3881   11.7740 C   0  0  0  0  0  0  0  0  0  0  0  0
   16.7816   41.7032   11.1550 C   0  0  0  0  0  0  0  0  0  0  0  0
   16.6688   42.9402   10.3309 C   0  0  0  0  0  0  0  0  0  0  0  0
   17.0034   42.6430    8.8766 C   0  0  0  0  0  0  0  0  0  0  0  0
   15.7590   42.5002    8.0675 C   0  0  0  0  0  0  0  0  0  0  0  0
   14.2659   42.8011    6.6457 C   0  0  0  0  0  0  0  0  0  0  0  0
   13.9056   44.3614    4.6771 C   0  0  0  0  0  0  0  0  0  0  0  0
   12.9749   44.8306    3.6121 C   0  0  0  0  0  0  0  0  0  0  0  0
   12.4385   46.1846    3.9395 C   0  0  0  0  0  0  0  0  0  0  0  0
   11.4183   46.4780    4.8379 C   0  0  0  0  0  0  0  0  0  0  0  0
   12.1175   48.3528    4.0508 C   0  0  0  0  0  0  0  0  0  0  0  0
   12.3080   49.7068    3.7781 C   0  0  0  0  0  0  0  0  0  0  0  0
   13.3161   50.0534    2.8602 C   0  0  0  0  0  0  0  0  0  0  0  0
   14.1001   49.0537    2.2444 C   0  0  0  0  0  0  0  0  0  0  0  0
   13.8857   47.6955    2.5386 C   0  0  0  0  0  0  0  0  0  0  0  0
   12.8804   47.3877    3.4524 C   0  0  0  0  0  0  0  0  0  0  0  0
   15.6946   40.8347   11.2766 C   0  0  0  0  0  0  0  0  0  0  0  0
   15.7996   39.6462   12.0199 C   0  0  0  0  0  0  0  0  0  0  0  0
   13.4533   39.0436   11.4968 C   0  0  0  0  0  0  0  0  0  0  0  0
   17.2390   38.1792   13.4251 O   0  0  0  0  0  0  0  0  0  0  0  0
   15.0471   44.8831    4.7821 O   0  0  0  0  0  0  0  0  0  0  0  0
   14.7018   38.7836   12.1232 O   0  0  0  0  0  0  0  0  0  0  0  0
   15.4491   43.3127    7.0390 N   0  0  0  0  0  0  0  0  0  0  0  0
   13.4907   43.3112    5.5566 N   0  0  0  0  0  0  0  0  0  0  0  0
   11.2217   47.8202    4.9016 N   0  0  0  0  0  0  0  0  0  0  0  0
   13.8787   41.7458    7.3827 N   0  0  0  0  0  0  0  0  0  0  0  0
   14.8282   41.5515    8.2809 N   0  0  0  0  0  0  0  0  0  0  0  0
  1 23  1  0
  2 23  1  0
  3  4  2  0
  5 20  2  0
  6  5  1  0
  6  7  1  0
  7  8  1  0
  9 26  1  0
  9 27  1  0
 11 10  1  0
 11 12  1  0
 13 28  1  0
 15 16  2  0
 17 18  2  0
 19 12  1  0
 19 14  2  0
 21 25  1  0
 21  2  2  0
 22 25  1  0
 27 10  1  0
 28 14  1  0
 30 29  1  0
 30  8  1  0
  2  3  1  0
  4  5  1  0
  8 26  2  0
  9 29  2  0
 10 24  2  0
 12 13  2  0
 14 15  1  0
 16 17  1  0
 18 19  1  0
 20 21  1  0
M  END
>  <rmsd>  (1) 
0.215330914

$$$$
