Molport-046-947-246 MCULE-3727816621 MCULE-7545957969 PubChem-110089778
     RDKit          3D

 21 23  0  0  0  0  0  0  0  0999 V2000
   16.7957   46.5308    4.0559 C   0  0  0  0  0  0  0  0  0  0  0  0
   15.4535   45.9091    3.9145 C   0  0  0  0  0  0  0  0  0  0  0  0
   13.8490   44.3222    4.6705 C   0  0  0  0  0  0  0  0  0  0  0  0
   12.9568   44.7307    3.6754 C   0  0  0  0  0  0  0  0  0  0  0  0
   13.3301   45.7452    2.7921 C   0  0  0  0  0  0  0  0  0  0  0  0
   14.5865   46.3412    2.9091 C   0  0  0  0  0  0  0  0  0  0  0  0
   14.2198   42.7233    6.6510 C   0  0  0  0  0  0  0  0  0  0  0  0
   14.3505   41.1685    8.4357 C   0  0  0  0  0  0  0  0  0  0  0  0
   16.1947   42.5858    8.0129 C   0  0  0  0  0  0  0  0  0  0  0  0
   15.5106   43.1723    6.9503 C   0  0  0  0  0  0  0  0  0  0  0  0
   17.5669   43.0413    8.3551 C   0  0  0  0  0  0  0  0  0  0  0  0
   13.7080   40.0823    9.2332 C   0  0  2  0  0  0  0  0  0  0  0  0
   13.5618   40.5035   10.6945 C   0  0  0  0  0  0  0  0  0  0  0  0
   13.0003   39.3518   11.5218 C   0  0  0  0  0  0  0  0  0  0  0  0
   13.8627   38.1083   11.3179 C   0  0  0  0  0  0  0  0  0  0  0  0
   14.5228   38.7912    9.1406 C   0  0  0  0  0  0  0  0  0  0  0  0
   15.0706   44.9192    4.7651 N   0  0  0  0  0  0  0  0  0  0  0  0
   13.4546   43.2792    5.5722 N   0  0  0  0  0  0  0  0  0  0  0  0
   13.6712   41.7316    7.4018 N   0  0  0  0  0  0  0  0  0  0  0  0
   15.6067   41.5982    8.7353 N   0  0  0  0  0  0  0  0  0  0  0  0
   13.8698   37.7302    9.9056 N   0  0  0  0  0  0  0  0  0  0  0  0
  1  2  1  0
  3 17  2  0
  3 18  1  0
  4  5  2  0
  6  2  2  0
  8 19  2  0
  9 20  2  0
 10  7  2  0
 11  9  1  0
 12  8  1  6
 12 13  1  0
 13 14  1  0
 14 15  1  0
 15 21  1  0
 16 21  1  0
 16 12  1  0
 18  7  1  0
  2 17  1  0
  3  4  1  0
  5  6  1  0
  7 19  1  0
  8 20  1  0
  9 10  1  0
M  END
>  <rmsd>  (1) 
0.244126126

$$$$
