MolPort-002-599-334 16975781 CHEMBL1547457 CSSS00160675839 MCULE-7236428736 PubChem-662537 ZINC000016975781 ZINC16975781
     RDKit          3D

 25 28  0  0  0  0  0  0  0  0999 V2000
   12.8199   39.0168   11.4819 C   0  0  0  0  0  0  0  0  0  0  0  0
   14.3119   39.2189   11.2952 C   0  0  0  0  0  0  0  0  0  0  0  0
   14.5984   39.8232    9.9326 C   0  0  0  0  0  0  0  0  0  0  0  0
   14.2462   41.3024    9.9231 C   0  0  0  0  0  0  0  0  0  0  0  0
   14.2044   42.8075    6.6820 C   0  0  0  0  0  0  0  0  0  0  0  0
   14.0048   44.2162    4.5633 C   0  0  0  0  0  0  0  0  0  0  0  0
   13.2761   44.4120    3.3054 C   0  0  0  0  0  0  0  0  0  0  0  0
   12.1025   43.7701    2.9422 C   0  0  0  0  0  0  0  0  0  0  0  0
   11.6406   44.1594    1.6764 C   0  0  0  0  0  0  0  0  0  0  0  0
   12.4402   45.1038    1.0361 C   0  0  0  0  0  0  0  0  0  0  0  0
   15.5722   42.6208    6.8081 C   0  0  0  0  0  0  0  0  0  0  0  0
   16.6620   42.8333    5.9698 C   0  0  0  0  0  0  0  0  0  0  0  0
   17.9255   42.4616    6.4608 C   0  0  0  0  0  0  0  0  0  0  0  0
   19.0692   42.6564    5.6831 C   0  0  0  0  0  0  0  0  0  0  0  0
   20.3222   42.2826    6.1784 C   0  0  0  0  0  0  0  0  0  0  0  0
   20.4378   41.7120    7.4506 C   0  0  0  0  0  0  0  0  0  0  0  0
   19.3013   41.5093    8.2399 C   0  0  0  0  0  0  0  0  0  0  0  0
   18.0422   41.8784    7.7606 C   0  0  0  0  0  0  0  0  0  0  0  0
   15.7228   42.0468    8.0365 C   0  0  0  0  0  0  0  0  0  0  0  0
   14.5223   41.8779    8.6154 N   0  0  0  0  0  0  0  0  0  0  0  0
   13.5853   42.3349    7.7920 N   0  0  0  0  0  0  0  0  0  0  0  0
   13.4891   43.3140    5.5486 N   0  0  0  0  0  0  0  0  0  0  0  0
   16.9306   41.6722    8.5286 N   0  0  0  0  0  0  0  0  0  0  0  0
   15.0523   44.8798    4.7863 O   0  0  0  0  0  0  0  0  0  0  0  0
   13.7266   45.4462    2.0646 S   0  0  0  0  0  0  0  0  0  0  0  0
  1  2  1  0
  2  3  1  0
  3  4  1  0
  4 20  1  0
  5 22  1  0
  5 11  1  0
  6  7  1  0
  7 25  1  0
  8  9  1  0
 10 25  1  0
 12 13  2  0
 14 15  2  0
 16 17  2  0
 18 23  2  0
 18 13  1  0
 19 20  1  0
 19 11  2  0
 20 21  1  0
 22  6  1  0
  5 21  2  0
  6 24  2  0
  7  8  2  0
  9 10  2  0
 11 12  1  0
 13 14  1  0
 15 16  1  0
 17 18  1  0
 19 23  1  0
M  END
>  <rmsd>  (1) 
0.198744252

$$$$
