MolPort-046-949-846 MCULE-4469830685 PubChem-46951958
     RDKit          3D

 28 31  0  0  0  0  0  0  0  0999 V2000
   13.0268   39.4855   11.8222 C   0  0  0  0  0  0  0  0  0  0  0  0
   13.2970   38.8013   10.4947 C   0  0  0  0  0  0  0  0  0  0  0  0
   14.7434   40.4909    9.3845 C   0  0  0  0  0  0  0  0  0  0  0  0
   14.8887   41.4704    8.3972 C   0  0  0  0  0  0  0  0  0  0  0  0
   16.0703   42.1891    8.2891 C   0  0  0  0  0  0  0  0  0  0  0  0
   17.1513   41.9760    9.1392 C   0  0  0  0  0  0  0  0  0  0  0  0
   17.0207   40.9951   10.1334 C   0  0  0  0  0  0  0  0  0  0  0  0
   15.8281   40.2575   10.2561 C   0  0  0  0  0  0  0  0  0  0  0  0
   14.3583   42.7806    6.6643 C   0  0  0  0  0  0  0  0  0  0  0  0
   13.8773   44.3381    4.6906 C   0  0  0  0  0  0  0  0  0  0  0  0
   12.8968   44.7521    3.6771 C   0  0  0  0  0  0  0  0  0  0  0  0
   11.8838   45.6900    1.9976 C   0  0  0  0  0  0  0  0  0  0  0  0
   13.0564   45.7161    2.7041 C   0  0  0  0  0  0  0  0  0  0  0  0
   14.2462   46.5437    2.3317 C   0  0  0  0  0  0  0  0  0  0  0  0
   13.8181   47.6994    1.4000 C   0  0  2  0  0  0  0  0  0  0  0  0
   12.8749   47.1929    0.2843 C   0  0  0  0  0  0  0  0  0  0  0  0
   11.5752   46.6167    0.8654 C   0  0  0  0  0  0  0  0  0  0  0  0
   15.0236   48.4846    0.8458 C   0  0  0  0  0  0  0  0  0  0  0  0
   15.8581   49.0374    1.9882 C   0  0  0  0  0  0  0  0  0  0  0  0
   14.5435   49.6633    0.0172 C   0  0  0  0  0  0  0  0  0  0  0  0
   15.9069   47.6028   -0.0235 C   0  0  0  0  0  0  0  0  0  0  0  0
   13.5468   39.7694    9.4813 O   0  0  0  0  0  0  0  0  0  0  0  0
   15.0076   44.8931    4.7349 O   0  0  0  0  0  0  0  0  0  0  0  0
   15.9409   43.2813    7.0232 S   0  0  0  0  0  0  0  0  0  0  0  0
   13.9302   41.7974    7.4921 N   0  0  0  0  0  0  0  0  0  0  0  0
   13.5292   43.3035    5.6193 N   0  0  0  0  0  0  0  0  0  0  0  0
   11.6626   44.2150    3.5597 N   0  0  0  0  0  0  0  0  0  0  0  0
   11.0401   44.7935    2.5393 N   0  0  0  0  0  0  0  0  0  0  0  0
  1  2  1  0
  2 22  1  0
  3 22  1  0
  4  5  2  0
  4 25  1  0
  5 24  1  0
  6  7  2  0
  8  3  2  0
  9 24  1  0
  9 26  1  0
 10 11  1  0
 13 11  1  0
 14 13  1  0
 14 15  1  0
 15 16  1  0
 15 18  1  6
 16 17  1  0
 17 12  1  0
 18 19  1  0
 18 20  1  0
 18 21  1  0
 26 10  1  0
 28 27  1  0
 28 12  1  0
  3  4  1  0
  5  6  1  0
  7  8  1  0
  9 25  2  0
 10 23  2  0
 11 27  2  0
 12 13  2  0
M  END
>  <rmsd>  (1) 
0.248429522

$$$$
