MolPort-007-723-073 6818070 ChemDiv-E157-3283 MCULE-8285572804 PubChem-22517686 ZINC000006818070 ZINC06818070
     RDKit          3D

 19 21  0  0  0  0  0  0  0  0999 V2000
   14.0694   39.0215   11.9626 C   0  0  0  0  0  0  0  0  0  0  0  0
   13.1194   39.6353   10.9516 C   0  0  0  0  0  0  0  0  0  0  0  0
   13.6236   39.4031    9.5366 C   0  0  0  0  0  0  0  0  0  0  0  0
   14.6901   40.3852    9.1780 C   0  0  0  0  0  0  0  0  0  0  0  0
   15.7489   41.9248    8.2191 C   0  0  0  0  0  0  0  0  0  0  0  0
   14.2208   42.6942    6.5774 C   0  0  0  0  0  0  0  0  0  0  0  0
   13.9106   44.3844    4.6807 C   0  0  0  0  0  0  0  0  0  0  0  0
   13.0124   44.9024    3.6427 C   0  0  0  0  0  0  0  0  0  0  0  0
   11.7302   44.4454    3.3805 C   0  0  0  0  0  0  0  0  0  0  0  0
   11.1130   45.1354    2.3269 C   0  0  0  0  0  0  0  0  0  0  0  0
   11.8971   46.1343    1.7539 C   0  0  0  0  0  0  0  0  0  0  0  0
   15.9173   40.4710    9.7599 N   0  0  0  0  0  0  0  0  0  0  0  0
   16.5946   41.4532    9.1510 N   0  0  0  0  0  0  0  0  0  0  0  0
   13.4714   43.3122    5.5245 N   0  0  0  0  0  0  0  0  0  0  0  0
   13.7022   41.6764    7.3218 N   0  0  0  0  0  0  0  0  0  0  0  0
   14.6036   41.3007    8.2138 N   0  0  0  0  0  0  0  0  0  0  0  0
   15.8340   43.1180    7.0481 S   0  0  0  0  0  0  0  0  0  0  0  0
   13.3654   46.1466    2.5750 S   0  0  0  0  0  0  0  0  0  0  0  0
   15.0570   44.8885    4.8180 O   0  0  0  0  0  0  0  0  0  0  0  0
  1  2  1  0
  2  3  1  0
  3  4  1  0
  5 17  1  0
  6 17  1  0
  6 14  1  0
  7  8  1  0
  8 18  1  0
  9 10  1  0
 11 18  1  0
 12 13  1  0
 14  7  1  0
 16 15  1  0
 16  4  1  0
 16  5  1  0
  4 12  2  0
  5 13  2  0
  6 15  2  0
  7 19  2  0
  8  9  2  0
 10 11  2  0
M  END
>  <rmsd>  (1) 
0.207034722

$$$$
