MolPort-020-298-675 MCULE-3684237599 PubChem-110269819
     RDKit          3D

 25 27  0  0  0  0  0  0  0  0999 V2000
   16.7530   46.5448    3.9966 C   0  0  0  0  0  0  0  0  0  0  0  0
   15.4157   45.9063    3.8886 C   0  0  0  0  0  0  0  0  0  0  0  0
   14.5238   46.3188    2.9008 C   0  0  0  0  0  0  0  0  0  0  0  0
   13.2793   45.6952    2.8327 C   0  0  0  0  0  0  0  0  0  0  0  0
   13.8428   44.3203    4.6749 C   0  0  0  0  0  0  0  0  0  0  0  0
   14.2459   42.7268    6.6546 C   0  0  0  0  0  0  0  0  0  0  0  0
   15.5440   43.1766    6.9319 C   0  0  0  0  0  0  0  0  0  0  0  0
   16.2626   42.6054    7.9821 C   0  0  0  0  0  0  0  0  0  0  0  0
   15.6854   41.5928    8.7472 C   0  0  0  0  0  0  0  0  0  0  0  0
   14.3856   41.1630    8.4478 C   0  0  0  0  0  0  0  0  0  0  0  0
   13.7280   40.0785    9.2400 C   0  0  2  0  0  0  0  0  0  0  0  0
   13.5777   40.4794   10.7018 C   0  0  0  0  0  0  0  0  0  0  0  0
   12.9050   39.3518   11.4672 C   0  0  0  0  0  0  0  0  0  0  0  0
   13.7147   38.0607   11.3092 C   0  0  0  0  0  0  0  0  0  0  0  0
   14.5088   38.7627    9.1264 C   0  0  0  0  0  0  0  0  0  0  0  0
   12.6055   37.3020    9.3210 C   0  0  0  0  0  0  0  0  0  0  0  0
   12.7928   36.2555    8.2762 C   0  0  0  0  0  0  0  0  0  0  0  0
   12.2988   46.1052    1.7941 C   0  0  0  0  0  0  0  0  0  0  0  0
   12.9626   44.7127    3.7160 N   0  0  0  0  0  0  0  0  0  0  0  0
   15.0621   44.9203    4.7533 N   0  0  0  0  0  0  0  0  0  0  0  0
   13.4643   43.2793    5.5857 N   0  0  0  0  0  0  0  0  0  0  0  0
   13.7066   41.7367    7.4174 N   0  0  0  0  0  0  0  0  0  0  0  0
   13.8936   37.6745    9.9021 N   0  0  0  0  0  0  0  0  0  0  0  0
   13.3184   34.9803    8.6261 N   0  0  0  0  0  0  0  0  0  0  0  0
   12.4762   36.4977    7.0832 O   0  0  0  0  0  0  0  0  0  0  0  0
  1  2  1  0
  2 20  2  0
  3  4  2  0
  5 19  2  0
  5 21  1  0
  6 22  2  0
  7  8  2  0
  9 10  2  0
 11 10  1  6
 11 12  1  0
 12 13  1  0
 13 14  1  0
 14 23  1  0
 15 23  1  0
 15 11  1  0
 16 23  1  0
 16 17  1  0
 17 24  1  0
 18  4  1  0
 21  6  1  0
  2  3  1  0
  4 19  1  0
  5 20  1  0
  6  7  1  0
  8  9  1  0
 10 22  1  0
 17 25  2  0
M  END
>  <rmsd>  (1) 
0.248182178

$$$$
