MolPort-008-370-653 CSSS00159509820 MCULE-4104381300 PubChem-46990737
     RDKit          3D

 25 27  0  0  0  0  0  0  0  0999 V2000
   13.3800   39.5836   11.9498 C   0  0  0  0  0  0  0  0  0  0  0  0
   13.5743   38.8772   10.6204 C   0  0  0  0  0  0  0  0  0  0  0  0
   14.8131   40.6293    9.3869 C   0  0  0  0  0  0  0  0  0  0  0  0
   14.8339   41.6136    8.3003 C   0  0  0  0  0  0  0  0  0  0  0  0
   15.8773   42.4666    8.0059 C   0  0  0  0  0  0  0  0  0  0  0  0
   14.2688   42.7812    6.6410 C   0  0  0  0  0  0  0  0  0  0  0  0
   13.9077   44.3450    4.6680 C   0  0  0  0  0  0  0  0  0  0  0  0
   11.7136   44.2171    3.4093 C   0  0  0  0  0  0  0  0  0  0  0  0
   11.1866   44.8667    2.1426 C   0  0  0  0  0  0  0  0  0  0  0  0
   12.1451   46.0076    1.8151 C   0  0  1  0  0  0  0  0  0  0  0  0
   13.3815   45.8168    2.6758 C   0  0  0  0  0  0  0  0  0  0  0  0
   12.6652   46.7416   -1.6186 C   0  0  0  0  0  0  0  0  0  0  0  0
   12.5570   47.6505   -2.7896 C   0  0  0  0  0  0  0  0  0  0  0  0
   13.2228   45.4733   -1.6468 C   0  0  0  0  0  0  0  0  0  0  0  0
   13.0819   45.0594   -0.3356 C   0  0  0  0  0  0  0  0  0  0  0  0
   13.5294   43.7368    0.1874 C   0  0  0  0  0  0  0  0  0  0  0  0
   13.6827   39.8261    9.5657 O   0  0  0  0  0  0  0  0  0  0  0  0
   15.8129   40.5092   10.1469 O   0  0  0  0  0  0  0  0  0  0  0  0
   15.0442   44.8766    4.7935 O   0  0  0  0  0  0  0  0  0  0  0  0
   15.5114   43.2102    6.9454 N   0  0  0  0  0  0  0  0  0  0  0  0
   13.4881   43.3064    5.5623 N   0  0  0  0  0  0  0  0  0  0  0  0
   13.0308   44.7810    3.6247 N   0  0  0  0  0  0  0  0  0  0  0  0
   12.4839   46.0263    0.3937 N   0  0  0  0  0  0  0  0  0  0  0  0
   12.2262   47.0594   -0.3866 N   0  0  0  0  0  0  0  0  0  0  0  0
   13.8137   41.8032    7.4458 N   0  0  0  0  0  0  0  0  0  0  0  0
  1  2  1  0
  2 17  1  0
  3 17  1  0
  3  4  1  0
  5 20  1  0
  6 21  1  0
  6 25  1  0
  7 22  1  0
  8 22  1  0
  8  9  1  0
  9 10  1  0
 10 11  1  0
 10 23  1  6
 11 22  1  0
 12 14  1  0
 13 12  1  0
 15 23  1  0
 16 15  1  0
 21  7  1  0
 23 24  1  0
 25  4  1  0
  3 18  2  0
  4  5  2  0
  6 20  2  0
  7 19  2  0
 12 24  2  0
 14 15  2  0
M  END
>  <rmsd>  (1) 
0.159560025

$$$$
