MolPort-007-723-659 6818404 CHEMBL1525458 ChemDiv-E157-7188 MCULE-3916121415 PubChem-16017544 ZINC000006818404 ZINC06818404
     RDKit          3D

 26 27  0  0  0  0  0  0  0  0999 V2000
   13.1497   38.5445   11.1543 C   0  0  0  0  0  0  0  0  0  0  0  0
   13.8829   39.6287   11.9239 C   0  0  0  0  0  0  0  0  0  0  0  0
   13.6757   42.0601   11.3520 C   0  0  0  0  0  0  0  0  0  0  0  0
   12.2921   42.2834   11.5402 C   0  0  0  0  0  0  0  0  0  0  0  0
   11.2874   41.1939   11.3891 C   0  0  0  0  0  0  0  0  0  0  0  0
   11.8262   43.5702   11.8288 C   0  0  0  0  0  0  0  0  0  0  0  0
   12.7182   44.6390   11.9330 C   0  0  0  0  0  0  0  0  0  0  0  0
   12.2125   46.0016   12.2428 C   0  0  0  0  0  0  0  0  0  0  0  0
   14.0836   44.4292   11.7381 C   0  0  0  0  0  0  0  0  0  0  0  0
   14.5575   43.1483   11.4483 C   0  0  0  0  0  0  0  0  0  0  0  0
   15.1158   41.5862    8.4843 C   0  0  0  0  0  0  0  0  0  0  0  0
   14.2268   42.7739    6.6144 C   0  0  0  0  0  0  0  0  0  0  0  0
   13.9197   44.3601    4.6571 C   0  0  0  0  0  0  0  0  0  0  0  0
   13.0388   44.8130    3.5428 C   0  0  0  0  0  0  0  0  0  0  0  0
   13.3702   44.0744    2.2557 C   0  0  0  0  0  0  0  0  0  0  0  0
   12.7685   44.8186    1.0822 C   0  0  0  0  0  0  0  0  0  0  0  0
   12.8043   42.6666    2.2928 C   0  0  0  0  0  0  0  0  0  0  0  0
   14.1982   40.7537   11.0502 N   0  0  0  0  0  0  0  0  0  0  0  0
   15.9645   42.5183    7.9994 N   0  0  0  0  0  0  0  0  0  0  0  0
   15.4703   43.1798    6.9546 N   0  0  0  0  0  0  0  0  0  0  0  0
   13.4697   43.3188    5.5299 N   0  0  0  0  0  0  0  0  0  0  0  0
   15.4678   40.5794    9.8738 S   0  0  0  0  0  0  0  0  0  0  0  0
   13.6711   41.5448    7.6192 S   0  0  0  0  0  0  0  0  0  0  0  0
   16.7751   40.9972   10.4863 O   0  0  0  0  0  0  0  0  0  0  0  0
   15.5702   39.1505    9.4188 O   0  0  0  0  0  0  0  0  0  0  0  0
   15.0577   44.8815    4.7999 O   0  0  0  0  0  0  0  0  0  0  0  0
  1  2  1  0
  2 18  1  0
  4  6  2  0
  5  4  1  0
  7  9  2  0
  8  7  1  0
 10  3  2  0
 11 23  1  0
 12 21  1  0
 12 23  1  0
 14 13  1  0
 14 15  1  0
 15 16  1  0
 15 17  1  0
 18  3  1  0
 19 20  1  0
 21 13  1  0
 22 18  1  0
 22 11  1  0
  3  4  1  0
  6  7  1  0
  9 10  1  0
 11 19  2  0
 12 20  2  0
 13 26  2  0
 22 24  2  0
 22 25  2  0
M  END
>  <rmsd>  (1) 
0.242868766

$$$$
