MolPort-002-095-155 2865898 CHEMBL1462922 CSSS00121602927 MCULE-7345048442 PubChem-2219051 ZINC000002865898 ZINC02865898
     RDKit          3D

 20 21  0  0  0  0  0  0  0  0999 V2000
   13.1761   38.6393   11.0312 C   0  0  0  0  0  0  0  0  0  0  0  0
   13.8244   39.9303   11.4951 C   0  0  0  0  0  0  0  0  0  0  0  0
   13.8136   40.9594   10.3792 C   0  0  0  0  0  0  0  0  0  0  0  0
   14.8731   40.6280    9.3413 C   0  0  0  0  0  0  0  0  0  0  0  0
   14.2649   42.7687    6.6309 C   0  0  0  0  0  0  0  0  0  0  0  0
   13.9111   44.3466    4.6763 C   0  0  0  0  0  0  0  0  0  0  0  0
   12.9844   44.8356    3.6163 C   0  0  0  0  0  0  0  0  0  0  0  0
   12.0764   45.8854    4.1604 C   0  0  0  0  0  0  0  0  0  0  0  0
   12.4607   47.2309    4.1268 C   0  0  0  0  0  0  0  0  0  0  0  0
   11.6173   48.2132    4.6546 C   0  0  0  0  0  0  0  0  0  0  0  0
   10.3906   47.8513    5.2197 C   0  0  0  0  0  0  0  0  0  0  0  0
   10.0077   46.5071    5.2593 C   0  0  0  0  0  0  0  0  0  0  0  0
   10.8506   45.5244    4.7316 C   0  0  0  0  0  0  0  0  0  0  0  0
   14.8464   41.6101    8.2710 N   0  0  0  0  0  0  0  0  0  0  0  0
   15.8499   42.4217    7.9856 N   0  0  0  0  0  0  0  0  0  0  0  0
   15.5116   43.1729    6.9498 N   0  0  0  0  0  0  0  0  0  0  0  0
   13.4830   43.3049    5.5595 N   0  0  0  0  0  0  0  0  0  0  0  0
   13.8306   41.7891    7.4440 N   0  0  0  0  0  0  0  0  0  0  0  0
   15.0474   44.8765    4.7993 O   0  0  0  0  0  0  0  0  0  0  0  0
    9.3353   49.0811    5.8805 Cl  0  0  0  0  0  0  0  0  0  0  0  0
  1  2  1  0
  2  3  1  0
  3  4  1  0
  4 14  1  0
  5 16  1  0
  5 17  1  0
  7  6  1  0
  7  8  1  0
  9 10  2  0
 11 20  1  0
 11 12  2  0
 13  8  2  0
 14 15  1  0
 14 18  1  0
 17  6  1  0
  5 18  2  0
  6 19  2  0
  8  9  1  0
 10 11  1  0
 12 13  1  0
 15 16  2  0
M  END
>  <rmsd>  (1) 
0.160590664

$$$$
