MolPort-002-656-088 9348381 CSSS00160703797 LN00744611 MCULE-6543181931 PubChem-4971255 ZINC000009348381
     RDKit          3D

 33 37  0  0  0  0  0  0  0  0999 V2000
   17.2226   39.5465   11.3759 C   0  0  0  0  0  0  0  0  0  0  0  0
   16.1191   39.9942   10.6727 C   0  0  0  0  0  0  0  0  0  0  0  0
   14.7203   39.6438   10.9665 C   0  0  0  0  0  0  0  0  0  0  0  0
   13.8307   40.6293   11.4172 C   0  0  0  0  0  0  0  0  0  0  0  0
   12.5022   40.2968   11.6979 C   0  0  0  0  0  0  0  0  0  0  0  0
   12.0589   38.9811   11.5246 C   0  0  0  0  0  0  0  0  0  0  0  0
   12.9442   37.9957   11.0735 C   0  0  0  0  0  0  0  0  0  0  0  0
   14.2736   38.3253   10.7973 C   0  0  0  0  0  0  0  0  0  0  0  0
   17.8877   40.9610    9.7877 C   0  0  0  0  0  0  0  0  0  0  0  0
   18.3088   40.1501   10.8241 C   0  0  0  0  0  0  0  0  0  0  0  0
   19.7416   39.0746   12.3438 C   0  0  0  0  0  0  0  0  0  0  0  0
   18.8530   37.5590   14.0575 C   0  0  0  0  0  0  0  0  0  0  0  0
   17.3827   38.6875   12.4595 C   0  0  0  0  0  0  0  0  0  0  0  0
   20.7113   40.5828   10.6515 C   0  0  0  0  0  0  0  0  0  0  0  0
   15.7476   41.5070    8.6822 C   0  0  0  0  0  0  0  0  0  0  0  0
   14.4774   41.0240    8.3270 C   0  0  0  0  0  0  0  0  0  0  0  0
   13.7424   41.6305    7.3052 C   0  0  0  0  0  0  0  0  0  0  0  0
   14.2677   42.7231    6.6103 C   0  0  0  0  0  0  0  0  0  0  0  0
   15.5386   43.2069    6.9540 C   0  0  0  0  0  0  0  0  0  0  0  0
   16.2725   42.6022    7.9783 C   0  0  0  0  0  0  0  0  0  0  0  0
   13.8889   44.3760    4.6859 C   0  0  0  0  0  0  0  0  0  0  0  0
   12.9670   44.8482    3.6468 C   0  0  0  0  0  0  0  0  0  0  0  0
   11.7101   44.3362    3.3987 C   0  0  0  0  0  0  0  0  0  0  0  0
   11.2260   45.0847    2.3403 C   0  0  0  0  0  0  0  0  0  0  0  0
   12.2170   45.9954    2.0135 C   0  0  0  0  0  0  0  0  0  0  0  0
   16.5364   40.8572    9.7006 N   0  0  0  0  0  0  0  0  0  0  0  0
   19.5697   39.9282   11.2808 N   0  0  0  0  0  0  0  0  0  0  0  0
   18.6535   38.4597   12.9266 N   0  0  0  0  0  0  0  0  0  0  0  0
   13.4878   43.3114    5.5605 N   0  0  0  0  0  0  0  0  0  0  0  0
   20.9031   38.8538   12.7903 O   0  0  0  0  0  0  0  0  0  0  0  0
   16.3850   38.1347   12.9972 O   0  0  0  0  0  0  0  0  0  0  0  0
   15.0337   44.8942    4.7782 O   0  0  0  0  0  0  0  0  0  0  0  0
   13.2405   45.8214    2.8157 O   0  0  0  0  0  0  0  0  0  0  0  0
  2  3  1  0
  2 26  1  0
  4  5  2  0
  6  7  2  0
  8  3  2  0
 10 27  1  0
 10  1  1  0
 11 28  1  0
 12 28  1  0
 13  1  1  0
 14 27  1  0
 16 17  2  0
 18 19  2  0
 18 29  1  0
 20 15  2  0
 21 22  1  0
 22 33  1  0
 23 24  1  0
 25 33  1  0
 26  9  1  0
 26 15  1  0
 27 11  1  0
 28 13  1  0
 29 21  1  0
  1  2  2  0
  3  4  1  0
  5  6  1  0
  7  8  1  0
  9 10  2  0
 11 30  2  0
 13 31  2  0
 15 16  1  0
 17 18  1  0
 19 20  1  0
 21 32  2  0
 22 23  2  0
 24 25  2  0
M  END
>  <rmsd>  (1) 
0.235198274

$$$$
