MolPort-002-455-717 2685898 CSSS03437110693 ChemDiv-D039-0045 MCULE-8838929789 PubChem-2134006 ZINC000002685898 ZINC02685898
     RDKit          3D

 26 27  0  0  0  0  0  0  0  0999 V2000
   12.7800   39.2599   11.8288 C   0  0  0  0  0  0  0  0  0  0  0  0
   13.9087   38.9258   10.8759 C   0  0  0  0  0  0  0  0  0  0  0  0
   15.0109   40.6656    9.5251 C   0  0  0  0  0  0  0  0  0  0  0  0
   14.9584   41.6178    8.3969 C   0  0  0  0  0  0  0  0  0  0  0  0
   15.9552   42.4931    7.9821 C   0  0  0  0  0  0  0  0  0  0  0  0
   17.3010   42.6493    8.6021 C   0  0  0  0  0  0  0  0  0  0  0  0
   14.3067   42.8005    6.6480 C   0  0  0  0  0  0  0  0  0  0  0  0
   13.9057   44.3266    4.6582 C   0  0  0  0  0  0  0  0  0  0  0  0
   13.3367   45.5844    2.5245 C   0  0  0  0  0  0  0  0  0  0  0  0
   12.4878   46.6611    2.1993 C   0  0  0  0  0  0  0  0  0  0  0  0
   11.2736   46.9614    3.0162 C   0  0  0  0  0  0  0  0  0  0  0  0
   11.6318   47.8813    4.1682 C   0  0  0  0  0  0  0  0  0  0  0  0
   12.7980   47.4992    1.1237 C   0  0  0  0  0  0  0  0  0  0  0  0
   13.9301   47.2584    0.3459 C   0  0  0  0  0  0  0  0  0  0  0  0
   14.7568   46.1733    0.6362 C   0  0  0  0  0  0  0  0  0  0  0  0
   14.4712   45.3315    1.7165 C   0  0  0  0  0  0  0  0  0  0  0  0
   15.3378   44.1309    1.9180 C   0  0  0  0  0  0  0  0  0  0  0  0
   14.7604   42.9372    1.1814 C   0  0  0  0  0  0  0  0  0  0  0  0
   13.9001   41.8235    7.5305 C   0  0  0  0  0  0  0  0  0  0  0  0
   12.5756   41.1380    7.5319 C   0  0  0  0  0  0  0  0  0  0  0  0
   13.9099   39.8518    9.7997 O   0  0  0  0  0  0  0  0  0  0  0  0
   16.0479   40.5885   10.2392 O   0  0  0  0  0  0  0  0  0  0  0  0
   15.0326   44.8821    4.7683 O   0  0  0  0  0  0  0  0  0  0  0  0
   15.5612   43.2165    6.9143 N   0  0  0  0  0  0  0  0  0  0  0  0
   13.5009   43.3090    5.5786 N   0  0  0  0  0  0  0  0  0  0  0  0
   12.9963   44.7370    3.6333 N   0  0  0  0  0  0  0  0  0  0  0  0
  1  2  1  0
  2 21  1  0
  3 21  1  0
  3  4  1  0
  5 24  1  0
  6  5  1  0
  7 25  1  0
  8 26  1  0
 10 13  2  0
 11 10  1  0
 11 12  1  0
 14 15  2  0
 16  9  2  0
 17 16  1  0
 17 18  1  0
 19  4  1  0
 20 19  1  0
 24  7  1  0
 25  8  1  0
 26  9  1  0
  3 22  2  0
  4  5  2  0
  7 19  2  0
  8 23  2  0
  9 10  1  0
 13 14  1  0
 15 16  1  0
M  END
>  <rmsd>  (1) 
0.197191805

$$$$
