MolPort-005-291-842 12422387 CSSS00106609014 MCULE-9814528495 PubChem-16879787 ZINC000012422387 ZINC12422387
     RDKit          3D

 28 31  0  0  0  0  0  0  0  0999 V2000
   10.0155   45.3076    1.6999 C   0  0  0  0  0  0  0  0  0  0  0  0
   11.3350   45.3333    2.3837 C   0  0  0  0  0  0  0  0  0  0  0  0
   12.9992   44.9320    3.6740 C   0  0  0  0  0  0  0  0  0  0  0  0
   11.7125   44.4939    3.4148 C   0  0  0  0  0  0  0  0  0  0  0  0
   13.9013   44.3895    4.6941 C   0  0  0  0  0  0  0  0  0  0  0  0
   14.2519   42.6959    6.5532 C   0  0  0  0  0  0  0  0  0  0  0  0
   16.0331   42.3141    7.8771 C   0  0  0  0  0  0  0  0  0  0  0  0
   15.1558   41.3342    8.3786 C   0  0  0  0  0  0  0  0  0  0  0  0
   15.4592   40.2672    9.3554 C   0  0  0  0  0  0  0  0  0  0  0  0
   14.4749   39.8329   10.3716 C   0  0  0  0  0  0  0  0  0  0  0  0
   14.7145   38.6750   11.1276 C   0  0  0  0  0  0  0  0  0  0  0  0
   13.8025   38.2628   12.1036 C   0  0  0  0  0  0  0  0  0  0  0  0
   12.6441   39.0081   12.3365 C   0  0  0  0  0  0  0  0  0  0  0  0
   12.3988   40.1666   11.5953 C   0  0  0  0  0  0  0  0  0  0  0  0
   13.3114   40.5781   10.6198 C   0  0  0  0  0  0  0  0  0  0  0  0
   17.3894   42.5996    8.3951 C   0  0  0  0  0  0  0  0  0  0  0  0
   18.3321   43.2190    7.5609 C   0  0  0  0  0  0  0  0  0  0  0  0
   19.6070   43.5329    8.0407 C   0  0  0  0  0  0  0  0  0  0  0  0
   19.9473   43.2397    9.3636 C   0  0  0  0  0  0  0  0  0  0  0  0
   19.0112   42.6375   10.2076 C   0  0  0  0  0  0  0  0  0  0  0  0
   17.7366   42.3245    9.7267 C   0  0  0  0  0  0  0  0  0  0  0  0
   12.3221   46.1904    2.0683 N   0  0  0  0  0  0  0  0  0  0  0  0
   13.4657   43.3084    5.5270 N   0  0  0  0  0  0  0  0  0  0  0  0
   15.5140   43.0611    6.8623 N   0  0  0  0  0  0  0  0  0  0  0  0
   13.3090   45.9187    2.8669 O   0  0  0  0  0  0  0  0  0  0  0  0
   15.0536   44.8821    4.8274 O   0  0  0  0  0  0  0  0  0  0  0  0
   16.5807   39.6928    9.2997 O   0  0  0  0  0  0  0  0  0  0  0  0
   13.7136   41.4298    7.5080 S   0  0  0  0  0  0  0  0  0  0  0  0
  1  2  1  0
  3 25  1  0
  3  5  1  0
  4  2  1  0
  5 23  1  0
  6 28  1  0
  7 24  1  0
  7 16  1  0
  8 28  1  0
  8  9  1  0
  9 10  1  0
 11 12  2  0
 13 14  2  0
 15 10  2  0
 17 18  2  0
 19 20  2  0
 21 16  2  0
 22 25  1  0
 23  6  1  0
  2 22  2  0
  3  4  2  0
  5 26  2  0
  6 24  2  0
  7  8  2  0
  9 27  2  0
 10 11  1  0
 12 13  1  0
 14 15  1  0
 16 17  1  0
 18 19  1  0
 20 21  1  0
M  END
>  <rmsd>  (1) 
0.216825217

$$$$
