MolPort-051-449-184 CSSS09880959523 MCULE-2042059605 PubChem-162638207
     RDKit          3D

 24 26  0  0  0  0  0  0  0  0999 V2000
   12.3015   38.6129   10.9553 F   0  0  0  0  0  0  0  0  0  0  0  0
   14.5371   38.3630   10.8996 F   0  0  0  0  0  0  0  0  0  0  0  0
   13.6161   40.0086   12.1329 F   0  0  0  0  0  0  0  0  0  0  0  0
   13.5106   39.2880   10.9573 C   0  0  0  0  0  0  0  0  0  0  0  0
   13.6099   40.2213    9.7859 C   0  0  0  0  0  0  0  0  0  0  0  0
   12.5448   40.3317    8.8546 C   0  0  0  0  0  0  0  0  0  0  0  0
   12.6312   41.2049    7.7545 C   0  0  0  0  0  0  0  0  0  0  0  0
   13.8011   41.9462    7.6277 C   0  0  0  0  0  0  0  0  0  0  0  0
   14.8327   41.8498    8.5160 C   0  0  0  0  0  0  0  0  0  0  0  0
   14.2248   42.8699    6.7087 C   0  0  0  0  0  0  0  0  0  0  0  0
   13.9403   44.2890    4.6273 C   0  0  0  0  0  0  0  0  0  0  0  0
   13.0728   44.6598    3.4778 C   0  0  0  0  0  0  0  0  0  0  0  0
   11.5265   46.0330    2.7081 C   0  0  0  0  0  0  0  0  0  0  0  0
   10.4702   47.0791    3.0158 C   0  0  1  0  0  0  0  0  0  0  0  0
   11.1167   48.3552    3.5089 C   0  0  0  0  0  0  0  0  0  0  0  0
   10.3356   49.4403    2.8317 C   0  0  0  0  0  0  0  0  0  0  0  0
    9.2991   48.6925    2.0267 C   0  0  0  0  0  0  0  0  0  0  0  0
   14.7780   40.9962    9.6139 C   0  0  0  0  0  0  0  0  0  0  0  0
   15.8380   42.6713    8.1604 N   0  0  0  0  0  0  0  0  0  0  0  0
   15.4634   43.2986    7.0477 N   0  0  0  0  0  0  0  0  0  0  0  0
   13.4841   43.3100    5.5657 N   0  0  0  0  0  0  0  0  0  0  0  0
   15.0503   44.8651    4.7771 O   0  0  0  0  0  0  0  0  0  0  0  0
   12.1197   45.5902    3.8910 O   0  0  0  0  0  0  0  0  0  0  0  0
    9.7417   47.3731    1.8544 O   0  0  0  0  0  0  0  0  0  0  0  0
  4  1  1  0
  4  2  1  0
  4  3  1  0
  4  5  1  0
  6  7  2  0
  8  9  2  0
  9 19  1  0
 10 21  1  0
 10  8  1  0
 12 11  1  0
 12 23  1  0
 13 23  1  0
 14 13  1  6
 14 15  1  0
 14 24  1  0
 15 16  1  0
 16 17  1  0
 17 24  1  0
 18  5  2  0
 19 20  1  0
 21 11  1  0
  5  6  1  0
  7  8  1  0
  9 18  1  0
 10 20  2  0
 11 22  2  0
M  END
>  <rmsd>  (1) 
0.247777045

$$$$
