MolPort-029-891-160 96136481 CSC046102906 CSSS00046102906 MCULE-3429289033 PubChem-72855602 ZINC000096136481 ZINC96136481
     RDKit          3D

 28 31  0  0  0  0  0  0  0  0999 V2000
   15.0561   44.8847    4.7974 O   0  0  0  0  0  0  0  0  0  0  0  0
   13.6142   40.1283    9.1653 O   0  0  0  0  0  0  0  0  0  0  0  0
   13.5503   46.2677    0.3589 O   0  0  0  0  0  0  0  0  0  0  0  0
   13.9158   44.3671    4.6451 C   0  0  0  0  0  0  0  0  0  0  0  0
   14.1920   42.7499    6.6212 C   0  0  0  0  0  0  0  0  0  0  0  0
   13.5877   41.7319    7.3668 C   0  0  0  0  0  0  0  0  0  0  0  0
   14.2537   41.1447    8.4477 C   0  0  0  0  0  0  0  0  0  0  0  0
   14.1878   39.4996   10.3065 C   0  0  0  0  0  0  0  0  0  0  0  0
   13.4395   38.2128   10.6075 C   0  0  0  0  0  0  0  0  0  0  0  0
   12.7182   38.4276   11.9207 C   0  0  0  0  0  0  0  0  0  0  0  0
   13.4911   39.5135   12.6289 C   0  0  0  0  0  0  0  0  0  0  0  0
   14.0328   40.3940   11.5263 C   0  0  0  0  0  0  0  0  0  0  0  0
   15.5444   41.5839    8.7826 C   0  0  0  0  0  0  0  0  0  0  0  0
   16.1555   42.5996    8.0439 C   0  0  0  0  0  0  0  0  0  0  0  0
   15.4815   43.1807    6.9671 C   0  0  0  0  0  0  0  0  0  0  0  0
   11.7262   44.2243    3.4411 C   0  0  0  0  0  0  0  0  0  0  0  0
   10.8711   44.9712    2.4203 C   0  0  0  0  0  0  0  0  0  0  0  0
   12.9310   45.7891    1.3457 C   0  0  0  0  0  0  0  0  0  0  0  0
   13.5265   45.9095    2.7134 C   0  0  0  0  0  0  0  0  0  0  0  0
   11.0943   44.7558   -0.0761 C   0  0  0  0  0  0  0  0  0  0  0  0
   11.9162   44.6205   -1.2079 C   0  0  0  0  0  0  0  0  0  0  0  0
   11.3865   44.1919   -2.4282 C   0  0  0  0  0  0  0  0  0  0  0  0
   10.0273   43.8885   -2.5313 C   0  0  0  0  0  0  0  0  0  0  0  0
    9.1986   44.0120   -1.4142 C   0  0  0  0  0  0  0  0  0  0  0  0
    9.7294   44.4407   -0.1943 C   0  0  0  0  0  0  0  0  0  0  0  0
   13.4688   43.3214    5.5226 N   0  0  0  0  0  0  0  0  0  0  0  0
   13.0610   44.8243    3.5870 N   0  0  0  0  0  0  0  0  0  0  0  0
   11.6348   45.1826    1.1940 N   0  0  0  0  0  0  0  0  0  0  0  0
  4 26  1  0
  4 27  1  0
  6  7  2  0
  7  2  1  0
  8  2  1  0
  8  9  1  0
  9 10  1  0
 10 11  1  0
 11 12  1  0
 12  8  1  0
 13 14  2  0
 15  5  2  0
 16 27  1  0
 16 17  1  0
 17 28  1  0
 19 18  1  0
 19 27  1  0
 21 22  2  0
 23 24  2  0
 25 20  2  0
 26  5  1  0
 28 18  1  0
 28 20  1  0
  4  1  2  0
  5  6  1  0
  7 13  1  0
 14 15  1  0
 18  3  2  0
 20 21  1  0
 22 23  1  0
 24 25  1  0
M  END
>  <rmsd>  (1) 
0.249331847

$$$$
