Molport-052-050-742 MCULE-8882121640
     RDKit          3D

 23 25  0  0  0  0  0  0  0  0999 V2000
   14.3590   41.1404    8.4340 C   0  0  0  0  0  0  0  0  0  0  0  0
   13.7177   40.0519    9.2287 C   0  0  2  0  0  0  0  0  0  0  0  0
   13.5820   40.4625   10.6964 C   0  0  0  0  0  0  0  0  0  0  0  0
   12.9231   39.3452   11.5026 C   0  0  0  0  0  0  0  0  0  0  0  0
   13.7428   38.0641   11.3837 C   0  0  0  0  0  0  0  0  0  0  0  0
   13.5295   36.4649    9.4418 C   0  0  0  0  0  0  0  0  0  0  0  0
   12.9411   35.4154   10.3246 C   0  0  0  0  0  0  0  0  0  0  0  0
   14.5159   38.7542    9.1041 C   0  0  0  0  0  0  0  0  0  0  0  0
   16.2071   42.5514    8.0070 C   0  0  0  0  0  0  0  0  0  0  0  0
   17.5837   42.9983    8.3431 C   0  0  0  0  0  0  0  0  0  0  0  0
   15.5193   43.1469    6.9519 C   0  0  0  0  0  0  0  0  0  0  0  0
   14.2246   42.7050    6.6588 C   0  0  0  0  0  0  0  0  0  0  0  0
   13.8718   44.3176    4.7012 C   0  0  0  0  0  0  0  0  0  0  0  0
   14.0748   46.0404    2.9554 C   0  0  0  0  0  0  0  0  0  0  0  0
   15.1868   45.8868    3.7846 C   0  0  0  0  0  0  0  0  0  0  0  0
   13.9309   37.7365    9.9726 N   0  0  0  0  0  0  0  0  0  0  0  0
   15.6191   41.5625    8.7276 N   0  0  0  0  0  0  0  0  0  0  0  0
   13.4579   43.2714    5.5880 N   0  0  0  0  0  0  0  0  0  0  0  0
   15.0702   44.9331    4.7485 N   0  0  0  0  0  0  0  0  0  0  0  0
   13.6758   41.7118    7.4074 N   0  0  0  0  0  0  0  0  0  0  0  0
   13.9600   34.6272   10.8585 O   0  0  0  0  0  0  0  0  0  0  0  0
   13.6979   36.2070    8.2199 O   0  0  0  0  0  0  0  0  0  0  0  0
   12.9181   44.9283    3.4709 S   0  0  0  0  0  0  0  0  0  0  0  0
  1 20  2  0
  2  1  1  6
  2  3  1  0
  3  4  1  0
  4  5  1  0
  5 16  1  0
  7  6  1  0
  7 21  1  0
  8 16  1  0
  8  2  1  0
  9 17  2  0
 10  9  1  0
 11 12  2  0
 12 18  1  0
 13 23  1  0
 14 23  1  0
 15 19  1  0
 16  6  1  0
 18 13  1  0
  1 17  1  0
  6 22  2  0
  9 11  1  0
 12 20  1  0
 13 19  2  0
 14 15  2  0
M  END
>  <rmsd>  (1) 
0.240076661

$$$$
