MolPort-010-777-046 MolPort-047-128-844 ChemDiv-G889-0087 MCULE-3695965441 MCULE-9086515972 PubChem-146060485 PubChem-50807345 ZINC000046053313
     RDKit          3D

 24 25  0  0  0  0  0  0  0  0999 V2000
   12.9423   39.7135   11.5374 C   0  0  0  0  0  0  0  0  0  0  0  0
   14.1472   38.9852   10.9726 C   0  0  0  0  0  0  0  0  0  0  0  0
   15.4239   39.4765   11.6361 C   0  0  0  0  0  0  0  0  0  0  0  0
   15.8129   40.8666   11.1425 C   0  0  0  0  0  0  0  0  0  0  0  0
   17.5097   40.0508    9.4622 C   0  0  0  0  0  0  0  0  0  0  0  0
   15.6170   41.5170    8.7328 C   0  0  0  0  0  0  0  0  0  0  0  0
   16.2151   42.5775    8.0048 C   0  0  0  0  0  0  0  0  0  0  0  0
   15.5027   43.1597    6.9468 C   0  0  0  0  0  0  0  0  0  0  0  0
   14.2136   42.7270    6.6112 C   0  0  0  0  0  0  0  0  0  0  0  0
   13.9051   44.3725    4.6653 C   0  0  0  0  0  0  0  0  0  0  0  0
   13.0053   44.8623    3.6059 C   0  0  0  0  0  0  0  0  0  0  0  0
   11.7298   44.3017    3.4442 C   0  0  0  0  0  0  0  0  0  0  0  0
   10.8754   44.7657    2.4397 C   0  0  0  0  0  0  0  0  0  0  0  0
   11.2903   45.7940    1.5892 C   0  0  0  0  0  0  0  0  0  0  0  0
   12.5593   46.3585    1.7430 C   0  0  0  0  0  0  0  0  0  0  0  0
   13.4137   45.8945    2.7476 C   0  0  0  0  0  0  0  0  0  0  0  0
   13.6251   41.7016    7.3514 C   0  0  0  0  0  0  0  0  0  0  0  0
   14.3211   41.1009    8.4002 C   0  0  0  0  0  0  0  0  0  0  0  0
   17.5414   43.1444    8.3353 C   0  0  0  0  0  0  0  0  0  0  0  0
   16.3136   40.8211    9.7734 N   0  0  0  0  0  0  0  0  0  0  0  0
   13.4710   43.3151    5.5346 N   0  0  0  0  0  0  0  0  0  0  0  0
   15.0496   44.8851    4.7996 O   0  0  0  0  0  0  0  0  0  0  0  0
   18.1919   43.9644    7.4200 O   0  0  0  0  0  0  0  0  0  0  0  0
   18.0797   42.9338    9.4538 O   0  0  0  0  0  0  0  0  0  0  0  0
  1  2  1  0
  2  3  1  0
  3  4  1  0
  4 20  1  0
  5 20  1  0
  7  8  2  0
  7 19  1  0
  9 21  1  0
  9 17  2  0
 10 11  1  0
 12 13  2  0
 14 15  2  0
 16 11  2  0
 18  6  2  0
 19 23  1  0
 20  6  1  0
 21 10  1  0
  6  7  1  0
  8  9  1  0
 10 22  2  0
 11 12  1  0
 13 14  1  0
 15 16  1  0
 17 18  1  0
 19 24  2  0
M  END
>  <rmsd>  (1) 
0.241696745

$$$$
