MolPort-028-600-077 94568761 LN01806253 MCULE-5008418291 PubChem-53404549 ZINC000094568761 ZINC94568761
     RDKit          3D

 18 18  0  0  0  0  0  0  0  0999 V2000
   12.7713   39.3137   11.6898 C   0  0  0  0  0  0  0  0  0  0  0  0
   13.9181   39.0029   10.7509 C   0  0  0  0  0  0  0  0  0  0  0  0
   15.0207   40.7689    9.4372 C   0  0  0  0  0  0  0  0  0  0  0  0
   14.9694   41.7198    8.3222 C   0  0  0  0  0  0  0  0  0  0  0  0
   15.9756   42.5971    7.9636 C   0  0  0  0  0  0  0  0  0  0  0  0
   14.3178   42.8180    6.6589 C   0  0  0  0  0  0  0  0  0  0  0  0
   13.8974   44.3291    4.6728 C   0  0  0  0  0  0  0  0  0  0  0  0
   13.2697   45.7244    2.6867 C   0  0  0  0  0  0  0  0  0  0  0  0
   14.4721   45.3472    1.8387 C   0  0  0  0  0  0  0  0  0  0  0  0
   13.5105   47.0686    3.3520 C   0  0  0  0  0  0  0  0  0  0  0  0
   12.0643   45.8489    1.7792 C   0  0  0  0  0  0  0  0  0  0  0  0
   13.9250   39.9398    9.6842 O   0  0  0  0  0  0  0  0  0  0  0  0
   16.0497   40.7056   10.1644 O   0  0  0  0  0  0  0  0  0  0  0  0
   15.5257   43.2594    6.9244 O   0  0  0  0  0  0  0  0  0  0  0  0
   15.0307   44.8748    4.7722 O   0  0  0  0  0  0  0  0  0  0  0  0
   13.0039   44.7161    3.6649 O   0  0  0  0  0  0  0  0  0  0  0  0
   13.9108   41.8509    7.5006 N   0  0  0  0  0  0  0  0  0  0  0  0
   13.5029   43.3037    5.5886 N   0  0  0  0  0  0  0  0  0  0  0  0
  1  2  1  0
  2 12  1  0
  3 12  1  0
  3  4  1  0
  4 17  1  0
  5 14  1  0
  6 14  1  0
  6 18  1  0
  7 16  1  0
  8 16  1  0
  8  9  1  0
  8 10  1  0
  8 11  1  0
 18  7  1  0
  3 13  2  0
  4  5  2  0
  6 17  2  0
  7 15  2  0
M  END
>  <rmsd>  (1) 
0.196499437

$$$$
