MolPort-047-459-752 238259116 MCULE-6165726472 PubChem-121002143
     RDKit          3D

 18 18  0  0  0  0  0  0  0  0999 V2000
   12.7649   39.2590   11.7573 C   0  0  0  0  0  0  0  0  0  0  0  0
   13.9115   38.9487   10.8180 C   0  0  0  0  0  0  0  0  0  0  0  0
   15.0095   40.7146    9.4996 C   0  0  0  0  0  0  0  0  0  0  0  0
   14.9605   41.6657    8.3841 C   0  0  0  0  0  0  0  0  0  0  0  0
   13.8842   41.8148    7.5287 C   0  0  0  0  0  0  0  0  0  0  0  0
   14.2965   42.8037    6.6644 C   0  0  0  0  0  0  0  0  0  0  0  0
   15.5688   43.2114    7.0104 C   0  0  0  0  0  0  0  0  0  0  0  0
   13.8982   44.3339    4.6674 C   0  0  0  0  0  0  0  0  0  0  0  0
   13.2691   45.7268    2.6798 C   0  0  0  0  0  0  0  0  0  0  0  0
   14.4718   45.3496    1.8319 C   0  0  0  0  0  0  0  0  0  0  0  0
   13.5089   47.0718    3.3435 C   0  0  0  0  0  0  0  0  0  0  0  0
   12.0635   45.8492    1.7724 C   0  0  0  0  0  0  0  0  0  0  0  0
   13.9154   39.8835    9.7494 O   0  0  0  0  0  0  0  0  0  0  0  0
   16.0390   40.6542   10.2259 O   0  0  0  0  0  0  0  0  0  0  0  0
   15.0307   44.8811    4.7651 O   0  0  0  0  0  0  0  0  0  0  0  0
   13.0043   44.7192    3.6590 O   0  0  0  0  0  0  0  0  0  0  0  0
   15.9748   42.5009    8.0786 N   0  0  0  0  0  0  0  0  0  0  0  0
   13.5027   43.3079    5.5843 N   0  0  0  0  0  0  0  0  0  0  0  0
  1  2  1  0
  2 13  1  0
  3 13  1  0
  3  4  1  0
  5  6  1  0
  6 18  1  0
  7 17  1  0
  8 16  1  0
  9 16  1  0
  9 10  1  0
  9 11  1  0
  9 12  1  0
 17  4  1  0
 18  8  1  0
  3 14  2  0
  4  5  2  0
  6  7  2  0
  8 15  2  0
M  END
>  <rmsd>  (1) 
0.199571803

$$$$
