MolPort-010-852-202 41108814 ChemDiv-G952-1317 MCULE-6535544697 PubChem-52103589 ZINC000041108814
     RDKit          3D

 27 30  0  0  0  0  0  0  0  0999 V2000
   14.5843   41.6502    8.5049 N   0  0  0  0  0  0  0  0  0  0  0  0
   13.6997   41.9055    7.5551 N   0  0  0  0  0  0  0  0  0  0  0  0
   16.5403   41.9598    9.4768 N   0  0  0  0  0  0  0  0  0  0  0  0
   15.8562   41.0538   10.1879 N   0  0  0  0  0  0  0  0  0  0  0  0
   13.4947   43.3122    5.5705 N   0  0  0  0  0  0  0  0  0  0  0  0
   14.2247   42.8355    6.7074 C   0  0  0  0  0  0  0  0  0  0  0  0
   15.7210   42.2887    8.4637 C   0  0  0  0  0  0  0  0  0  0  0  0
   14.6520   40.8670    9.5807 C   0  0  0  0  0  0  0  0  0  0  0  0
   13.5731   39.9478   10.0487 C   0  0  0  0  0  0  0  0  0  0  0  0
   14.0867   38.5014   10.0860 C   0  0  0  0  0  0  0  0  0  0  0  0
   13.2379   37.6478   11.0230 C   0  0  0  0  0  0  0  0  0  0  0  0
   13.2953   38.1674   12.4668 C   0  0  0  0  0  0  0  0  0  0  0  0
   13.5865   39.6706   12.5698 C   0  0  0  0  0  0  0  0  0  0  0  0
   12.9922   40.4330   11.3870 C   0  0  0  0  0  0  0  0  0  0  0  0
   13.9338   44.3014    4.6327 C   0  0  0  0  0  0  0  0  0  0  0  0
   13.0651   44.6416    3.4709 C   0  0  0  0  0  0  0  0  0  0  0  0
   14.1206   43.3695    1.6150 C   0  0  0  0  0  0  0  0  0  0  0  0
   15.2103   44.2517    1.5266 C   0  0  0  0  0  0  0  0  0  0  0  0
   16.2386   44.0121    0.6106 C   0  0  0  0  0  0  0  0  0  0  0  0
   17.3885   44.9491    0.5230 C   0  0  0  0  0  0  0  0  0  0  0  0
   16.1841   42.8920   -0.2228 C   0  0  0  0  0  0  0  0  0  0  0  0
   15.1016   42.0118   -0.1404 C   0  0  0  0  0  0  0  0  0  0  0  0
   15.0436   40.8209   -1.0266 C   0  0  0  0  0  0  0  0  0  0  0  0
   14.0730   42.2517    0.7756 C   0  0  0  0  0  0  0  0  0  0  0  0
   15.8195   43.3384    7.1633 S   0  0  0  0  0  0  0  0  0  0  0  0
   13.0747   43.5809    2.5203 O   0  0  0  0  0  0  0  0  0  0  0  0
   15.0447   44.8791    4.7626 O   0  0  0  0  0  0  0  0  0  0  0  0
  1  2  1  0
  3  4  1  0
  5 15  1  0
  6 25  1  0
  6  5  1  0
  7 25  1  0
  7  1  1  0
  8  1  1  0
  9  8  1  0
  9 10  1  0
 10 11  1  0
 11 12  1  0
 12 13  1  0
 13 14  1  0
 14  9  1  0
 16 15  1  0
 16 26  1  0
 17 26  1  0
 18 19  2  0
 20 19  1  0
 21 22  2  0
 23 22  1  0
 24 17  2  0
  6  2  2  0
  7  3  2  0
  8  4  2  0
 15 27  2  0
 17 18  1  0
 19 21  1  0
 22 24  1  0
M  END
>  <rmsd>  (1) 
0.227589503

$$$$
