MolPort-020-278-623 MCULE-9206712680 PubChem-110255495
     RDKit          3D

 27 30  0  0  0  0  0  0  0  0999 V2000
   17.5525   43.0521    8.3796 C   0  0  0  0  0  0  0  0  0  0  0  0
   16.1816   42.5970    8.0306 C   0  0  0  0  0  0  0  0  0  0  0  0
   15.5024   43.1803    6.9624 C   0  0  0  0  0  0  0  0  0  0  0  0
   14.2146   42.7278    6.6557 C   0  0  0  0  0  0  0  0  0  0  0  0
   14.3385   41.1764    8.4442 C   0  0  0  0  0  0  0  0  0  0  0  0
   13.6988   40.0851    9.2358 C   0  0  2  0  0  0  0  0  0  0  0  0
   13.5029   40.5221   10.6906 C   0  0  0  0  0  0  0  0  0  0  0  0
   13.0768   39.3451   11.5712 C   0  0  0  0  0  0  0  0  0  0  0  0
   13.8784   38.0675   11.2772 C   0  0  0  0  0  0  0  0  0  0  0  0
   14.5085   38.7832    9.1104 C   0  0  0  0  0  0  0  0  0  0  0  0
   15.7004   37.0735   10.1780 C   0  0  0  0  0  0  0  0  0  0  0  0
   16.8937   36.9603   11.0658 C   0  0  0  0  0  0  0  0  0  0  0  0
   17.9742   37.8381   10.9274 C   0  0  0  0  0  0  0  0  0  0  0  0
   19.1281   36.7518   12.6971 C   0  0  0  0  0  0  0  0  0  0  0  0
   18.0715   35.8524   12.8623 C   0  0  0  0  0  0  0  0  0  0  0  0
   16.9491   35.9598   12.0385 C   0  0  0  0  0  0  0  0  0  0  0  0
   13.8485   44.3254    4.6719 C   0  0  0  0  0  0  0  0  0  0  0  0
   12.9536   44.7406    3.6821 C   0  0  0  0  0  0  0  0  0  0  0  0
   13.3256   45.7595    2.8028 C   0  0  0  0  0  0  0  0  0  0  0  0
   14.5840   46.3521    2.9178 C   0  0  0  0  0  0  0  0  0  0  0  0
   15.4540   45.9124    3.9172 C   0  0  0  0  0  0  0  0  0  0  0  0
   13.6640   41.7356    7.4046 N   0  0  0  0  0  0  0  0  0  0  0  0
   15.5920   41.6086    8.7505 N   0  0  0  0  0  0  0  0  0  0  0  0
   15.0225   38.3392   10.4060 N   0  0  0  0  0  0  0  0  0  0  0  0
   19.0588   37.7175   11.7406 N   0  0  0  0  0  0  0  0  0  0  0  0
   13.4534   43.2807    5.5716 N   0  0  0  0  0  0  0  0  0  0  0  0
   15.0718   44.9193    4.7648 N   0  0  0  0  0  0  0  0  0  0  0  0
  1  2  1  0
  2 23  2  0
  3  4  2  0
  4 26  1  0
  5 22  2  0
  6  5  1  6
  6  7  1  0
  7  8  1  0
  8  9  1  0
  9 24  1  0
 10 24  1  0
 10  6  1  0
 11 24  1  0
 11 12  1  0
 13 25  2  0
 14 15  2  0
 16 12  2  0
 17 27  2  0
 18 19  2  0
 20 21  2  0
 26 17  1  0
  2  3  1  0
  4 22  1  0
  5 23  1  0
 12 13  1  0
 14 25  1  0
 15 16  1  0
 17 18  1  0
 19 20  1  0
 21 27  1  0
M  END
>  <rmsd>  (1) 
0.24551709

$$$$
