MolPort-010-852-379 41076406 ChemDiv-G952-3399 MCULE-5574678977 PubChem-52095938 ZINC000041076406 ZINC41076406
     RDKit          3D

 26 29  0  0  0  0  0  0  0  0999 V2000
   14.0788   39.0130   11.9659 C   0  0  0  0  0  0  0  0  0  0  0  0
   13.1241   39.6561   10.9779 C   0  0  0  0  0  0  0  0  0  0  0  0
   13.5943   39.4205    9.5518 C   0  0  0  0  0  0  0  0  0  0  0  0
   14.6750   40.3804    9.1765 C   0  0  0  0  0  0  0  0  0  0  0  0
   15.7511   41.8959    8.1986 C   0  0  0  0  0  0  0  0  0  0  0  0
   14.2166   42.6905    6.5755 C   0  0  0  0  0  0  0  0  0  0  0  0
   13.9190   44.3744    4.6745 C   0  0  0  0  0  0  0  0  0  0  0  0
   13.0347   44.8524    3.5749 C   0  0  0  0  0  0  0  0  0  0  0  0
   14.2600   44.0340    1.4660 C   0  0  0  0  0  0  0  0  0  0  0  0
   14.2762   42.8062    0.6800 C   0  0  0  0  0  0  0  0  0  0  0  0
   15.1274   42.3944   -0.3432 C   0  0  0  0  0  0  0  0  0  0  0  0
   14.9030   41.1273   -0.9096 C   0  0  0  0  0  0  0  0  0  0  0  0
   13.8508   40.3088   -0.4457 C   0  0  0  0  0  0  0  0  0  0  0  0
   13.0080   40.7452    0.5917 C   0  0  0  0  0  0  0  0  0  0  0  0
   13.2482   42.0059    1.1338 C   0  0  0  0  0  0  0  0  0  0  0  0
   12.5733   42.7213    2.2101 C   0  0  0  0  0  0  0  0  0  0  0  0
   15.9151   40.4361    9.7340 N   0  0  0  0  0  0  0  0  0  0  0  0
   16.6037   41.4024    9.1125 N   0  0  0  0  0  0  0  0  0  0  0  0
   13.4701   43.3117    5.5226 N   0  0  0  0  0  0  0  0  0  0  0  0
   13.1832   43.9988    2.4044 N   0  0  0  0  0  0  0  0  0  0  0  0
   13.6861   41.6891    7.3333 N   0  0  0  0  0  0  0  0  0  0  0  0
   14.5911   41.2997    8.2158 N   0  0  0  0  0  0  0  0  0  0  0  0
   15.8470   43.0778    7.0170 S   0  0  0  0  0  0  0  0  0  0  0  0
   15.0581   44.8908    4.8191 O   0  0  0  0  0  0  0  0  0  0  0  0
   15.0810   44.9836    1.3644 O   0  0  0  0  0  0  0  0  0  0  0  0
   11.6114   42.2830    2.8948 O   0  0  0  0  0  0  0  0  0  0  0  0
  1  2  1  0
  2  3  1  0
  3  4  1  0
  5 23  1  0
  6 23  1  0
  6 19  1  0
  8  7  1  0
  8 20  1  0
  9 10  1  0
 11 12  2  0
 13 14  2  0
 15 16  1  0
 15 10  2  0
 16 20  1  0
 17 18  1  0
 19  7  1  0
 20  9  1  0
 22 21  1  0
 22  4  1  0
 22  5  1  0
  4 17  2  0
  5 18  2  0
  6 21  2  0
  7 24  2  0
  9 25  2  0
 10 11  1  0
 12 13  1  0
 14 15  1  0
 16 26  2  0
M  END
>  <rmsd>  (1) 
0.213619873

$$$$
