MolPort-005-112-484 CSSS00159534780 MCULE-5873997542
     RDKit          3D

 35 40  0  0  0  0  0  0  0  0999 V2000
   16.5570   39.7492   10.5860 C   0  0  0  0  0  0  0  0  0  0  0  0
   18.0217   39.9645   10.3655 C   0  0  1  0  0  0  0  0  0  0  0  0
   18.7994   38.7548   10.8532 C   0  0  0  0  0  0  0  0  0  0  0  0
   19.2361   37.9941    9.6082 C   0  0  0  0  0  0  0  0  0  0  0  0
   19.1091   38.9640    8.4488 C   0  0  0  0  0  0  0  0  0  0  0  0
   18.0097   41.2193    8.1419 C   0  0  0  0  0  0  0  0  0  0  0  0
   17.2019   42.3520    8.6925 C   0  0  0  0  0  0  0  0  0  0  0  0
   15.5911   43.1077    6.9609 C   0  0  0  0  0  0  0  0  0  0  0  0
   14.2758   42.8084    6.6726 C   0  0  0  0  0  0  0  0  0  0  0  0
   13.8348   41.8989    7.6114 C   0  0  0  0  0  0  0  0  0  0  0  0
   13.9245   44.2958    4.6380 C   0  0  0  0  0  0  0  0  0  0  0  0
   13.0593   44.6492    3.4992 C   0  0  0  0  0  0  0  0  0  0  0  0
   13.4579   45.6596    2.5894 C   0  0  0  0  0  0  0  0  0  0  0  0
   12.6470   46.0042    1.4935 C   0  0  0  0  0  0  0  0  0  0  0  0
   11.4485   45.3146    1.3401 C   0  0  0  0  0  0  0  0  0  0  0  0
   11.0583   44.3453    2.2057 C   0  0  0  0  0  0  0  0  0  0  0  0
    9.4359   44.5290    0.6162 C   0  0  0  0  0  0  0  0  0  0  0  0
   11.8324   43.9790    3.3036 C   0  0  0  0  0  0  0  0  0  0  0  0
   14.6172   39.9594   11.3714 C   0  0  0  0  0  0  0  0  0  0  0  0
   14.6052   38.9781   10.4279 C   0  0  0  0  0  0  0  0  0  0  0  0
   13.4430   38.2893   10.0902 C   0  0  0  0  0  0  0  0  0  0  0  0
   12.2618   38.6400   10.7708 C   0  0  0  0  0  0  0  0  0  0  0  0
   12.2754   39.6578   11.7513 C   0  0  0  0  0  0  0  0  0  0  0  0
   13.4688   40.3358   12.0629 C   0  0  0  0  0  0  0  0  0  0  0  0
   18.3202   40.0726    8.9476 N   0  0  0  0  0  0  0  0  0  0  0  0
   15.8954   42.3914    8.0564 N   0  0  0  0  0  0  0  0  0  0  0  0
   14.8628   41.6627    8.4492 N   0  0  0  0  0  0  0  0  0  0  0  0
   13.4950   43.3028    5.5798 N   0  0  0  0  0  0  0  0  0  0  0  0
   15.8508   40.4682   11.4964 N   0  0  0  0  0  0  0  0  0  0  0  0
   15.8304   38.8191    9.9087 N   0  0  0  0  0  0  0  0  0  0  0  0
   18.4192   41.2829    6.9517 O   0  0  0  0  0  0  0  0  0  0  0  0
   15.0369   44.8735    4.7825 O   0  0  0  0  0  0  0  0  0  0  0  0
    9.8377   43.8370    1.8073 O   0  0  0  0  0  0  0  0  0  0  0  0
   10.4927   45.4635    0.3549 O   0  0  0  0  0  0  0  0  0  0  0  0
   11.1026   38.0056   10.4760 F   0  0  0  0  0  0  0  0  0  0  0  0
  1 29  1  0
  2  1  1  6
  2  3  1  0
  2 25  1  0
  3  4  1  0
  4  5  1  0
  5 25  1  0
  7  6  1  0
  7 26  1  0
  9 10  1  0
  9 28  1  0
 11 12  1  0
 13 14  2  0
 15 16  2  0
 15 34  1  0
 16 33  1  0
 17 33  1  0
 17 34  1  0
 18 12  2  0
 20 21  2  0
 20 30  1  0
 22 23  2  0
 22 35  1  0
 24 19  2  0
 25  6  1  0
 26  8  1  0
 26 27  1  0
 28 11  1  0
 29 19  1  0
  1 30  2  0
  6 31  2  0
  8  9  2  0
 10 27  2  0
 11 32  2  0
 12 13  1  0
 14 15  1  0
 16 18  1  0
 19 20  1  0
 21 22  1  0
 23 24  1  0
M  END
>  <rmsd>  (1) 
0.203432187

$$$$
