MolPort-002-761-544 2809624 CSSS00132992731 MCULE-2379035670 PubChem-19584150 ZINC000002809624 ZINC02809624
     RDKit          3D

 31 35  0  0  0  0  0  0  0  0999 V2000
   15.9505   42.9265   14.6748 F   0  0  0  0  0  0  0  0  0  0  0  0
   17.0905   43.9893   13.0483 F   0  0  0  0  0  0  0  0  0  0  0  0
   14.9392   44.5252   13.4475 F   0  0  0  0  0  0  0  0  0  0  0  0
   15.8540   43.4890   13.4156 C   0  0  0  0  0  0  0  0  0  0  0  0
   15.4023   42.4518   12.4378 C   0  0  0  0  0  0  0  0  0  0  0  0
   15.8036   40.5571    9.4635 C   0  0  0  0  0  0  0  0  0  0  0  0
   15.3947   41.4348    8.3318 C   0  0  0  0  0  0  0  0  0  0  0  0
   14.3309   42.6859    6.5960 C   0  0  0  0  0  0  0  0  0  0  0  0
   13.8445   44.3485    4.7482 C   0  0  0  0  0  0  0  0  0  0  0  0
   16.0997   46.7798    3.5202 C   0  0  0  0  0  0  0  0  0  0  0  0
   16.1799   47.8589    4.5450 C   0  0  0  0  0  0  0  0  0  0  0  0
   16.9614   47.6771    5.6916 C   0  0  0  0  0  0  0  0  0  0  0  0
   17.0225   48.6808    6.6634 C   0  0  0  0  0  0  0  0  0  0  0  0
   16.2983   49.8649    6.4921 C   0  0  0  0  0  0  0  0  0  0  0  0
   15.5106   50.0442    5.3505 C   0  0  0  0  0  0  0  0  0  0  0  0
   15.4487   49.0405    4.3785 C   0  0  0  0  0  0  0  0  0  0  0  0
   13.7838   45.9168    3.2450 C   0  0  0  0  0  0  0  0  0  0  0  0
   12.9999   44.9271    3.8187 C   0  0  0  0  0  0  0  0  0  0  0  0
   14.2629   40.9253   11.4059 C   0  0  0  0  0  0  0  0  0  0  0  0
   14.2078   41.7488   12.5188 C   0  0  0  0  0  0  0  0  0  0  0  0
   13.1801   39.9869   10.9655 C   0  0  0  0  0  0  0  0  0  0  0  0
   13.6878   38.5570   11.0122 C   0  0  0  0  0  0  0  0  0  0  0  0
   12.7794   39.0682   12.1068 C   0  0  0  0  0  0  0  0  0  0  0  0
   16.1057   42.0884   11.3471 N   0  0  0  0  0  0  0  0  0  0  0  0
   15.4044   41.1570   10.7287 N   0  0  0  0  0  0  0  0  0  0  0  0
   16.1790   42.4113    7.8256 N   0  0  0  0  0  0  0  0  0  0  0  0
   15.5890   43.1062    6.8549 N   0  0  0  0  0  0  0  0  0  0  0  0
   13.4747   43.2670    5.6083 N   0  0  0  0  0  0  0  0  0  0  0  0
   15.0520   44.9369    4.7444 N   0  0  0  0  0  0  0  0  0  0  0  0
   14.9986   45.8805    3.8236 N   0  0  0  0  0  0  0  0  0  0  0  0
   13.8820   41.4055    7.5901 S   0  0  0  0  0  0  0  0  0  0  0  0
  4  1  1  0
  4  2  1  0
  4  3  1  0
  4  5  1  0
  6 25  1  0
  6  7  1  0
  7 31  1  0
  8 28  1  0
  8 31  1  0
 10 30  1  0
 10 11  1  0
 12 13  2  0
 14 15  2  0
 16 11  2  0
 18  9  1  0
 20  5  1  0
 21 19  1  0
 21 22  1  0
 22 23  1  0
 23 21  1  0
 25 24  1  0
 25 19  1  0
 26 27  1  0
 28  9  1  0
 30 29  1  0
 30 17  1  0
  5 24  2  0
  7 26  2  0
  8 27  2  0
  9 29  2  0
 11 12  1  0
 13 14  1  0
 15 16  1  0
 17 18  2  0
 19 20  2  0
M  END
>  <rmsd>  (1) 
0.238085389

$$$$
