MolPort-020-292-534 MCULE-6667989060 PubChem-110265002
     RDKit          3D

 32 35  0  0  0  0  0  0  0  0999 V2000
   16.7857   46.5377    4.0492 C   0  0  0  0  0  0  0  0  0  0  0  0
   15.4451   45.9106    3.9172 C   0  0  0  0  0  0  0  0  0  0  0  0
   14.5701   46.3382    2.9206 C   0  0  0  0  0  0  0  0  0  0  0  0
   13.3222   45.7248    2.8298 C   0  0  0  0  0  0  0  0  0  0  0  0
   13.8495   44.3298    4.6676 C   0  0  0  0  0  0  0  0  0  0  0  0
   14.2148   42.7207    6.6399 C   0  0  0  0  0  0  0  0  0  0  0  0
   13.6457   41.6995    7.4044 C   0  0  0  0  0  0  0  0  0  0  0  0
   14.3701   41.1358    8.4580 C   0  0  0  0  0  0  0  0  0  0  0  0
   16.2043   42.5763    8.0059 C   0  0  0  0  0  0  0  0  0  0  0  0
   15.5087   43.1616    6.9468 C   0  0  0  0  0  0  0  0  0  0  0  0
   17.5771   43.0382    8.3374 C   0  0  0  0  0  0  0  0  0  0  0  0
   13.7563   40.0440    9.2697 C   0  0  2  0  0  0  0  0  0  0  0  0
   13.6294   40.4653   10.7353 C   0  0  0  0  0  0  0  0  0  0  0  0
   12.9967   39.3451   11.5582 C   0  0  0  0  0  0  0  0  0  0  0  0
   13.8333   38.0748   11.4399 C   0  0  0  0  0  0  0  0  0  0  0  0
   14.5752   38.7589    9.1488 C   0  0  0  0  0  0  0  0  0  0  0  0
   13.6382   36.4539    9.5136 C   0  0  0  0  0  0  0  0  0  0  0  0
   12.9565   35.4418   10.3883 C   0  0  0  0  0  0  0  0  0  0  0  0
   11.4461   35.3583   10.1524 C   0  0  0  0  0  0  0  0  0  0  0  0
   10.9027   34.2288   11.0423 C   0  0  0  0  0  0  0  0  0  0  0  0
    9.4431   34.4602   11.4263 C   0  0  0  0  0  0  0  0  0  0  0  0
    9.2809   35.7487   12.2431 C   0  0  0  0  0  0  0  0  0  0  0  0
   10.3254   36.8208   11.9074 C   0  0  0  0  0  0  0  0  0  0  0  0
   10.7773   36.7154   10.4526 C   0  0  0  0  0  0  0  0  0  0  0  0
   12.3593   46.1510    1.7813 C   0  0  0  0  0  0  0  0  0  0  0  0
   12.9858   44.7370    3.6999 N   0  0  0  0  0  0  0  0  0  0  0  0
   15.0722   44.9199    4.7683 N   0  0  0  0  0  0  0  0  0  0  0  0
   13.4512   43.2835    5.5638 N   0  0  0  0  0  0  0  0  0  0  0  0
   15.6269   41.5839    8.7338 N   0  0  0  0  0  0  0  0  0  0  0  0
   14.0124   37.7397   10.0294 N   0  0  0  0  0  0  0  0  0  0  0  0
   13.8705   36.1642    8.3091 O   0  0  0  0  0  0  0  0  0  0  0  0
   11.1999   35.0249    8.8191 O   0  0  0  0  0  0  0  0  0  0  0  0
  1  2  1  0
  2 27  2  0
  3  4  2  0
  5 26  2  0
  5 28  1  0
  7  8  2  0
  9 29  2  0
 10  6  2  0
 11  9  1  0
 12  8  1  6
 12 13  1  0
 13 14  1  0
 14 15  1  0
 15 30  1  0
 16 30  1  0
 16 12  1  0
 18 17  1  0
 18 19  1  0
 19 20  1  0
 19 32  1  0
 20 21  1  0
 21 22  1  0
 22 23  1  0
 23 24  1  0
 24 19  1  0
 25  4  1  0
 28  6  1  0
 30 17  1  0
  2  3  1  0
  4 26  1  0
  5 27  1  0
  6  7  1  0
  8 29  1  0
  9 10  1  0
 17 31  2  0
M  END
>  <rmsd>  (1) 
0.242987022

$$$$
