Molport-047-073-947 MCULE-8851065548 PubChem-132767947
     RDKit          3D

 34 38  0  0  0  0  0  0  0  0999 V2000
   15.1944   45.8751    3.7810 C   0  0  0  0  0  0  0  0  0  0  0  0
   14.1017   45.9954    2.9167 C   0  0  0  0  0  0  0  0  0  0  0  0
   13.8857   44.2976    4.6863 C   0  0  0  0  0  0  0  0  0  0  0  0
   14.2305   42.6705    6.6218 C   0  0  0  0  0  0  0  0  0  0  0  0
   13.6347   41.7131    7.4418 C   0  0  0  0  0  0  0  0  0  0  0  0
   14.3998   41.1184    8.4423 C   0  0  0  0  0  0  0  0  0  0  0  0
   13.7781   40.0943    9.3319 C   0  0  2  0  0  0  0  0  0  0  0  0
   13.7617   40.5700   10.7864 C   0  0  0  0  0  0  0  0  0  0  0  0
   13.5425   39.4223   11.7761 C   0  0  0  0  0  0  0  0  0  0  0  0
   12.9801   38.1849   11.0775 C   0  0  0  0  0  0  0  0  0  0  0  0
   13.1340   36.8183    9.1760 C   0  0  0  0  0  0  0  0  0  0  0  0
   13.8182   35.5314    9.0204 C   0  0  0  0  0  0  0  0  0  0  0  0
   14.4931   38.7439    9.2072 C   0  0  0  0  0  0  0  0  0  0  0  0
   16.2692   42.4131    7.7938 C   0  0  0  0  0  0  0  0  0  0  0  0
   17.6903   42.7955    7.9965 C   0  0  0  0  0  0  0  0  0  0  0  0
   16.3875   46.7363    3.6567 C   0  0  0  0  0  0  0  0  0  0  0  0
   18.0632   45.1940    4.6583 C   0  0  0  0  0  0  0  0  0  0  0  0
   18.8528   45.0575    5.9542 C   0  0  0  0  0  0  0  0  0  0  0  0
   19.9955   46.0647    5.9727 C   0  0  0  0  0  0  0  0  0  0  0  0
   19.4900   47.4556    5.7343 C   0  0  0  0  0  0  0  0  0  0  0  0
   20.2236   48.5358    6.2329 C   0  0  0  0  0  0  0  0  0  0  0  0
   19.7756   49.8434    6.0306 C   0  0  0  0  0  0  0  0  0  0  0  0
   18.5887   50.0761    5.3329 C   0  0  0  0  0  0  0  0  0  0  0  0
   17.8526   49.0011    4.8293 C   0  0  0  0  0  0  0  0  0  0  0  0
   18.2987   47.6796    5.0087 C   0  0  0  0  0  0  0  0  0  0  0  0
   12.9551   44.8706    3.4199 S   0  0  0  0  0  0  0  0  0  0  0  0
   13.4533   43.2688    5.5810 N   0  0  0  0  0  0  0  0  0  0  0  0
   13.9068   37.6841   10.0517 N   0  0  0  0  0  0  0  0  0  0  0  0
   14.3562   34.5136    8.8972 N   0  0  0  0  0  0  0  0  0  0  0  0
   15.7016   41.4784    8.5998 N   0  0  0  0  0  0  0  0  0  0  0  0
   15.5363   43.0029    6.8121 N   0  0  0  0  0  0  0  0  0  0  0  0
   15.0713   44.9370    4.7632 N   0  0  0  0  0  0  0  0  0  0  0  0
   17.5347   46.5535    4.5082 N   0  0  0  0  0  0  0  0  0  0  0  0
   16.3963   47.6464    2.7829 O   0  0  0  0  0  0  0  0  0  0  0  0
  1 16  1  0
  1 32  1  0
  2 26  1  0
  3 26  1  0
  3 27  1  0
  4 31  2  0
  5  6  2  0
  7  6  1  6
  7  8  1  0
  8  9  1  0
  9 10  1  0
 10 28  1  0
 11 28  1  0
 11 12  1  0
 13 28  1  0
 13  7  1  0
 14 30  2  0
 15 14  1  0
 16 33  1  0
 17 33  1  0
 17 18  1  0
 18 19  1  0
 19 20  1  0
 21 22  2  0
 23 24  2  0
 25 33  1  0
 25 20  2  0
 27  4  1  0
  1  2  2  0
  3 32  2  0
  4  5  1  0
  6 30  1  0
 14 31  1  0
 16 34  2  0
 20 21  1  0
 22 23  1  0
 24 25  1  0
 12 29  3  0
M  END
>  <rmsd>  (1) 
0.2444987

$$$$
