MolPort-045-956-744 822752156 CSSS00160217614 MCULE-1807625006 PubChem-131896646 ZINC000822752156
     RDKit          3D

 27 28  0  0  0  0  0  0  0  0999 V2000
   13.9824   42.5342    1.9886 C   0  0  0  0  0  0  0  0  0  0  0  0
   13.9494   44.0472    2.1000 C   0  0  0  0  0  0  0  0  0  0  0  0
   13.1764   44.4739    3.3383 C   0  0  0  0  0  0  0  0  0  0  0  0
   13.9742   44.2374    4.5761 C   0  0  0  0  0  0  0  0  0  0  0  0
   14.2559   42.7840    6.6446 C   0  0  0  0  0  0  0  0  0  0  0  0
   13.6288   42.6285    7.8847 C   0  0  0  0  0  0  0  0  0  0  0  0
   14.3263   42.1006    8.9719 C   0  0  0  0  0  0  0  0  0  0  0  0
   15.6601   41.6992    8.8275 C   0  0  0  0  0  0  0  0  0  0  0  0
   15.8725   40.6979   11.1684 C   0  0  0  0  0  0  0  0  0  0  0  0
   14.6048   39.9330   11.2152 C   0  0  0  0  0  0  0  0  0  0  0  0
   13.7955   39.9262   12.3682 C   0  0  0  0  0  0  0  0  0  0  0  0
   12.6085   39.1773   12.4056 C   0  0  0  0  0  0  0  0  0  0  0  0
   10.6210   38.5219   13.7700 C   0  0  0  0  0  0  0  0  0  0  0  0
   12.2362   38.4186   11.2734 C   0  0  0  0  0  0  0  0  0  0  0  0
   13.0454   38.4183   10.1367 C   0  0  0  0  0  0  0  0  0  0  0  0
   14.2210   39.1661   10.1087 C   0  0  0  0  0  0  0  0  0  0  0  0
   16.2863   41.8379    7.5871 C   0  0  0  0  0  0  0  0  0  0  0  0
   15.5931   42.3614    6.4825 C   0  0  0  0  0  0  0  0  0  0  0  0
   17.5441   42.0190    4.9934 C   0  0  0  0  0  0  0  0  0  0  0  0
   15.0387   44.8845    4.7692 O   0  0  0  0  0  0  0  0  0  0  0  0
   16.5335   40.8696   12.2267 O   0  0  0  0  0  0  0  0  0  0  0  0
   11.8425   39.2218   13.5806 O   0  0  0  0  0  0  0  0  0  0  0  0
   16.2054   42.4355    5.2261 O   0  0  0  0  0  0  0  0  0  0  0  0
   13.4878   43.3183    5.5588 N   0  0  0  0  0  0  0  0  0  0  0  0
   16.4144   41.1927    9.9355 N   0  0  0  0  0  0  0  0  0  0  0  0
   14.1424   40.6643   13.4542 F   0  0  0  0  0  0  0  0  0  0  0  0
   11.1018   37.6770   11.2532 F   0  0  0  0  0  0  0  0  0  0  0  0
  1  2  1  0
  2  3  1  0
  3  4  1  0
  4 24  1  0
  6  7  2  0
  8 25  1  0
  8 17  2  0
  9 10  1  0
 11 26  1  0
 11 12  2  0
 12 22  1  0
 13 22  1  0
 14 27  1  0
 14 15  2  0
 16 10  2  0
 18 23  1  0
 18  5  2  0
 19 23  1  0
 24  5  1  0
 25  9  1  0
  4 20  2  0
  5  6  1  0
  7  8  1  0
  9 21  2  0
 10 11  1  0
 12 14  1  0
 15 16  1  0
 17 18  1  0
M  END
>  <rmsd>  (1) 
0.244558007

$$$$
