MolPort-006-503-785 ChemDiv-V002-9449 MCULE-3434241118 PubChem-8090333 ZINC000006833694 ZINC06833694
     RDKit          3D

 27 29  0  0  0  0  0  0  0  0999 V2000
   19.8061   39.7403   12.6547 C   0  0  0  0  0  0  0  0  0  0  0  0
   18.1038   40.6077   11.1128 C   0  0  0  0  0  0  0  0  0  0  0  0
   16.0622   40.2088   10.8430 C   0  0  0  0  0  0  0  0  0  0  0  0
   14.7073   39.6653   11.0475 C   0  0  0  0  0  0  0  0  0  0  0  0
   14.4985   38.2816   11.1159 C   0  0  0  0  0  0  0  0  0  0  0  0
   13.2096   37.7746   11.3124 C   0  0  0  0  0  0  0  0  0  0  0  0
   12.1280   38.6450   11.4641 C   0  0  0  0  0  0  0  0  0  0  0  0
   12.3350   40.0255   11.4247 C   0  0  0  0  0  0  0  0  0  0  0  0
   13.6209   40.5339   11.2213 C   0  0  0  0  0  0  0  0  0  0  0  0
   15.6554   41.6991    8.8380 C   0  0  0  0  0  0  0  0  0  0  0  0
   16.1082   42.8677    8.2058 C   0  0  0  0  0  0  0  0  0  0  0  0
   15.4086   43.4042    7.1240 C   0  0  0  0  0  0  0  0  0  0  0  0
   14.2468   42.7768    6.6485 C   0  0  0  0  0  0  0  0  0  0  0  0
   13.8795   44.3989    4.7062 C   0  0  0  0  0  0  0  0  0  0  0  0
   12.8989   44.9629    3.7331 C   0  0  0  0  0  0  0  0  0  0  0  0
   12.0532   46.0403    4.3920 C   0  0  0  0  0  0  0  0  0  0  0  0
   11.4740   46.9454    3.3235 C   0  0  0  0  0  0  0  0  0  0  0  0
   10.9166   45.4121    5.1740 C   0  0  0  0  0  0  0  0  0  0  0  0
   13.7963   41.6077    7.2707 C   0  0  0  0  0  0  0  0  0  0  0  0
   14.4994   41.0681    8.3502 C   0  0  0  0  0  0  0  0  0  0  0  0
   19.4128   40.5941   11.5922 O   0  0  0  0  0  0  0  0  0  0  0  0
   15.0398   44.8870    4.7664 O   0  0  0  0  0  0  0  0  0  0  0  0
   17.7098   41.3819   10.0873 N   0  0  0  0  0  0  0  0  0  0  0  0
   16.4233   41.1304    9.9162 N   0  0  0  0  0  0  0  0  0  0  0  0
   17.1066   39.8504   11.6173 N   0  0  0  0  0  0  0  0  0  0  0  0
   13.4863   43.3169    5.5597 N   0  0  0  0  0  0  0  0  0  0  0  0
   15.5345   37.4188   10.9701 F   0  0  0  0  0  0  0  0  0  0  0  0
  1 21  1  0
  2 21  1  0
  2 25  1  0
  3  4  1  0
  5 27  1  0
  5  6  2  0
  7  8  2  0
  9  4  2  0
 11 12  2  0
 13 26  1  0
 13 19  2  0
 15 14  1  0
 15 16  1  0
 16 17  1  0
 16 18  1  0
 20 10  2  0
 24 23  1  0
 24  3  1  0
 24 10  1  0
 26 14  1  0
  2 23  2  0
  3 25  2  0
  4  5  1  0
  6  7  1  0
  8  9  1  0
 10 11  1  0
 12 13  1  0
 14 22  2  0
 19 20  1  0
M  END
>  <rmsd>  (1) 
0.246635541

$$$$
