MolPort-047-139-225 MCULE-6161825793 MCULE-9725615455 PubChem-146070115 PubChem-146070116
     RDKit          3D

 28 31  0  0  0  0  0  0  0  0999 V2000
   13.4015   39.1831   11.4499 C   0  0  0  0  0  0  0  0  0  0  0  0
   14.4053   36.6437    9.1930 C   0  0  0  0  0  0  0  0  0  0  0  0
   15.4462   35.8490    8.4905 C   0  0  0  0  0  0  0  0  0  0  0  0
   13.0378   36.4804    9.0319 C   0  0  0  0  0  0  0  0  0  0  0  0
   12.5214   37.4409    9.8841 C   0  0  0  0  0  0  0  0  0  0  0  0
   11.0550   37.7394   10.0773 C   0  0  0  0  0  0  0  0  0  0  0  0
   10.5538   38.0150    7.7371 C   0  0  0  0  0  0  0  0  0  0  0  0
   11.1738   39.0060    6.7710 C   0  0  1  0  0  0  0  0  0  0  0  0
   10.0384   39.7263    6.0458 C   0  0  0  0  0  0  0  0  0  0  0  0
   10.5978   40.6801    5.0053 C   0  0  0  0  0  0  0  0  0  0  0  0
   10.7048   42.1023    5.5486 C   0  0  0  0  0  0  0  0  0  0  0  0
   11.2428   42.1855    6.9790 C   0  0  0  0  0  0  0  0  0  0  0  0
   11.9942   39.8843    7.7016 C   0  0  2  0  0  0  0  0  0  0  0  0
   11.2355   39.8949    9.0077 C   0  0  0  0  0  0  0  0  0  0  0  0
   13.6749   41.6961    7.4072 C   0  0  0  0  0  0  0  0  0  0  0  0
   14.2359   42.7267    6.6162 C   0  0  0  0  0  0  0  0  0  0  0  0
   13.9058   44.3660    4.6653 C   0  0  0  0  0  0  0  0  0  0  0  0
   12.9828   44.8357    3.6002 C   0  0  0  0  0  0  0  0  0  0  0  0
   15.5548   43.1258    6.8718 C   0  0  0  0  0  0  0  0  0  0  0  0
   16.3000   42.5165    7.8780 C   0  0  0  0  0  0  0  0  0  0  0  0
   15.7199   41.4961    8.6255 C   0  0  0  0  0  0  0  0  0  0  0  0
   13.5268   38.1049   10.4838 N   0  0  0  0  0  0  0  0  0  0  0  0
   14.6844   37.6259   10.0703 N   0  0  0  0  0  0  0  0  0  0  0  0
   10.4847   38.6402    9.0634 N   0  0  0  0  0  0  0  0  0  0  0  0
   12.3250   41.2275    7.2099 N   0  0  0  0  0  0  0  0  0  0  0  0
   13.4831   43.3169    5.5453 N   0  0  0  0  0  0  0  0  0  0  0  0
   14.4413   41.1129    8.3749 N   0  0  0  0  0  0  0  0  0  0  0  0
   15.0407   44.8995    4.7783 O   0  0  0  0  0  0  0  0  0  0  0  0
  1 22  1  0
  2  4  1  0
  3  2  1  0
  5 22  1  0
  6  5  1  0
  6 24  1  0
  7 24  1  0
  8  7  1  1
  8  9  1  0
  9 10  1  0
 10 11  1  0
 11 12  1  0
 12 25  1  0
 13 25  1  0
 13 14  1  1
 13  8  1  0
 14 24  1  0
 15 27  2  0
 16 26  1  0
 16 19  2  0
 18 17  1  0
 20 21  2  0
 22 23  1  0
 25 15  1  0
 26 17  1  0
  2 23  2  0
  4  5  2  0
 15 16  1  0
 17 28  2  0
 19 20  1  0
 21 27  1  0
M  END
>  <rmsd>  (1) 
0.244153231

$$$$
