MolPort-003-025-648 2716636 CSSS03437097008 LN01396109 MCULE-3410807198 PubChem-2152310 ZINC000002716636
     RDKit          3D

 30 33  0  0  0  0  0  0  0  0999 V2000
    9.8327   46.1188    0.5662 S   0  0  0  0  0  0  0  0  0  0  0  0
   15.9705   43.2322    6.9717 S   0  0  0  0  0  0  0  0  0  0  0  0
    9.0224   44.9353    0.1148 O   0  0  0  0  0  0  0  0  0  0  0  0
   10.5487   46.6860   -0.6284 O   0  0  0  0  0  0  0  0  0  0  0  0
   15.0055   44.8951    4.7363 O   0  0  0  0  0  0  0  0  0  0  0  0
   13.5514   39.7862    9.4979 O   0  0  0  0  0  0  0  0  0  0  0  0
    7.4339   49.0647    2.5807 O   0  0  0  0  0  0  0  0  0  0  0  0
   11.0155   45.5914    1.7565 C   0  0  0  0  0  0  0  0  0  0  0  0
   12.2689   46.2089    1.8231 C   0  0  0  0  0  0  0  0  0  0  0  0
   13.2024   45.8003    2.7795 C   0  0  0  0  0  0  0  0  0  0  0  0
   12.8907   44.7716    3.6808 C   0  0  0  0  0  0  0  0  0  0  0  0
   11.6319   44.1577    3.6105 C   0  0  0  0  0  0  0  0  0  0  0  0
   10.6989   44.5657    2.6533 C   0  0  0  0  0  0  0  0  0  0  0  0
   13.8730   44.3427    4.6920 C   0  0  0  0  0  0  0  0  0  0  0  0
   14.3692   42.7670    6.6501 C   0  0  0  0  0  0  0  0  0  0  0  0
   16.1022   42.1428    8.2400 C   0  0  0  0  0  0  0  0  0  0  0  0
   14.9075   41.4512    8.3765 C   0  0  0  0  0  0  0  0  0  0  0  0
   14.7613   40.4792    9.3708 C   0  0  0  0  0  0  0  0  0  0  0  0
   15.8592   40.2242   10.2197 C   0  0  0  0  0  0  0  0  0  0  0  0
   17.0652   40.9341   10.0680 C   0  0  0  0  0  0  0  0  0  0  0  0
   17.1964   41.9080    9.0671 C   0  0  0  0  0  0  0  0  0  0  0  0
   13.3099   38.8212   10.5156 C   0  0  0  0  0  0  0  0  0  0  0  0
   12.9806   39.5135   11.8245 C   0  0  0  0  0  0  0  0  0  0  0  0
    9.6046   48.4485    1.6883 C   0  0  0  0  0  0  0  0  0  0  0  0
    8.7987   49.4071    2.5796 C   0  0  0  0  0  0  0  0  0  0  0  0
    7.3381   47.8009    3.1934 C   0  0  0  0  0  0  0  0  0  0  0  0
    8.0659   46.7277    2.3671 C   0  0  0  0  0  0  0  0  0  0  0  0
   13.5304   43.3030    5.6196 N   0  0  0  0  0  0  0  0  0  0  0  0
   13.9369   41.7971    7.4915 N   0  0  0  0  0  0  0  0  0  0  0  0
    8.7774   47.3256    1.2315 N   0  0  0  0  0  0  0  0  0  0  0  0
  1  8  1  0
  1 30  1  0
  9 10  2  0
 11 12  2  0
 11 14  1  0
 13  8  2  0
 14 28  1  0
 15  2  1  0
 16  2  1  0
 17 18  2  0
 17 29  1  0
 18  6  1  0
 19 20  2  0
 21 16  2  0
 22  6  1  0
 22 23  1  0
 24 30  1  0
 24 25  1  0
 25  7  1  0
 26  7  1  0
 26 27  1  0
 27 30  1  0
 28 15  1  0
  1  3  2  0
  1  4  2  0
  8  9  1  0
 10 11  1  0
 12 13  1  0
 14  5  2  0
 15 29  2  0
 16 17  1  0
 18 19  1  0
 20 21  1  0
M  END
>  <rmsd>  (1) 
0.248795569

$$$$
