Molport-047-891-076
     RDKit          3D

 22 23  0  0  0  0  0  0  0  0999 V2000
   13.3060   39.5783   11.9529 C   0  0  0  0  0  0  0  0  0  0  0  0
   13.5868   38.8755   10.6297 C   0  0  0  0  0  0  0  0  0  0  0  0
   14.8683   40.6140    9.3931 C   0  0  0  0  0  0  0  0  0  0  0  0
   14.8918   41.6047    8.3049 C   0  0  0  0  0  0  0  0  0  0  0  0
   15.9166   42.4693    7.9645 C   0  0  0  0  0  0  0  0  0  0  0  0
   14.2946   42.7869    6.6308 C   0  0  0  0  0  0  0  0  0  0  0  0
   13.9085   44.3412    4.6680 C   0  0  0  0  0  0  0  0  0  0  0  0
   13.3794   45.7460    2.6847 C   0  0  0  0  0  0  0  0  0  0  0  0
   14.3870   45.2030    1.7082 C   0  0  0  0  0  0  0  0  0  0  0  0
   14.0182   44.1844    0.8145 C   0  0  0  0  0  0  0  0  0  0  0  0
   14.9546   43.6618   -0.0831 C   0  0  0  0  0  0  0  0  0  0  0  0
   16.2643   44.1494   -0.0918 C   0  0  0  0  0  0  0  0  0  0  0  0
   16.6402   45.1597    0.7980 C   0  0  0  0  0  0  0  0  0  0  0  0
   15.7067   45.6852    1.6971 C   0  0  0  0  0  0  0  0  0  0  0  0
   13.7265   39.8254    9.5750 O   0  0  0  0  0  0  0  0  0  0  0  0
   15.8688   40.4744   10.1478 O   0  0  0  0  0  0  0  0  0  0  0  0
   15.0438   44.8772    4.7926 O   0  0  0  0  0  0  0  0  0  0  0  0
   13.0393   44.7550    3.6524 O   0  0  0  0  0  0  0  0  0  0  0  0
   17.4811   42.6199    8.7448 Cl  0  0  0  0  0  0  0  0  0  0  0  0
   15.5450   43.2182    6.9077 N   0  0  0  0  0  0  0  0  0  0  0  0
   13.4871   43.3050    5.5641 N   0  0  0  0  0  0  0  0  0  0  0  0
   13.8704   41.8116    7.4574 N   0  0  0  0  0  0  0  0  0  0  0  0
  1  2  1  0
  2 15  1  0
  3 15  1  0
  3  4  1  0
  5 19  1  0
  5 20  1  0
  6 21  1  0
  6 22  1  0
  7 18  1  0
  8 18  1  0
  8  9  1  0
 10 11  2  0
 12 13  2  0
 14  9  2  0
 21  7  1  0
 22  4  1  0
  3 16  2  0
  4  5  2  0
  6 20  2  0
  7 17  2  0
  9 10  1  0
 11 12  1  0
 13 14  1  0
M  END
>  <rmsd>  (1) 
0.167234555

$$$$
