Molport-047-071-943 MCULE-2569029529 PubChem-132764857
     RDKit          3D

 26 28  0  0  0  0  0  0  0  0999 V2000
   13.8518   44.3287    4.6657 C   0  0  0  0  0  0  0  0  0  0  0  0
   14.2116   42.7245    6.6430 C   0  0  0  0  0  0  0  0  0  0  0  0
   15.5041   43.1672    6.9531 C   0  0  0  0  0  0  0  0  0  0  0  0
   16.1969   42.5844    8.0156 C   0  0  0  0  0  0  0  0  0  0  0  0
   17.5683   43.0479    8.3504 C   0  0  0  0  0  0  0  0  0  0  0  0
   14.3622   41.1437    8.4650 C   0  0  0  0  0  0  0  0  0  0  0  0
   13.7480   40.0506    9.2745 C   0  0  2  0  0  0  0  0  0  0  0  0
   13.6306   40.4631   10.7433 C   0  0  0  0  0  0  0  0  0  0  0  0
   13.0067   39.3363   11.5641 C   0  0  0  0  0  0  0  0  0  0  0  0
   13.8459   38.0698   11.4270 C   0  0  0  0  0  0  0  0  0  0  0  0
   13.6898   36.4051    9.5525 C   0  0  0  0  0  0  0  0  0  0  0  0
   13.4803   36.0667    8.1317 C   0  0  0  0  0  0  0  0  0  0  0  0
   13.3806   36.9637    7.1599 C   0  0  0  0  0  0  0  0  0  0  0  0
   14.5598   38.7623    9.1403 C   0  0  0  0  0  0  0  0  0  0  0  0
   13.6408   41.7042    7.4076 C   0  0  0  0  0  0  0  0  0  0  0  0
   15.4488   45.9086    3.9167 C   0  0  0  0  0  0  0  0  0  0  0  0
   16.7887   46.5368    4.0515 C   0  0  0  0  0  0  0  0  0  0  0  0
   14.5769   46.3334    2.9163 C   0  0  0  0  0  0  0  0  0  0  0  0
   13.3294   45.7192    2.8231 C   0  0  0  0  0  0  0  0  0  0  0  0
   12.3697   46.1425    1.7705 C   0  0  0  0  0  0  0  0  0  0  0  0
   13.4511   43.2843    5.5630 N   0  0  0  0  0  0  0  0  0  0  0  0
   15.6180   41.5929    8.7436 N   0  0  0  0  0  0  0  0  0  0  0  0
   13.9939   37.7362   10.0128 N   0  0  0  0  0  0  0  0  0  0  0  0
   15.0737   44.9197    4.7689 N   0  0  0  0  0  0  0  0  0  0  0  0
   12.9908   44.7333    3.6944 N   0  0  0  0  0  0  0  0  0  0  0  0
   13.5832   35.4724   10.3930 O   0  0  0  0  0  0  0  0  0  0  0  0
  1 21  1  0
  1 25  2  0
  3  4  2  0
  5  4  1  0
  6 22  2  0
  7  6  1  6
  7  8  1  0
  8  9  1  0
  9 10  1  0
 10 23  1  0
 11 12  1  0
 14 23  1  0
 14  7  1  0
 15  2  2  0
 16 24  2  0
 17 16  1  0
 18 19  2  0
 20 19  1  0
 21  2  1  0
 23 11  1  0
  1 24  1  0
  2  3  1  0
  4 22  1  0
  6 15  1  0
 11 26  2  0
 12 13  2  0
 16 18  1  0
 19 25  1  0
M  END
>  <rmsd>  (1) 
0.24374716

$$$$
