MolPort-019-771-773 CSSS20538596534 PubChem-56694138 ZINC000005708151 ZINC05708151
     RDKit          3D

 26 27  0  0  0  0  0  0  0  0999 V2000
   12.6520   38.7943   11.3944 C   0  0  0  0  0  0  0  0  0  0  0  0
   13.9451   39.5856   11.4190 C   0  0  0  0  0  0  0  0  0  0  0  0
   14.6846   39.4223   10.1040 C   0  0  0  0  0  0  0  0  0  0  0  0
   14.5469   41.1281    8.3148 C   0  0  0  0  0  0  0  0  0  0  0  0
   15.8530   41.5733    8.5516 C   0  0  0  0  0  0  0  0  0  0  0  0
   16.3581   42.6114    7.7718 C   0  0  0  0  0  0  0  0  0  0  0  0
   18.2275   44.1211    7.2331 C   0  0  0  0  0  0  0  0  0  0  0  0
   19.6494   44.3836    7.6923 C   0  0  0  0  0  0  0  0  0  0  0  0
   20.5497   43.2313    7.2914 C   0  0  0  0  0  0  0  0  0  0  0  0
   14.3112   42.7275    6.5820 C   0  0  0  0  0  0  0  0  0  0  0  0
   13.8795   44.3839    4.6886 C   0  0  0  0  0  0  0  0  0  0  0  0
   12.9266   44.8869    3.6834 C   0  0  0  0  0  0  0  0  0  0  0  0
   13.2891   45.9317    2.8216 C   0  0  0  0  0  0  0  0  0  0  0  0
   12.3849   46.4081    1.8685 C   0  0  0  0  0  0  0  0  0  0  0  0
   11.1039   45.8464    1.7631 C   0  0  0  0  0  0  0  0  0  0  0  0
   10.7419   44.8021    2.6247 C   0  0  0  0  0  0  0  0  0  0  0  0
   11.6465   44.3260    3.5777 C   0  0  0  0  0  0  0  0  0  0  0  0
   13.9822   40.0915    9.0633 O   0  0  0  0  0  0  0  0  0  0  0  0
   17.6578   43.0659    7.9955 O   0  0  0  0  0  0  0  0  0  0  0  0
   15.0287   44.8969    4.7739 O   0  0  0  0  0  0  0  0  0  0  0  0
    8.9173   45.7771    0.6881 O   0  0  0  0  0  0  0  0  0  0  0  0
   10.4887   47.2623    0.0160 O   0  0  0  0  0  0  0  0  0  0  0  0
   15.5793   43.1674    6.8043 N   0  0  0  0  0  0  0  0  0  0  0  0
   13.4933   43.3140    5.5632 N   0  0  0  0  0  0  0  0  0  0  0  0
   10.1726   46.3321    0.7868 N   0  0  0  0  0  0  0  0  0  0  0  0
   13.8084   41.7155    7.3369 N   0  0  0  0  0  0  0  0  0  0  0  0
  1  2  1  0
  2  3  1  0
  3 18  1  0
  4 18  1  0
  4 26  2  0
  5  6  2  0
  6 19  1  0
  7 19  1  0
  7  8  1  0
  8  9  1  0
 10 23  2  0
 10 24  1  0
 11 12  1  0
 13 14  2  0
 15 16  2  0
 15 25  1  0
 17 12  2  0
 24 11  1  0
 25 21  1  0
  4  5  1  0
  6 23  1  0
 10 26  1  0
 11 20  2  0
 12 13  1  0
 14 15  1  0
 16 17  1  0
 25 22  2  0
M  CHG  2  21  -1  25   1
M  END
>  <rmsd>  (1) 
0.246614918

$$$$
