Molport-053-324-447 PubChem-110111601
     RDKit          3D

 25 28  0  0  0  0  0  0  0  0999 V2000
   13.5987   39.3617   11.7447 C   0  0  0  0  0  0  0  0  0  0  0  0
   13.7133   40.5437   10.7788 C   0  0  0  0  0  0  0  0  0  0  0  0
   13.8375   40.1006    9.3167 C   0  0  2  0  0  0  0  0  0  0  0  0
   14.6337   38.7945    9.1962 C   0  0  0  0  0  0  0  0  0  0  0  0
   13.1132   38.1098   11.0190 C   0  0  0  0  0  0  0  0  0  0  0  0
   13.3501   36.8127    9.0780 C   0  0  0  0  0  0  0  0  0  0  0  0
   14.2395   35.7170    8.5972 C   0  0  0  0  0  0  0  0  0  0  0  0
   14.5614   35.5665    7.2524 C   0  0  0  0  0  0  0  0  0  0  0  0
   15.5486   33.8886    8.8276 C   0  0  0  0  0  0  0  0  0  0  0  0
   14.4342   41.1805    8.4726 C   0  0  0  0  0  0  0  0  0  0  0  0
   13.6818   41.7257    7.4298 C   0  0  0  0  0  0  0  0  0  0  0  0
   14.2318   42.7338    6.6339 C   0  0  0  0  0  0  0  0  0  0  0  0
   16.2501   42.6595    7.8912 C   0  0  0  0  0  0  0  0  0  0  0  0
   15.7325   41.6518    8.7062 C   0  0  0  0  0  0  0  0  0  0  0  0
   13.8495   44.3243    4.6685 C   0  0  0  0  0  0  0  0  0  0  0  0
   13.3301   45.7143    2.8252 C   0  0  0  0  0  0  0  0  0  0  0  0
   14.5779   46.3277    2.9198 C   0  0  0  0  0  0  0  0  0  0  0  0
   15.4485   45.9030    3.9215 C   0  0  0  0  0  0  0  0  0  0  0  0
   14.0739   37.6832    9.9919 N   0  0  0  0  0  0  0  0  0  0  0  0
   14.7758   34.8027    9.4517 N   0  0  0  0  0  0  0  0  0  0  0  0
   15.4972   43.1740    6.8824 N   0  0  0  0  0  0  0  0  0  0  0  0
   13.4489   43.2823    5.5667 N   0  0  0  0  0  0  0  0  0  0  0  0
   12.9896   44.7288    3.6964 N   0  0  0  0  0  0  0  0  0  0  0  0
   15.0719   44.9146    4.7739 N   0  0  0  0  0  0  0  0  0  0  0  0
   15.5648   34.2201    7.1830 S   0  0  0  0  0  0  0  0  0  0  0  0
  1  2  1  0
  2  3  1  0
  3  4  1  0
  3 10  1  6
  4 19  1  0
  5 19  1  0
  5  1  1  0
  6 19  1  0
  6  7  1  0
  7 20  1  0
  8 25  1  0
  9 25  1  0
 11 12  2  0
 12 22  1  0
 13 21  2  0
 14 10  2  0
 15 24  2  0
 16 23  2  0
 17 18  2  0
 22 15  1  0
  7  8  2  0
  9 20  2  0
 10 11  1  0
 12 21  1  0
 13 14  1  0
 15 23  1  0
 16 17  1  0
 18 24  1  0
M  END
>  <rmsd>  (1) 
0.24828805

$$$$
