MolPort-023-256-740 77378919 CSSS00160048253 MCULE-7439721206 PubChem-136239114 ZINC000077378919 ZINC77378919
     RDKit          3D

 27 29  0  0  0  0  0  0  0  0999 V2000
   12.9501   44.5649    1.2002 C   0  0  0  0  0  0  0  0  0  0  0  0
   13.1264   44.5865    3.3987 C   0  0  0  0  0  0  0  0  0  0  0  0
   13.9549   44.2741    4.5945 C   0  0  0  0  0  0  0  0  0  0  0  0
   14.2598   42.7696    6.6183 C   0  0  0  0  0  0  0  0  0  0  0  0
   15.5589   42.2501    6.4219 C   0  0  0  0  0  0  0  0  0  0  0  0
   16.1913   42.1833    5.0738 C   0  0  0  0  0  0  0  0  0  0  0  0
   16.2611   41.7116    7.5043 C   0  0  0  0  0  0  0  0  0  0  0  0
   15.6842   41.6594    8.7800 C   0  0  0  0  0  0  0  0  0  0  0  0
   14.3912   42.1654    8.9653 C   0  0  0  0  0  0  0  0  0  0  0  0
   13.6823   42.7040    7.8900 C   0  0  0  0  0  0  0  0  0  0  0  0
   17.7394   41.4102   10.1121 C   0  0  0  0  0  0  0  0  0  0  0  0
   18.0852   40.8533   11.3286 C   0  0  0  0  0  0  0  0  0  0  0  0
   16.0187   40.4334   10.9617 C   0  0  0  0  0  0  0  0  0  0  0  0
   14.6838   39.8231   11.1292 C   0  0  0  0  0  0  0  0  0  0  0  0
   14.1691   39.6292   12.4175 C   0  0  0  0  0  0  0  0  0  0  0  0
   12.9221   39.0112   12.6082 C   0  0  0  0  0  0  0  0  0  0  0  0
   13.0672   39.2368   15.0689 C   0  0  0  0  0  0  0  0  0  0  0  0
   12.1957   38.5734   11.4922 C   0  0  0  0  0  0  0  0  0  0  0  0
   12.7138   38.7450   10.2060 C   0  0  0  0  0  0  0  0  0  0  0  0
   13.9544   39.3605   10.0261 C   0  0  0  0  0  0  0  0  0  0  0  0
   13.8248   44.2503    2.2391 O   0  0  0  0  0  0  0  0  0  0  0  0
   15.0411   44.8857    4.7801 O   0  0  0  0  0  0  0  0  0  0  0  0
   12.3924   38.8221   13.8891 O   0  0  0  0  0  0  0  0  0  0  0  0
   10.9589   37.9624   11.6566 O   0  0  0  0  0  0  0  0  0  0  0  0
   13.4803   43.3188    5.5478 N   0  0  0  0  0  0  0  0  0  0  0  0
   16.4390   41.1454    9.8896 N   0  0  0  0  0  0  0  0  0  0  0  0
   17.0052   40.2445   11.8595 N   0  0  0  0  0  0  0  0  0  0  0  0
  1 21  1  0
  2 21  1  0
  2  3  1  0
  3 25  1  0
  5  7  2  0
  6  5  1  0
  8  9  2  0
  8 26  1  0
 10  4  2  0
 12 27  1  0
 13 14  1  0
 13 26  1  0
 15 16  2  0
 16 23  1  0
 17 23  1  0
 18 24  1  0
 18 19  2  0
 20 14  2  0
 25  4  1  0
 26 11  1  0
  3 22  2  0
  4  5  1  0
  7  8  1  0
  9 10  1  0
 11 12  2  0
 13 27  2  0
 14 15  1  0
 16 18  1  0
 19 20  1  0
M  END
>  <rmsd>  (1) 
0.239197001

$$$$
