MolPort-002-762-422 CSSS00132998953 MCULE-2422751069 PubChem-19585499
     RDKit          3D

 28 31  0  0  0  0  0  0  0  0999 V2000
   17.0072   39.9541    9.3740 C   0  0  0  0  0  0  0  0  0  0  0  0
   15.5603   40.4084    9.4324 C   0  0  2  0  0  0  0  0  0  0  0  0
   15.2587   42.3570   12.4058 C   0  0  0  0  0  0  0  0  0  0  0  0
   15.6166   43.5215   13.2624 C   0  0  0  0  0  0  0  0  0  0  0  0
   14.3077   41.3959   12.6923 C   0  0  0  0  0  0  0  0  0  0  0  0
   14.3263   40.5540   11.6011 C   0  0  0  0  0  0  0  0  0  0  0  0
   13.4807   39.3403   11.4060 C   0  0  0  0  0  0  0  0  0  0  0  0
   15.2235   41.3463    8.3175 C   0  0  0  0  0  0  0  0  0  0  0  0
   14.2448   42.6672    6.5814 C   0  0  0  0  0  0  0  0  0  0  0  0
   13.8626   44.3624    4.7374 C   0  0  0  0  0  0  0  0  0  0  0  0
   16.2359   46.7122    3.5762 C   0  0  0  0  0  0  0  0  0  0  0  0
   17.2327   45.9359    2.7821 C   0  0  0  0  0  0  0  0  0  0  0  0
   18.2643   45.2495    3.4336 C   0  0  0  0  0  0  0  0  0  0  0  0
   19.1721   44.4822    2.6946 C   0  0  0  0  0  0  0  0  0  0  0  0
   19.0477   44.4000    1.3043 C   0  0  0  0  0  0  0  0  0  0  0  0
   18.0124   45.0786    0.6532 C   0  0  0  0  0  0  0  0  0  0  0  0
   17.1034   45.8438    1.3919 C   0  0  0  0  0  0  0  0  0  0  0  0
   13.8969   45.9330    3.2410 C   0  0  0  0  0  0  0  0  0  0  0  0
   13.0703   44.9571    3.7736 C   0  0  0  0  0  0  0  0  0  0  0  0
   15.2468   41.0062   10.7277 N   0  0  0  0  0  0  0  0  0  0  0  0
   15.8164   42.1073   11.2057 N   0  0  0  0  0  0  0  0  0  0  0  0
   16.0222   42.3545    7.9010 N   0  0  0  0  0  0  0  0  0  0  0  0
   15.4805   43.0868    6.9301 N   0  0  0  0  0  0  0  0  0  0  0  0
   13.4424   43.2704    5.5602 N   0  0  0  0  0  0  0  0  0  0  0  0
   15.0806   44.9267    4.7902 N   0  0  0  0  0  0  0  0  0  0  0  0
   15.0818   45.8810    3.8795 N   0  0  0  0  0  0  0  0  0  0  0  0
   13.2944   41.2746   14.1229 Cl  0  0  0  0  0  0  0  0  0  0  0  0
   13.7580   41.3358    7.4855 S   0  0  0  0  0  0  0  0  0  0  0  0
  2  1  1  1
  2 20  1  0
  2  8  1  0
  3  5  1  0
  4  3  1  0
  5 27  1  0
  6 20  1  0
  7  6  1  0
  8 28  1  0
  9 24  1  0
  9 28  1  0
 11 26  1  0
 11 12  1  0
 13 14  2  0
 15 16  2  0
 17 12  2  0
 19 10  1  0
 20 21  1  0
 22 23  1  0
 24 10  1  0
 26 25  1  0
 26 18  1  0
  3 21  2  0
  5  6  2  0
  8 22  2  0
  9 23  2  0
 10 25  2  0
 12 13  1  0
 14 15  1  0
 16 17  1  0
 18 19  2  0
M  END
>  <rmsd>  (1) 
0.207933977

$$$$
