MolPort-023-253-701 77343341 CSSS00159601091 MCULE-2373710604 PubChem-70723237 ZINC000077343341 ZINC77343341
     RDKit          3D

 27 30  0  0  0  0  0  0  0  0999 V2000
   11.7439   40.1764    7.7616 C   0  0  0  0  0  0  0  0  0  0  0  0
   13.7015   41.6240    7.3109 C   0  0  0  0  0  0  0  0  0  0  0  0
   14.2659   42.6744    6.5701 C   0  0  0  0  0  0  0  0  0  0  0  0
   13.8890   44.3917    4.7004 C   0  0  0  0  0  0  0  0  0  0  0  0
   12.9353   44.9233    3.6928 C   0  0  0  0  0  0  0  0  0  0  0  0
   15.5814   43.0781    6.8419 C   0  0  0  0  0  0  0  0  0  0  0  0
   16.3264   42.4492    7.8412 C   0  0  0  0  0  0  0  0  0  0  0  0
   15.7699   41.4058    8.5932 C   0  0  0  0  0  0  0  0  0  0  0  0
   14.4603   40.9960    8.3100 C   0  0  0  0  0  0  0  0  0  0  0  0
   17.8949   40.7672    9.6876 C   0  0  0  0  0  0  0  0  0  0  0  0
   18.2749   39.9662   10.7484 C   0  0  0  0  0  0  0  0  0  0  0  0
   16.1424   39.9542   10.6287 C   0  0  0  0  0  0  0  0  0  0  0  0
   14.7416   39.6703   10.9831 C   0  0  0  0  0  0  0  0  0  0  0  0
   13.8568   40.6991   11.4170 C   0  0  0  0  0  0  0  0  0  0  0  0
   12.5210   40.3946   11.7364 C   0  0  0  0  0  0  0  0  0  0  0  0
   12.1116   39.0704   11.6214 C   0  0  0  0  0  0  0  0  0  0  0  0
   10.9312   37.1220   11.6214 C   0  0  0  0  0  0  0  0  0  0  0  0
   12.9565   38.0868   11.2260 C   0  0  0  0  0  0  0  0  0  0  0  0
   14.2848   38.3404   10.9002 C   0  0  0  0  0  0  0  0  0  0  0  0
   12.3889   41.2193    7.0425 O   0  0  0  0  0  0  0  0  0  0  0  0
   15.0374   44.9000    4.7916 O   0  0  0  0  0  0  0  0  0  0  0  0
   10.8655   38.5326   11.8740 O   0  0  0  0  0  0  0  0  0  0  0  0
   12.2846   36.8811   11.2111 O   0  0  0  0  0  0  0  0  0  0  0  0
   13.4820   43.3107    5.5487 N   0  0  0  0  0  0  0  0  0  0  0  0
   16.5504   40.7518    9.6140 N   0  0  0  0  0  0  0  0  0  0  0  0
   17.1735   39.4542   11.3344 N   0  0  0  0  0  0  0  0  0  0  0  0
   14.3947   42.3622   11.6043 Cl  0  0  0  0  0  0  0  0  0  0  0  0
  1 20  1  0
  2 20  1  0
  3 24  1  0
  3  6  2  0
  5  4  1  0
  7  8  2  0
  8 25  1  0
  9  2  2  0
 11 26  1  0
 12 13  1  0
 12 25  1  0
 14 27  1  0
 14 15  2  0
 16 22  1  0
 17 22  1  0
 17 23  1  0
 18 23  1  0
 18 16  2  0
 19 13  2  0
 24  4  1  0
 25 10  1  0
  2  3  1  0
  4 21  2  0
  6  7  1  0
  8  9  1  0
 10 11  2  0
 12 26  2  0
 13 14  1  0
 15 16  1  0
 18 19  1  0
M  END
>  <rmsd>  (1) 
0.245003387

$$$$
