MolPort-020-293-027 CHEMBL3449890 MCULE-2698566815 PubChem-110265494
     RDKit          3D

 25 28  0  0  0  0  0  0  0  0999 V2000
   13.8436   44.3225    4.6740 C   0  0  0  0  0  0  0  0  0  0  0  0
   14.2382   42.7274    6.6541 C   0  0  0  0  0  0  0  0  0  0  0  0
   14.3711   41.1603    8.4449 C   0  0  0  0  0  0  0  0  0  0  0  0
   13.7114   40.0732    9.2322 C   0  0  1  0  0  0  0  0  0  0  0  0
   14.5002   38.7665    9.1315 C   0  0  0  0  0  0  0  0  0  0  0  0
   14.5511   36.4468    9.7312 C   0  0  0  0  0  0  0  0  0  0  0  0
   15.9971   36.5105   10.2258 C   0  0  0  0  0  0  0  0  0  0  0  0
   16.6896   35.2058    9.8910 C   0  0  0  0  0  0  0  0  0  0  0  0
   16.1994   35.4603   11.2990 C   0  0  0  0  0  0  0  0  0  0  0  0
   13.7697   38.0729   11.3101 C   0  0  0  0  0  0  0  0  0  0  0  0
   12.9313   39.3348   11.4951 C   0  0  0  0  0  0  0  0  0  0  0  0
   13.5457   40.4793   10.6965 C   0  0  0  0  0  0  0  0  0  0  0  0
   15.6674   41.5941    8.7540 C   0  0  0  0  0  0  0  0  0  0  0  0
   16.2465   42.6100    7.9947 C   0  0  0  0  0  0  0  0  0  0  0  0
   15.5329   43.1809    6.9409 C   0  0  0  0  0  0  0  0  0  0  0  0
   13.2870   45.7014    2.8325 C   0  0  0  0  0  0  0  0  0  0  0  0
   14.5321   46.3230    2.9048 C   0  0  0  0  0  0  0  0  0  0  0  0
   15.4208   45.9077    3.8943 C   0  0  0  0  0  0  0  0  0  0  0  0
   16.7589   46.5440    4.0067 C   0  0  0  0  0  0  0  0  0  0  0  0
   12.3097   46.1142    1.7920 C   0  0  0  0  0  0  0  0  0  0  0  0
   13.4616   43.2801    5.5818 N   0  0  0  0  0  0  0  0  0  0  0  0
   13.6970   41.7343    7.4115 N   0  0  0  0  0  0  0  0  0  0  0  0
   13.8240   37.7104    9.8906 N   0  0  0  0  0  0  0  0  0  0  0  0
   12.9665   44.7177    3.7133 N   0  0  0  0  0  0  0  0  0  0  0  0
   15.0636   44.9208    4.7567 N   0  0  0  0  0  0  0  0  0  0  0  0
  1 21  1  0
  1 25  2  0
  3 22  2  0
  4  3  1  6
  4  5  1  0
  5 23  1  0
  6 23  1  0
  6  7  1  0
  7  8  1  0
  8  9  1  0
  9  7  1  0
 10 23  1  0
 10 11  1  0
 11 12  1  0
 12  4  1  0
 13 14  2  0
 15  2  2  0
 16 24  2  0
 17 18  2  0
 19 18  1  0
 20 16  1  0
 21  2  1  0
  1 24  1  0
  2 22  1  0
  3 13  1  0
 14 15  1  0
 16 17  1  0
 18 25  1  0
M  END
>  <rmsd>  (1) 
0.245712608

$$$$
