MolPort-017-264-013 72334134 CHEMBL4522810 CSC034450290 MCULE-6466233192 ZINC000072334134 ZINC72334134
     RDKit          3D

 14 14  0  0  0  0  0  0  0  0999 V2000
   12.8527   39.2756   11.8046 C   0  0  0  0  0  0  0  0  0  0  0  0
   13.9901   38.9786   10.8498 C   0  0  0  0  0  0  0  0  0  0  0  0
   15.0244   40.7505    9.4889 C   0  0  0  0  0  0  0  0  0  0  0  0
   14.9341   41.6839    8.3619 C   0  0  0  0  0  0  0  0  0  0  0  0
   13.8470   41.8079    7.5145 C   0  0  0  0  0  0  0  0  0  0  0  0
   14.2713   42.8004    6.6546 C   0  0  0  0  0  0  0  0  0  0  0  0
   13.9119   44.3352    4.6657 C   0  0  0  0  0  0  0  0  0  0  0  0
   12.9994   44.7695    3.5766 C   0  0  0  0  0  0  0  0  0  0  0  0
   13.9542   39.8983    9.7687 O   0  0  0  0  0  0  0  0  0  0  0  0
   16.0674   40.7242   10.1977 O   0  0  0  0  0  0  0  0  0  0  0  0
   15.0428   44.8776    4.7795 O   0  0  0  0  0  0  0  0  0  0  0  0
   15.5078   43.2288    6.9672 N   0  0  0  0  0  0  0  0  0  0  0  0
   15.9154   42.5407    8.0191 N   0  0  0  0  0  0  0  0  0  0  0  0
   13.4905   43.3074    5.5678 N   0  0  0  0  0  0  0  0  0  0  0  0
  1  2  1  0
  2  9  1  0
  3  9  1  0
  3  4  1  0
  4  5  1  0
  6 12  1  0
  6 14  1  0
  8  7  1  0
 12 13  1  0
 14  7  1  0
  3 10  2  0
  4 13  2  0
  5  6  2  0
  7 11  2  0
M  END
>  <rmsd>  (1) 
0.188152194

$$$$
