MolPort-015-143-990 169794747 LN00192672 MCULE-4035326371 PubChem-160066243 PubChem-53217247 ZINC000169794747
     RDKit          3D

 21 22  0  0  0  0  0  0  0  0999 V2000
   17.5152   42.0106    4.8237 C   0  0  0  0  0  0  0  0  0  0  0  0
   15.6001   42.2975    6.3698 C   0  0  0  0  0  0  0  0  0  0  0  0
   14.2705   42.7234    6.5821 C   0  0  0  0  0  0  0  0  0  0  0  0
   13.9512   44.2894    4.6006 C   0  0  0  0  0  0  0  0  0  0  0  0
   13.1116   44.6296    3.4230 C   0  0  0  0  0  0  0  0  0  0  0  0
   13.6672   42.5073    7.8256 C   0  0  0  0  0  0  0  0  0  0  0  0
   14.3800   41.9190    8.8740 C   0  0  0  0  0  0  0  0  0  0  0  0
   15.7074   41.5325    8.6770 C   0  0  0  0  0  0  0  0  0  0  0  0
   16.3121   41.7157    7.4324 C   0  0  0  0  0  0  0  0  0  0  0  0
   13.2901   39.7499   11.2341 C   0  0  0  0  0  0  0  0  0  0  0  0
   13.7760   38.5418   10.4307 C   0  0  0  0  0  0  0  0  0  0  0  0
   13.1733   39.2838   12.6826 C   0  0  0  0  0  0  0  0  0  0  0  0
   11.9546   40.3926   10.6718 C   0  0  0  0  0  0  0  0  0  0  0  0
   11.4106   39.6882    9.4269 C   0  0  0  0  0  0  0  0  0  0  0  0
   10.8163   40.4082   11.6881 C   0  0  0  0  0  0  0  0  0  0  0  0
   16.1855   42.4258    5.1050 O   0  0  0  0  0  0  0  0  0  0  0  0
   15.0397   44.8962    4.7829 O   0  0  0  0  0  0  0  0  0  0  0  0
   14.2810   40.7423   11.1891 O   0  0  0  0  0  0  0  0  0  0  0  0
   12.2425   41.7248   10.3391 O   0  0  0  0  0  0  0  0  0  0  0  0
   13.4834   43.3190    5.5425 N   0  0  0  0  0  0  0  0  0  0  0  0
   13.6936   41.6974   10.2644 B   0  0  0  0  0  0  0  0  0  0  0  0
  1 16  1  0
  2 16  1  0
  3 20  1  0
  3  6  2  0
  5  4  1  0
  7  8  2  0
  7 21  1  0
  9  2  2  0
 10 18  1  0
 10 11  1  0
 10 12  1  0
 10 13  1  0
 13 14  1  0
 13 15  1  0
 13 19  1  0
 20  4  1  0
 21 18  1  0
 21 19  1  0
  2  3  1  0
  4 17  2  0
  6  7  1  0
  8  9  1  0
M  END
>  <rmsd>  (1) 
0.243378088

$$$$
