MolPort-002-775-237 ChemDiv-F018-3391 MCULE-2524880567 PubChem-19591198
     RDKit          3D

 27 29  0  0  0  0  0  0  0  0999 V2000
   13.6205   39.5366   11.0919 C   0  0  0  0  0  0  0  0  0  0  0  0
   14.5573   41.1005    9.8505 C   0  0  0  0  0  0  0  0  0  0  0  0
   15.5704   42.4265    6.7060 C   0  0  0  0  0  0  0  0  0  0  0  0
   16.5950   42.5983    5.6399 C   0  0  0  0  0  0  0  0  0  0  0  0
   14.2200   42.7366    6.6357 C   0  0  0  0  0  0  0  0  0  0  0  0
   13.9829   44.2481    4.5961 C   0  0  0  0  0  0  0  0  0  0  0  0
   13.1932   44.5680    3.3676 C   0  0  1  0  0  0  0  0  0  0  0  0
   12.8425   43.3113    2.5867 C   0  0  0  0  0  0  0  0  0  0  0  0
   10.4993   46.8996    3.5573 C   0  0  0  0  0  0  0  0  0  0  0  0
    9.9814   45.8998    4.3588 C   0  0  0  0  0  0  0  0  0  0  0  0
   10.9340   44.9612    4.4281 C   0  0  0  0  0  0  0  0  0  0  0  0
   10.3950   43.6069    4.6624 C   0  0  0  0  0  0  0  0  0  0  0  0
    8.8873   43.8765    4.8534 C   0  0  0  0  0  0  0  0  0  0  0  0
    8.6192   45.3588    4.5160 C   0  0  0  0  0  0  0  0  0  0  0  0
    9.7337   48.0285    2.9444 C   0  0  0  0  0  0  0  0  0  0  0  0
   13.6811   42.2541    7.8053 C   0  0  0  0  0  0  0  0  0  0  0  0
   12.2461   42.3140    8.2091 C   0  0  0  0  0  0  0  0  0  0  0  0
   13.7715   39.9504    9.7696 O   0  0  0  0  0  0  0  0  0  0  0  0
   15.0503   44.8778    4.8178 O   0  0  0  0  0  0  0  0  0  0  0  0
   14.6763   41.7118    8.5353 N   0  0  0  0  0  0  0  0  0  0  0  0
   15.8222   41.8055    7.8769 N   0  0  0  0  0  0  0  0  0  0  0  0
   13.4801   43.3035    5.5477 N   0  0  0  0  0  0  0  0  0  0  0  0
   11.9989   45.3438    3.6942 N   0  0  0  0  0  0  0  0  0  0  0  0
   11.7422   46.5331    3.1639 N   0  0  0  0  0  0  0  0  0  0  0  0
    9.0550   47.5731    1.8297 F   0  0  0  0  0  0  0  0  0  0  0  0
   10.6032   49.0358    2.5685 F   0  0  0  0  0  0  0  0  0  0  0  0
    8.8264   48.5346    3.8571 F   0  0  0  0  0  0  0  0  0  0  0  0
  1 18  1  0
  2 18  1  0
  2 20  1  0
  3  5  1  0
  4  3  1  0
  5 22  1  0
  7  6  1  0
  7  8  1  1
  7 23  1  0
  9 10  1  0
 11 23  1  0
 12 11  1  0
 12 13  1  0
 13 14  1  0
 14 10  1  0
 15  9  1  0
 15 25  1  0
 15 26  1  0
 15 27  1  0
 16 20  1  0
 17 16  1  0
 20 21  1  0
 22  6  1  0
 23 24  1  0
  3 21  2  0
  5 16  2  0
  6 19  2  0
  9 24  2  0
 10 11  2  0
M  END
>  <rmsd>  (1) 
0.249113917

$$$$
