MolPort-039-210-477 CSSS03437094304 PubChem-121017029
     RDKit          3D

 24 26  0  0  0  0  0  0  0  0999 V2000
   13.4966   45.7286    6.4117 O   0  0  0  0  0  0  0  0  0  0  0  0
   15.1115   45.0271    4.6975 O   0  0  0  0  0  0  0  0  0  0  0  0
   15.0064   38.7940   10.8990 O   0  0  0  0  0  0  0  0  0  0  0  0
   13.7101   44.8510    5.2109 S   0  0  0  0  0  0  0  0  0  0  0  0
   13.4391   43.1980    5.6491 N   0  0  0  0  0  0  0  0  0  0  0  0
   14.9698   41.0100    7.9906 N   0  0  0  0  0  0  0  0  0  0  0  0
   15.6907   42.0990    8.2096 N   0  0  0  0  0  0  0  0  0  0  0  0
   14.2125   42.5319    6.6471 C   0  0  0  0  0  0  0  0  0  0  0  0
   14.0432   41.2245    7.0402 C   0  0  0  0  0  0  0  0  0  0  0  0
   15.1502   39.7620    8.7147 C   0  0  0  0  0  0  0  0  0  0  0  0
   14.5471   39.8619   10.1069 C   0  0  1  0  0  0  0  0  0  0  0  0
   13.0099   39.8750   10.0278 C   0  0  0  0  0  0  0  0  0  0  0  0
   12.3813   38.9684   11.0892 C   0  0  0  0  0  0  0  0  0  0  0  0
   13.1258   39.0621   12.4235 C   0  0  0  0  0  0  0  0  0  0  0  0
   14.6493   39.1099   12.2230 C   0  0  0  0  0  0  0  0  0  0  0  0
   15.2480   43.0704    7.3875 C   0  0  0  0  0  0  0  0  0  0  0  0
   12.5713   45.3142    3.9657 C   0  0  0  0  0  0  0  0  0  0  0  0
   12.4881   44.6132    2.8403 C   0  0  0  0  0  0  0  0  0  0  0  0
   11.5520   44.9531    1.7603 C   0  0  0  0  0  0  0  0  0  0  0  0
   11.5334   44.1573    0.6096 C   0  0  0  0  0  0  0  0  0  0  0  0
   10.6550   44.4517   -0.4377 C   0  0  0  0  0  0  0  0  0  0  0  0
    9.7898   45.5451   -0.3386 C   0  0  0  0  0  0  0  0  0  0  0  0
    9.8025   46.3447    0.8078 C   0  0  0  0  0  0  0  0  0  0  0  0
   10.6806   46.0506    1.8550 C   0  0  0  0  0  0  0  0  0  0  0  0
  4  5  1  0
  4 17  1  0
  5  8  1  0
  6  7  1  0
  9  6  1  0
 10  6  1  0
 11 10  1  6
 11 12  1  0
 11  3  1  0
 12 13  1  0
 13 14  1  0
 14 15  1  0
 15  3  1  0
 16  8  1  0
 18 19  1  0
 20 21  2  0
 22 23  2  0
 24 19  2  0
  4  1  2  0
  4  2  2  0
  8  9  2  0
 16  7  2  0
 17 18  2  0
 19 20  1  0
 21 22  1  0
 23 24  1  0
M  END
>  <rmsd>  (1) 
0.234616458

$$$$
