MolPort-001-908-547 2968747 CHEMBL1883492 CSSS00160004050 MCULE-8852134729 PubChem-2274529 ZINC000002968747 ZINC02968747
     RDKit          3D

 22 23  0  0  0  0  0  0  0  0999 V2000
   11.2315   39.4826   10.7645 C   0  0  0  0  0  0  0  0  0  0  0  0
   12.3399   38.8046   11.5473 C   0  0  0  0  0  0  0  0  0  0  0  0
   13.5890   39.6711   11.5655 C   0  0  0  0  0  0  0  0  0  0  0  0
   14.4082   39.4824   10.2982 C   0  0  0  0  0  0  0  0  0  0  0  0
   14.3751   41.1465    8.4664 C   0  0  0  0  0  0  0  0  0  0  0  0
   15.6636   41.6108    8.7745 C   0  0  0  0  0  0  0  0  0  0  0  0
   16.2391   42.6379    8.0230 C   0  0  0  0  0  0  0  0  0  0  0  0
   15.5312   43.2059    6.9610 C   0  0  0  0  0  0  0  0  0  0  0  0
   14.2432   42.7503    6.6428 C   0  0  0  0  0  0  0  0  0  0  0  0
   13.9008   44.3577    4.6759 C   0  0  0  0  0  0  0  0  0  0  0  0
   12.9619   44.8434    3.6275 C   0  0  0  0  0  0  0  0  0  0  0  0
   12.7204   47.3454    4.3797 C   0  0  0  0  0  0  0  0  0  0  0  0
   13.9544   49.3571    3.9936 C   0  0  0  0  0  0  0  0  0  0  0  0
   14.5994   50.6061    3.5120 C   0  0  0  0  0  0  0  0  0  0  0  0
   13.6741   41.7215    7.4012 C   0  0  0  0  0  0  0  0  0  0  0  0
   13.7704   40.1217    9.1992 O   0  0  0  0  0  0  0  0  0  0  0  0
   15.0392   44.8869    4.7773 O   0  0  0  0  0  0  0  0  0  0  0  0
   13.4850   43.3104    5.5621 N   0  0  0  0  0  0  0  0  0  0  0  0
   13.4969   47.6993    5.4262 N   0  0  0  0  0  0  0  0  0  0  0  0
   14.1850   48.8191    5.2105 N   0  0  0  0  0  0  0  0  0  0  0  0
   11.6744   45.8947    4.3674 S   0  0  0  0  0  0  0  0  0  0  0  0
   12.8542   48.4405    3.1083 S   0  0  0  0  0  0  0  0  0  0  0  0
  1  2  1  0
  2  3  1  0
  3  4  1  0
  4 16  1  0
  5 16  1  0
  6  7  2  0
  8  9  2  0
  9 18  1  0
 11 10  1  0
 11 21  1  0
 12 21  1  0
 12 22  1  0
 13 22  1  0
 14 13  1  0
 15  5  2  0
 18 10  1  0
 19 20  1  0
  5  6  1  0
  7  8  1  0
  9 15  1  0
 10 17  2  0
 12 19  2  0
 13 20  2  0
M  END
>  <rmsd>  (1) 
0.248051539

$$$$
