MolPort-039-210-488 CSSS03437013823 MCULE-4377879429 PubChem-121017036
     RDKit          3D

 25 27  0  0  0  0  0  0  0  0999 V2000
   11.5984   50.0626    4.4890 F   0  0  0  0  0  0  0  0  0  0  0  0
   14.2789   46.0741    1.7942 F   0  0  0  0  0  0  0  0  0  0  0  0
   12.2543   49.0791    3.8282 C   0  0  0  0  0  0  0  0  0  0  0  0
   12.0673   47.7441    4.1978 C   0  0  0  0  0  0  0  0  0  0  0  0
   12.7419   46.7243    3.5167 C   0  0  0  0  0  0  0  0  0  0  0  0
   12.5452   45.3051    3.9360 C   0  0  0  0  0  0  0  0  0  0  0  0
   14.2141   42.5367    6.6473 C   0  0  0  0  0  0  0  0  0  0  0  0
   14.0495   41.2282    7.0384 C   0  0  0  0  0  0  0  0  0  0  0  0
   15.1570   39.7690    8.7155 C   0  0  0  0  0  0  0  0  0  0  0  0
   14.5493   39.8650   10.1061 C   0  0  1  0  0  0  0  0  0  0  0  0
   13.0124   39.8720   10.0224 C   0  0  0  0  0  0  0  0  0  0  0  0
   12.3843   38.9619   11.0810 C   0  0  0  0  0  0  0  0  0  0  0  0
   13.1244   39.0574   12.4176 C   0  0  0  0  0  0  0  0  0  0  0  0
   14.6484   39.1115   12.2217 C   0  0  0  0  0  0  0  0  0  0  0  0
   15.2444   43.0793    7.3921 C   0  0  0  0  0  0  0  0  0  0  0  0
   13.6127   47.0475    2.4640 C   0  0  0  0  0  0  0  0  0  0  0  0
   13.7978   48.3842    2.0972 C   0  0  0  0  0  0  0  0  0  0  0  0
   13.1194   49.3990    2.7782 C   0  0  0  0  0  0  0  0  0  0  0  0
   13.7062   44.8548    5.2126 S   0  0  0  0  0  0  0  0  0  0  0  0
   15.1084   45.0225    4.6983 O   0  0  0  0  0  0  0  0  0  0  0  0
   13.4945   45.7319    6.4146 O   0  0  0  0  0  0  0  0  0  0  0  0
   15.0106   38.7983   10.8984 O   0  0  0  0  0  0  0  0  0  0  0  0
   13.4412   43.2005    5.6471 N   0  0  0  0  0  0  0  0  0  0  0  0
   14.9734   41.0170    7.9920 N   0  0  0  0  0  0  0  0  0  0  0  0
   15.6884   42.1090    8.2149 N   0  0  0  0  0  0  0  0  0  0  0  0
  3  1  1  0
  4  5  2  0
  6  5  1  0
  6 19  1  0
  8 24  1  0
  9 24  1  0
 10  9  1  6
 10 11  1  0
 10 22  1  0
 11 12  1  0
 12 13  1  0
 13 14  1  0
 14 22  1  0
 15  7  1  0
 16  2  1  0
 16 17  2  0
 18  3  2  0
 19 23  1  0
 23  7  1  0
 24 25  1  0
  3  4  1  0
  5 16  1  0
  7  8  2  0
 15 25  2  0
 17 18  1  0
 19 20  2  0
 19 21  2  0
M  END
>  <rmsd>  (1) 
0.229891628

$$$$
