MolPort-001-657-850 8782554 CSSS00160412166 PubChem-19584611 ZINC000008782554 ZINC08782554
     RDKit          3D

 24 25  0  0  0  0  0  0  0  0999 V2000
   13.0392   39.4613   12.0114 C   0  0  0  0  0  0  0  0  0  0  0  0
   14.0652   39.3481   10.9034 C   0  0  0  0  0  0  0  0  0  0  0  0
   14.9288   40.2349    9.0770 C   0  0  0  0  0  0  0  0  0  0  0  0
   13.8635   41.5913    7.2864 C   0  0  0  0  0  0  0  0  0  0  0  0
   14.2659   42.6698    6.5321 C   0  0  0  0  0  0  0  0  0  0  0  0
   13.8837   44.4230    4.7287 C   0  0  0  0  0  0  0  0  0  0  0  0
   12.9428   44.9573    3.7311 C   0  0  0  0  0  0  0  0  0  0  0  0
   12.9580   46.1724    3.1665 C   0  0  0  0  0  0  0  0  0  0  0  0
   13.8237   47.3152    3.5068 C   0  0  0  0  0  0  0  0  0  0  0  0
   14.1396   48.2342    2.5010 C   0  0  0  0  0  0  0  0  0  0  0  0
   14.9030   49.3679    2.7938 C   0  0  0  0  0  0  0  0  0  0  0  0
   15.3441   49.6047    4.1056 C   0  0  0  0  0  0  0  0  0  0  0  0
   16.4832   51.7169    3.4794 C   0  0  0  0  0  0  0  0  0  0  0  0
   15.0042   48.7007    5.1165 C   0  0  0  0  0  0  0  0  0  0  0  0
   14.2405   47.5679    4.8218 C   0  0  0  0  0  0  0  0  0  0  0  0
   15.5479   43.0074    6.9270 C   0  0  0  0  0  0  0  0  0  0  0  0
   13.9543   40.4471   10.0530 O   0  0  0  0  0  0  0  0  0  0  0  0
   15.0513   44.8862    4.8298 O   0  0  0  0  0  0  0  0  0  0  0  0
   16.1153   50.7251    4.4306 O   0  0  0  0  0  0  0  0  0  0  0  0
   14.8946   41.3131    8.1040 N   0  0  0  0  0  0  0  0  0  0  0  0
   13.4715   43.3084    5.5268 N   0  0  0  0  0  0  0  0  0  0  0  0
   15.9034   42.1448    7.8989 N   0  0  0  0  0  0  0  0  0  0  0  0
   17.4181   52.5653    4.0402 F   0  0  0  0  0  0  0  0  0  0  0  0
   15.3688   52.4473    3.1093 F   0  0  0  0  0  0  0  0  0  0  0  0
  1  2  1  0
  2 17  1  0
  3 17  1  0
  3 20  1  0
  5 21  1  0
  5 16  1  0
  6  7  1  0
  8  9  1  0
 10 11  2  0
 12 19  1  0
 12 14  2  0
 13 19  1  0
 13 23  1  0
 13 24  1  0
 15  9  2  0
 20  4  1  0
 20 22  1  0
 21  6  1  0
  4  5  2  0
  6 18  2  0
  7  8  2  0
  9 10  1  0
 11 12  1  0
 14 15  1  0
 16 22  2  0
M  END
>  <rmsd>  (1) 
0.216989145

$$$$
