Molport-051-666-686 MCULE-6365975377 PubChem-110095411
     RDKit          3D

 26 29  0  0  0  0  0  0  0  0999 V2000
   17.5599   43.0122    8.3708 C   0  0  0  0  0  0  0  0  0  0  0  0
   16.1863   42.5626    8.0259 C   0  0  0  0  0  0  0  0  0  0  0  0
   15.5058   43.1538    6.9638 C   0  0  0  0  0  0  0  0  0  0  0  0
   14.2139   42.7095    6.6625 C   0  0  0  0  0  0  0  0  0  0  0  0
   14.3365   41.1510    8.4438 C   0  0  0  0  0  0  0  0  0  0  0  0
   13.6904   40.0641    9.2370 C   0  0  2  0  0  0  0  0  0  0  0  0
   13.5445   40.4806   10.6994 C   0  0  0  0  0  0  0  0  0  0  0  0
   12.9652   39.3330   11.5198 C   0  0  0  0  0  0  0  0  0  0  0  0
   13.8215   38.0838   11.3290 C   0  0  0  0  0  0  0  0  0  0  0  0
   14.5032   38.7734    9.1395 C   0  0  0  0  0  0  0  0  0  0  0  0
   14.5871   36.4445    9.7787 C   0  0  0  0  0  0  0  0  0  0  0  0
   16.0926   36.5552   10.1079 C   0  0  0  0  0  0  0  0  0  0  0  0
   16.8791   35.3472    9.5798 C   0  0  0  0  0  0  0  0  0  0  0  0
   15.3289   34.6814    8.1041 C   0  0  0  0  0  0  0  0  0  0  0  0
   14.3117   35.7876    8.4192 C   0  0  0  0  0  0  0  0  0  0  0  0
   13.8750   44.3149    4.6970 C   0  0  0  0  0  0  0  0  0  0  0  0
   15.1868   45.8787    3.7826 C   0  0  0  0  0  0  0  0  0  0  0  0
   14.0865   46.0358    2.9403 C   0  0  0  0  0  0  0  0  0  0  0  0
   16.4185   46.6973    3.6362 C   0  0  0  0  0  0  0  0  0  0  0  0
   13.6604   41.7184    7.4102 N   0  0  0  0  0  0  0  0  0  0  0  0
   15.5941   41.5755    8.7456 N   0  0  0  0  0  0  0  0  0  0  0  0
   13.8519   37.7085    9.9134 N   0  0  0  0  0  0  0  0  0  0  0  0
   13.4546   43.2715    5.5839 N   0  0  0  0  0  0  0  0  0  0  0  0
   15.0731   44.9311    4.7517 N   0  0  0  0  0  0  0  0  0  0  0  0
   16.0211   34.2805    9.2601 O   0  0  0  0  0  0  0  0  0  0  0  0
   12.9303   44.9224    3.4559 S   0  0  0  0  0  0  0  0  0  0  0  0
  1  2  1  0
  2 21  2  0
  3  4  2  0
  4 23  1  0
  5 20  2  0
  6  5  1  6
  6  7  1  0
  7  8  1  0
  8  9  1  0
  9 22  1  0
 10 22  1  0
 10  6  1  0
 11 22  1  0
 11 12  1  0
 12 13  1  0
 13 25  1  0
 14 25  1  0
 14 15  1  0
 15 11  1  0
 16 26  1  0
 17 24  1  0
 18 26  1  0
 19 17  1  0
 23 16  1  0
  2  3  1  0
  4 20  1  0
  5 21  1  0
 16 24  2  0
 17 18  2  0
M  END
>  <rmsd>  (1) 
0.243065029

$$$$
