MolPort-007-723-520 20486745 ChemDiv-E157-6096 PubChem-46271961 ZINC000020486745 ZINC20486745
     RDKit          3D

 28 30  0  0  0  0  0  0  0  0999 V2000
   13.5209   39.2689   11.2304 C   0  0  0  0  0  0  0  0  0  0  0  0
   13.5535   41.7634   11.5596 C   0  0  0  0  0  0  0  0  0  0  0  0
   12.4020   41.6877   12.3618 C   0  0  0  0  0  0  0  0  0  0  0  0
   11.8506   42.8405   12.9279 C   0  0  0  0  0  0  0  0  0  0  0  0
   10.6325   42.7430   13.7732 C   0  0  0  0  0  0  0  0  0  0  0  0
   12.4441   44.0838   12.6987 C   0  0  0  0  0  0  0  0  0  0  0  0
   13.5890   44.1742   11.9041 C   0  0  0  0  0  0  0  0  0  0  0  0
   14.1397   43.0209   11.3388 C   0  0  0  0  0  0  0  0  0  0  0  0
   15.1349   41.6332    8.5277 C   0  0  0  0  0  0  0  0  0  0  0  0
   14.2371   42.7840    6.6385 C   0  0  0  0  0  0  0  0  0  0  0  0
   13.9130   44.3439    4.6624 C   0  0  0  0  0  0  0  0  0  0  0  0
   13.0168   44.7812    3.5879 C   0  0  0  0  0  0  0  0  0  0  0  0
   13.3619   45.7374    2.7284 C   0  0  0  0  0  0  0  0  0  0  0  0
   12.4772   46.1887    1.6456 C   0  0  0  0  0  0  0  0  0  0  0  0
   11.2023   45.6322    1.4520 C   0  0  0  0  0  0  0  0  0  0  0  0
   10.3867   46.0860    0.4112 C   0  0  0  0  0  0  0  0  0  0  0  0
   10.8395   47.0970   -0.4410 C   0  0  0  0  0  0  0  0  0  0  0  0
   12.1075   47.6541   -0.2527 C   0  0  0  0  0  0  0  0  0  0  0  0
   12.9234   47.2006    0.7883 C   0  0  0  0  0  0  0  0  0  0  0  0
   14.1177   40.5726   10.9739 N   0  0  0  0  0  0  0  0  0  0  0  0
   15.9792   42.5590    8.0234 N   0  0  0  0  0  0  0  0  0  0  0  0
   15.4797   43.2009    6.9691 N   0  0  0  0  0  0  0  0  0  0  0  0
   13.4735   43.3101    5.5489 N   0  0  0  0  0  0  0  0  0  0  0  0
   15.5024   40.6422    9.9246 S   0  0  0  0  0  0  0  0  0  0  0  0
   13.6891   41.5696    7.6659 S   0  0  0  0  0  0  0  0  0  0  0  0
   15.8686   39.2607    9.4587 O   0  0  0  0  0  0  0  0  0  0  0  0
   16.6644   41.2277   10.6768 O   0  0  0  0  0  0  0  0  0  0  0  0
   15.0505   44.8718    4.8000 O   0  0  0  0  0  0  0  0  0  0  0  0
  1 20  1  0
  3  4  2  0
  5  4  1  0
  6  7  2  0
  8  2  2  0
  9 25  1  0
 10 23  1  0
 10 25  1  0
 11 12  1  0
 13 14  1  0
 15 16  2  0
 17 18  2  0
 19 14  2  0
 20  2  1  0
 21 22  1  0
 23 11  1  0
 24 20  1  0
 24  9  1  0
  2  3  1  0
  4  6  1  0
  7  8  1  0
  9 21  2  0
 10 22  2  0
 11 28  2  0
 12 13  2  0
 14 15  1  0
 16 17  1  0
 18 19  1  0
 24 26  2  0
 24 27  2  0
M  END
>  <rmsd>  (1) 
0.200466961

$$$$
