MolPort-007-723-368 ChemDiv-E157-4858 MCULE-2177005398 PubChem-22517954
     RDKit          3D

 24 26  0  0  0  0  0  0  0  0999 V2000
   14.0646   39.0148   11.9591 C   0  0  0  0  0  0  0  0  0  0  0  0
   13.1169   39.6165   10.9388 C   0  0  0  0  0  0  0  0  0  0  0  0
   13.6398   39.3942    9.5290 C   0  0  0  0  0  0  0  0  0  0  0  0
   14.6957   40.3924    9.1837 C   0  0  0  0  0  0  0  0  0  0  0  0
   15.7417   41.9495    8.2394 C   0  0  0  0  0  0  0  0  0  0  0  0
   14.2196   42.7009    6.5838 C   0  0  0  0  0  0  0  0  0  0  0  0
   13.9073   44.3874    4.6870 C   0  0  0  0  0  0  0  0  0  0  0  0
   12.9869   44.8912    3.6219 C   0  0  2  0  0  0  0  0  0  0  0  0
   13.2758   44.2329    2.2715 C   0  0  0  0  0  0  0  0  0  0  0  0
   14.6074   44.6793    1.6885 C   0  0  0  0  0  0  0  0  0  0  0  0
   12.0569   47.0885    2.9191 C   0  0  0  0  0  0  0  0  0  0  0  0
   10.8899   46.5114    2.3914 C   0  0  0  0  0  0  0  0  0  0  0  0
    9.9194   47.3136    1.7843 C   0  0  0  0  0  0  0  0  0  0  0  0
   10.1078   48.6958    1.7019 C   0  0  0  0  0  0  0  0  0  0  0  0
   11.2663   49.2757    2.2268 C   0  0  0  0  0  0  0  0  0  0  0  0
   12.2370   48.4734    2.8341 C   0  0  0  0  0  0  0  0  0  0  0  0
   15.9150   40.4955    9.7792 N   0  0  0  0  0  0  0  0  0  0  0  0
   16.5841   41.4890    9.1797 N   0  0  0  0  0  0  0  0  0  0  0  0
   13.4716   43.3121    5.5260 N   0  0  0  0  0  0  0  0  0  0  0  0
   13.7083   41.6735    7.3200 N   0  0  0  0  0  0  0  0  0  0  0  0
   14.6060   41.3085    8.2202 N   0  0  0  0  0  0  0  0  0  0  0  0
   15.8210   43.1477    7.0730 S   0  0  0  0  0  0  0  0  0  0  0  0
   15.0563   44.8894    4.8147 O   0  0  0  0  0  0  0  0  0  0  0  0
   13.0458   46.3142    3.5355 O   0  0  0  0  0  0  0  0  0  0  0  0
  1  2  1  0
  2  3  1  0
  3  4  1  0
  5 22  1  0
  6 22  1  0
  6 19  1  0
  8  7  1  0
  8  9  1  6
  8 24  1  0
  9 10  1  0
 11 24  1  0
 12 13  2  0
 14 15  2  0
 16 11  2  0
 17 18  1  0
 19  7  1  0
 21 20  1  0
 21  4  1  0
 21  5  1  0
  4 17  2  0
  5 18  2  0
  6 20  2  0
  7 23  2  0
 11 12  1  0
 13 14  1  0
 15 16  1  0
M  END
>  <rmsd>  (1) 
0.202567473

$$$$
