Molport-053-332-522
     RDKit          3D

 16 17  0  0  0  0  0  0  0  0999 V2000
   13.4920   39.3706   11.4487 Cl  0  0  0  0  0  0  0  0  0  0  0  0
   13.5997   40.3337    9.9871 C   0  0  0  0  0  0  0  0  0  0  0  0
   12.4176   40.7242    9.3116 C   0  0  0  0  0  0  0  0  0  0  0  0
   12.4878   41.4975    8.1368 C   0  0  0  0  0  0  0  0  0  0  0  0
   13.7543   41.8533    7.6797 C   0  0  0  0  0  0  0  0  0  0  0  0
   14.2028   42.5789    6.6015 C   0  0  0  0  0  0  0  0  0  0  0  0
   14.7630   42.9129    3.1096 C   0  0  0  0  0  0  0  0  0  0  0  0
   16.0186   42.4778    3.2224 C   0  0  0  0  0  0  0  0  0  0  0  0
   14.8955   41.4784    8.3280 C   0  0  0  0  0  0  0  0  0  0  0  0
   14.8631   40.7145    9.4911 C   0  0  0  0  0  0  0  0  0  0  0  0
   13.3899   43.1992    5.6011 N   0  0  0  0  0  0  0  0  0  0  0  0
   15.5557   42.6204    6.6299 N   0  0  0  0  0  0  0  0  0  0  0  0
   14.0826   44.0532    4.2635 S   0  0  0  0  0  0  0  0  0  0  0  0
   15.1400   45.0037    4.7519 O   0  0  0  0  0  0  0  0  0  0  0  0
   13.0084   44.8499    3.5788 O   0  0  0  0  0  0  0  0  0  0  0  0
   15.9382   41.9466    7.6837 O   0  0  0  0  0  0  0  0  0  0  0  0
  2  1  1  0
  3  4  2  0
  5  6  1  0
  6 11  1  0
  9 16  1  0
  9  5  2  0
 10  2  2  0
 12 16  1  0
 13 11  1  0
 13  7  1  0
  2  3  1  0
  4  5  1  0
  6 12  2  0
  7  8  2  0
  9 10  1  0
 13 14  2  0
 13 15  2  0
M  END
>  <rmsd>  (1) 
0.240764007

$$$$
