MolPort-046-932-000 142864033 CHEMBL3357014 MCULE-4179892381 MCULE-5655925433 ZINC000142864033
     RDKit          3D

 31 34  0  0  0  0  0  0  0  0999 V2000
   18.6350   41.7897   10.5174 C   0  0  0  0  0  0  0  0  0  0  0  0
   17.3393   41.7344    9.7819 C   0  0  0  0  0  0  0  0  0  0  0  0
   16.2788   40.8517   10.1596 C   0  0  0  0  0  0  0  0  0  0  0  0
   15.0644   40.8299    9.4292 C   0  0  0  0  0  0  0  0  0  0  0  0
   13.9236   39.9261    9.7957 C   0  0  2  0  0  0  0  0  0  0  0  0
   13.4709   37.9808   10.7793 C   0  0  0  0  0  0  0  0  0  0  0  0
   13.0472   39.0122   11.7988 C   0  0  0  0  0  0  0  0  0  0  0  0
   13.3143   40.3224   11.1225 C   0  0  0  0  0  0  0  0  0  0  0  0
   14.9468   41.6979    8.3452 C   0  0  0  0  0  0  0  0  0  0  0  0
   15.9500   42.5392    7.9844 C   0  0  0  0  0  0  0  0  0  0  0  0
   17.1557   42.5893    8.6707 C   0  0  0  0  0  0  0  0  0  0  0  0
   14.3326   42.8141    6.6710 C   0  0  0  0  0  0  0  0  0  0  0  0
   13.8956   44.3232    4.6733 C   0  0  0  0  0  0  0  0  0  0  0  0
   13.2855   45.7254    2.6545 C   0  0  0  0  0  0  0  0  0  0  0  0
   14.2634   45.1762    1.6324 C   0  0  0  0  0  0  0  0  0  0  0  0
   19.6387   42.6884   10.1316 C   0  0  0  0  0  0  0  0  0  0  0  0
   21.0566   41.9207   11.8644 C   0  0  0  0  0  0  0  0  0  0  0  0
   18.9105   40.9557   11.6071 C   0  0  0  0  0  0  0  0  0  0  0  0
   22.3815   41.9761   12.5750 C   0  0  0  0  0  0  0  0  0  0  0  0
   22.6969   43.4045   12.9816 C   0  0  0  0  0  0  0  0  0  0  0  0
   23.4748   41.4710   11.6533 C   0  0  0  0  0  0  0  0  0  0  0  0
   14.3454   38.5899    9.8679 O   0  0  0  0  0  0  0  0  0  0  0  0
   15.0231   44.8825    4.7558 O   0  0  0  0  0  0  0  0  0  0  0  0
   22.3543   41.1795   13.7222 O   0  0  0  0  0  0  0  0  0  0  0  0
   15.5901   43.2668    6.9181 N   0  0  0  0  0  0  0  0  0  0  0  0
   13.5154   43.3026    5.6021 N   0  0  0  0  0  0  0  0  0  0  0  0
   12.9765   44.7079    3.6490 N   0  0  0  0  0  0  0  0  0  0  0  0
   13.8975   41.8509    7.5222 N   0  0  0  0  0  0  0  0  0  0  0  0
   20.8184   42.7364   10.8016 N   0  0  0  0  0  0  0  0  0  0  0  0
   20.1023   41.0321   12.2529 N   0  0  0  0  0  0  0  0  0  0  0  0
   16.4120   40.0224   11.2266 F   0  0  0  0  0  0  0  0  0  0  0  0
  1  2  1  0
  3  4  2  0
  3 31  1  0
  5  4  1  1
  5 22  1  0
  6 22  1  0
  6  7  1  0
  7  8  1  0
  8  5  1  0
  9 10  2  0
 10 25  1  0
 11  2  2  0
 12 26  1  0
 12 28  1  0
 13 27  1  0
 14 27  1  0
 14 15  1  0
 16 29  2  0
 17 30  2  0
 18  1  2  0
 19 17  1  0
 19 24  1  0
 19 20  1  0
 19 21  1  0
 26 13  1  0
 28  9  1  0
  1 16  1  0
  2  3  1  0
  4  9  1  0
 10 11  1  0
 12 25  2  0
 13 23  2  0
 17 29  1  0
 18 30  1  0
M  END
>  <rmsd>  (1) 
0.204110086

$$$$
