MolPort-002-854-086 CSSS00138418082 MCULE-7243128000
     RDKit          3D

 24 26  0  0  0  0  0  0  0  0999 V2000
   16.6923   46.4908    4.0212 C   0  0  0  0  0  0  0  0  0  0  0  0
   13.9013   44.3162    4.6741 C   0  0  0  0  0  0  0  0  0  0  0  0
   14.2439   42.7811    6.6778 C   0  0  0  0  0  0  0  0  0  0  0  0
   15.7526   42.4476    8.0708 C   0  0  0  0  0  0  0  0  0  0  0  0
   17.0114   41.6086    9.8545 C   0  0  0  0  0  0  0  0  0  0  0  0
   15.9648   40.7230   10.1780 C   0  0  0  0  0  0  0  0  0  0  0  0
   14.7928   40.7412    9.3997 C   0  0  0  0  0  0  0  0  0  0  0  0
   13.6433   39.8023    9.6548 C   0  0  2  0  0  0  0  0  0  0  0  0
   13.5219   39.3361   11.1007 C   0  0  0  0  0  0  0  0  0  0  0  0
   14.5760   37.6818    8.6646 C   0  0  0  0  0  0  0  0  0  0  0  0
   14.4464   36.7127    7.6637 C   0  0  0  0  0  0  0  0  0  0  0  0
   15.3724   35.6701    7.5630 C   0  0  0  0  0  0  0  0  0  0  0  0
   16.4358   35.5902    8.4660 C   0  0  0  0  0  0  0  0  0  0  0  0
   16.5729   36.5521    9.4701 C   0  0  0  0  0  0  0  0  0  0  0  0
   15.6465   37.5937    9.5697 C   0  0  0  0  0  0  0  0  0  0  0  0
   15.4268   45.8681    3.8988 O   0  0  0  0  0  0  0  0  0  0  0  0
   13.6248   38.7110    8.7303 O   0  0  0  0  0  0  0  0  0  0  0  0
   15.0559   44.8857    4.7851 N   0  0  0  0  0  0  0  0  0  0  0  0
   13.4793   43.2893    5.5789 N   0  0  0  0  0  0  0  0  0  0  0  0
   13.7780   41.8049    7.4937 N   0  0  0  0  0  0  0  0  0  0  0  0
   14.7509   41.6160    8.3628 N   0  0  0  0  0  0  0  0  0  0  0  0
   15.4908   43.2197    7.0029 N   0  0  0  0  0  0  0  0  0  0  0  0
   16.8949   42.4669    8.7992 N   0  0  0  0  0  0  0  0  0  0  0  0
   17.3331   34.5804    8.3685 F   0  0  0  0  0  0  0  0  0  0  0  0
  1 16  1  0
  2 19  1  0
  3 22  1  0
  4 23  1  0
  5  6  1  0
  7 21  1  0
  8  7  1  0
  8  9  1  1
  8 17  1  0
 10 17  1  0
 11 12  2  0
 13 24  1  0
 13 14  2  0
 15 10  2  0
 16 18  1  0
 19  3  1  0
 21 20  1  0
 21  4  1  0
  2 18  2  0
  3 20  2  0
  4 22  2  0
  5 23  2  0
  6  7  2  0
 10 11  1  0
 12 13  1  0
 14 15  1  0
M  END
>  <rmsd>  (1) 
0.193519562

$$$$
