Molport-047-071-689 PubChem-132767284
     RDKit          3D

 32 35  0  0  0  0  0  0  0  0999 V2000
   15.3891   31.5628   14.7315 C   0  0  0  0  0  0  0  0  0  0  0  0
   14.9896   32.9875   14.5928 C   0  0  0  0  0  0  0  0  0  0  0  0
   14.6351   34.9606   13.5908 C   0  0  0  0  0  0  0  0  0  0  0  0
   14.6146   35.9206   12.4841 C   0  0  0  0  0  0  0  0  0  0  0  0
   15.0151   35.5893   11.2608 C   0  0  0  0  0  0  0  0  0  0  0  0
   15.0106   36.5215   10.1185 C   0  0  0  0  0  0  0  0  0  0  0  0
   13.2182   38.0597   11.0224 C   0  0  0  0  0  0  0  0  0  0  0  0
   13.3288   39.4278   11.6999 C   0  0  0  0  0  0  0  0  0  0  0  0
   13.8314   40.5385   10.7655 C   0  0  0  0  0  0  0  0  0  0  0  0
   13.9245   40.0947    9.3051 C   0  0  2  0  0  0  0  0  0  0  0  0
   14.7793   38.8317    9.1853 C   0  0  0  0  0  0  0  0  0  0  0  0
   14.4781   41.1884    8.4534 C   0  0  0  0  0  0  0  0  0  0  0  0
   13.7031   41.7138    7.4197 C   0  0  0  0  0  0  0  0  0  0  0  0
   14.2379   42.7348    6.6346 C   0  0  0  0  0  0  0  0  0  0  0  0
   13.8450   44.3270    4.6742 C   0  0  0  0  0  0  0  0  0  0  0  0
   15.4417   45.9052    3.9215 C   0  0  0  0  0  0  0  0  0  0  0  0
   16.7841   46.5292    4.0501 C   0  0  0  0  0  0  0  0  0  0  0  0
   14.5643   46.3364    2.9285 C   0  0  0  0  0  0  0  0  0  0  0  0
   13.3146   45.7260    2.8407 C   0  0  0  0  0  0  0  0  0  0  0  0
   12.3493   46.1562    1.7960 C   0  0  0  0  0  0  0  0  0  0  0  0
   16.2366   42.6706    7.9025 C   0  0  0  0  0  0  0  0  0  0  0  0
   17.6049   43.1886    8.1617 C   0  0  0  0  0  0  0  0  0  0  0  0
   14.2121   35.3165   14.8711 C   0  0  0  0  0  0  0  0  0  0  0  0
   15.0639   33.6758   13.4377 N   0  0  0  0  0  0  0  0  0  0  0  0
   14.3791   37.8153   10.1643 N   0  0  0  0  0  0  0  0  0  0  0  0
   13.4500   43.2813    5.5702 N   0  0  0  0  0  0  0  0  0  0  0  0
   15.0694   44.9139    4.7723 N   0  0  0  0  0  0  0  0  0  0  0  0
   12.9786   44.7374    3.7102 N   0  0  0  0  0  0  0  0  0  0  0  0
   15.4936   43.1922    6.8920 N   0  0  0  0  0  0  0  0  0  0  0  0
   15.7293   41.6759    8.6757 N   0  0  0  0  0  0  0  0  0  0  0  0
   15.6041   36.1594    9.0677 O   0  0  0  0  0  0  0  0  0  0  0  0
   14.3940   33.9436   15.8313 S   0  0  0  0  0  0  0  0  0  0  0  0
  1  2  1  0
  2 32  1  0
  3 24  1  0
  3  4  1  0
  5  6  1  0
  6 25  1  0
  7 25  1  0
  7  8  1  0
  8  9  1  0
  9 10  1  0
 10 11  1  0
 10 12  1  6
 11 25  1  0
 12 30  2  0
 13 14  2  0
 14 26  1  0
 15 28  2  0
 16 27  2  0
 17 16  1  0
 18 19  2  0
 20 19  1  0
 21 29  2  0
 22 21  1  0
 23 32  1  0
 26 15  1  0
  2 24  2  0
  3 23  2  0
  4  5  2  0
  6 31  2  0
 12 13  1  0
 14 29  1  0
 15 27  1  0
 16 18  1  0
 19 28  1  0
 21 30  1  0
M  END
>  <rmsd>  (1) 
0.248758793

$$$$
