MolPort-020-295-123 MCULE-1159495392 PubChem-110267218
     RDKit          3D

 32 35  0  0  0  0  0  0  0  0999 V2000
   11.1498   45.6534    1.5500 C   0  0  0  0  0  0  0  0  0  0  0  0
   13.3487   45.7498    2.8061 C   0  0  0  0  0  0  0  0  0  0  0  0
   15.4327   45.9049    3.9136 C   0  0  0  0  0  0  0  0  0  0  0  0
   13.8483   44.3188    4.6723 C   0  0  0  0  0  0  0  0  0  0  0  0
   12.9592   44.7291    3.6800 C   0  0  0  0  0  0  0  0  0  0  0  0
   14.2429   42.7262    6.6341 C   0  0  0  0  0  0  0  0  0  0  0  0
   16.2645   42.6220    7.8616 C   0  0  0  0  0  0  0  0  0  0  0  0
   15.7306   41.6271    8.6782 C   0  0  0  0  0  0  0  0  0  0  0  0
   14.4203   41.1994    8.4369 C   0  0  0  0  0  0  0  0  0  0  0  0
   13.7862   40.1388    9.2774 C   0  0  2  0  0  0  0  0  0  0  0  0
   13.7055   40.5643   10.7478 C   0  0  0  0  0  0  0  0  0  0  0  0
   13.6201   39.3689   11.7000 C   0  0  0  0  0  0  0  0  0  0  0  0
   13.0177   38.1586   10.9912 C   0  0  0  0  0  0  0  0  0  0  0  0
   14.5061   38.7935    9.1220 C   0  0  0  0  0  0  0  0  0  0  0  0
   13.0046   36.9775    8.9618 C   0  0  0  0  0  0  0  0  0  0  0  0
   13.7113   35.7797    8.4255 C   0  0  0  0  0  0  0  0  0  0  0  0
   14.6422   34.6306    6.3325 C   0  0  0  0  0  0  0  0  0  0  0  0
   14.9762   34.7957    4.9839 C   0  0  0  0  0  0  0  0  0  0  0  0
   15.5769   33.7544    4.2708 C   0  0  0  0  0  0  0  0  0  0  0  0
   15.8442   32.5374    4.9035 C   0  0  0  0  0  0  0  0  0  0  0  0
   15.5104   32.3621    6.2484 C   0  0  0  0  0  0  0  0  0  0  0  0
   14.9110   33.4047    6.9609 C   0  0  0  0  0  0  0  0  0  0  0  0
   12.4769   46.2076    1.7699 N   0  0  0  0  0  0  0  0  0  0  0  0
   14.5769   46.3147    2.9414 N   0  0  0  0  0  0  0  0  0  0  0  0
   15.0673   44.9158    4.7697 N   0  0  0  0  0  0  0  0  0  0  0  0
   13.4528   43.2789    5.5746 N   0  0  0  0  0  0  0  0  0  0  0  0
   15.5163   43.1513    6.8592 N   0  0  0  0  0  0  0  0  0  0  0  0
   13.7083   41.7558    7.4221 N   0  0  0  0  0  0  0  0  0  0  0  0
   13.8689   37.6997    9.8825 N   0  0  0  0  0  0  0  0  0  0  0  0
   14.0257   35.7227    7.0284 N   0  0  0  0  0  0  0  0  0  0  0  0
   14.0257   34.8414    9.2052 O   0  0  0  0  0  0  0  0  0  0  0  0
   16.4239   31.5272    4.2128 F   0  0  0  0  0  0  0  0  0  0  0  0
  1 23  1  0
  3 24  2  0
  4 25  2  0
  4 26  1  0
  5  2  2  0
  6 28  2  0
  7 27  2  0
  8  9  2  0
 10  9  1  6
 10 11  1  0
 11 12  1  0
 12 13  1  0
 13 29  1  0
 14 29  1  0
 14 10  1  0
 15 29  1  0
 15 16  1  0
 16 30  1  0
 18 19  2  0
 20 21  2  0
 20 32  1  0
 22 17  2  0
 23  2  1  0
 26  6  1  0
 30 17  1  0
  2 24  1  0
  3 25  1  0
  4  5  1  0
  6 27  1  0
  7  8  1  0
  9 28  1  0
 16 31  2  0
 17 18  1  0
 19 20  1  0
 21 22  1  0
M  END
>  <rmsd>  (1) 
0.248096064

$$$$
