Molport-047-863-824 MCULE-9099266621 PubChem-16062737 ZINC000196109479
     RDKit          3D

 28 30  0  0  0  0  0  0  0  0999 V2000
   13.6883   41.6987   10.2662 B   0  0  0  0  0  0  0  0  0  0  0  0
   12.2373   41.7096   10.3466 O   0  0  0  0  0  0  0  0  0  0  0  0
   14.2903   40.7469   11.1847 O   0  0  0  0  0  0  0  0  0  0  0  0
   16.2041   42.4406    5.1552 O   0  0  0  0  0  0  0  0  0  0  0  0
   15.0418   44.8921    4.7866 O   0  0  0  0  0  0  0  0  0  0  0  0
   13.1775   44.5665    3.4683 O   0  0  0  0  0  0  0  0  0  0  0  0
   11.9659   40.3729   10.6747 C   0  0  0  0  0  0  0  0  0  0  0  0
   13.3102   39.7440   11.2315 C   0  0  0  0  0  0  0  0  0  0  0  0
   13.2033   39.2745   12.6797 C   0  0  0  0  0  0  0  0  0  0  0  0
   13.8062   38.5422   10.4248 C   0  0  0  0  0  0  0  0  0  0  0  0
   11.4276   39.6668    9.4283 C   0  0  0  0  0  0  0  0  0  0  0  0
   10.8298   40.3708   11.6935 C   0  0  0  0  0  0  0  0  0  0  0  0
   14.3664   41.9335    8.8742 C   0  0  0  0  0  0  0  0  0  0  0  0
   13.6500   42.5147    7.8273 C   0  0  0  0  0  0  0  0  0  0  0  0
   14.2589   42.7358    6.5904 C   0  0  0  0  0  0  0  0  0  0  0  0
   15.5922   42.3171    6.4050 C   0  0  0  0  0  0  0  0  0  0  0  0
   15.6961   41.5665    8.6633 C   0  0  0  0  0  0  0  0  0  0  0  0
   17.5411   42.0226    4.9238 C   0  0  0  0  0  0  0  0  0  0  0  0
   13.9560   44.2802    4.5892 C   0  0  0  0  0  0  0  0  0  0  0  0
   13.5833   45.5201    2.4970 C   0  0  0  0  0  0  0  0  0  0  0  0
   12.5592   45.6068    1.4220 C   0  0  0  0  0  0  0  0  0  0  0  0
   12.6389   44.7619    0.3098 C   0  0  0  0  0  0  0  0  0  0  0  0
   11.6624   44.8264   -0.6891 C   0  0  0  0  0  0  0  0  0  0  0  0
   10.6026   45.7314   -0.5735 C   0  0  0  0  0  0  0  0  0  0  0  0
   10.5177   46.5702    0.5421 C   0  0  0  0  0  0  0  0  0  0  0  0
   11.4941   46.5060    1.5412 C   0  0  0  0  0  0  0  0  0  0  0  0
   16.2720   41.7590    7.4475 N   0  0  0  0  0  0  0  0  0  0  0  0
   13.4807   43.3208    5.5384 N   0  0  0  0  0  0  0  0  0  0  0  0
  1  2  1  0
  1 13  1  0
  1  3  1  0
  7  2  1  0
  7  8  1  0
  7 11  1  0
  7 12  1  0
  8  3  1  0
  8  9  1  0
  8 10  1  0
 14 15  2  0
 15 28  1  0
 16 27  2  0
 16  4  1  0
 17 13  2  0
 18  4  1  0
 19  6  1  0
 20  6  1  0
 20 21  1  0
 22 23  2  0
 24 25  2  0
 26 21  2  0
 28 19  1  0
 13 14  1  0
 15 16  1  0
 17 27  1  0
 19  5  2  0
 21 22  1  0
 23 24  1  0
 25 26  1  0
M  END
>  <rmsd>  (1) 
0.239855498

$$$$
