MolPort-020-292-547 MCULE-4697441922 PubChem-110265015
     RDKit          3D

 32 35  0  0  0  0  0  0  0  0999 V2000
   11.6454   44.1036    3.4492 C   0  0  0  0  0  0  0  0  0  0  0  0
   12.9897   44.7234    3.6217 C   0  0  0  0  0  0  0  0  0  0  0  0
   13.8563   44.3201    4.6514 C   0  0  0  0  0  0  0  0  0  0  0  0
   15.4845   45.8966    3.9201 C   0  0  0  0  0  0  0  0  0  0  0  0
   14.6472   46.3227    2.8891 C   0  0  0  0  0  0  0  0  0  0  0  0
   13.3935   45.7300    2.7428 C   0  0  0  0  0  0  0  0  0  0  0  0
   14.1993   42.7393    6.6549 C   0  0  0  0  0  0  0  0  0  0  0  0
   13.6194   41.7286    7.4267 C   0  0  0  0  0  0  0  0  0  0  0  0
   14.3312   41.1790    8.4963 C   0  0  0  0  0  0  0  0  0  0  0  0
   16.1764   42.6076    8.0414 C   0  0  0  0  0  0  0  0  0  0  0  0
   15.4922   43.1817    6.9686 C   0  0  0  0  0  0  0  0  0  0  0  0
   17.5484   43.0688    8.3785 C   0  0  0  0  0  0  0  0  0  0  0  0
   13.7111   40.0896    9.3068 C   0  0  2  0  0  0  0  0  0  0  0  0
   13.6665   40.4671   10.7812 C   0  0  0  0  0  0  0  0  0  0  0  0
   13.0465   39.3283   11.5753 C   0  0  0  0  0  0  0  0  0  0  0  0
   13.8371   38.0363   11.3378 C   0  0  0  0  0  0  0  0  0  0  0  0
   14.4838   38.7781    9.1219 C   0  0  0  0  0  0  0  0  0  0  0  0
   12.5871   37.3209    9.4185 C   0  0  0  0  0  0  0  0  0  0  0  0
   12.6890   36.3861    8.2601 C   0  0  0  0  0  0  0  0  0  0  0  0
   12.2353   36.7728    7.0009 C   0  0  0  0  0  0  0  0  0  0  0  0
   12.8565   34.6706    6.1166 C   0  0  0  0  0  0  0  0  0  0  0  0
   13.2205   35.1050    8.4114 C   0  0  0  0  0  0  0  0  0  0  0  0
   12.9262   33.7333    4.9604 C   0  0  0  0  0  0  0  0  0  0  0  0
   11.6075   32.9985    4.7856 C   0  0  0  0  0  0  0  0  0  0  0  0
   10.2268   31.4412    5.5177 C   0  0  0  0  0  0  0  0  0  0  0  0
   15.0763   44.9162    4.7689 N   0  0  0  0  0  0  0  0  0  0  0  0
   13.4489   43.2854    5.5609 N   0  0  0  0  0  0  0  0  0  0  0  0
   15.5887   41.6253    8.7762 N   0  0  0  0  0  0  0  0  0  0  0  0
   13.9166   37.6754    9.9148 N   0  0  0  0  0  0  0  0  0  0  0  0
   12.3259   35.9117    5.9546 N   0  0  0  0  0  0  0  0  0  0  0  0
   13.2935   34.2722    7.3408 N   0  0  0  0  0  0  0  0  0  0  0  0
   11.4265   32.0846    5.8235 O   0  0  0  0  0  0  0  0  0  0  0  0
  1  2  1  0
  3 26  2  0
  3 27  1  0
  4  5  2  0
  6  2  2  0
  8  9  2  0
 10 28  2  0
 11  7  2  0
 12 10  1  0
 13  9  1  6
 13 14  1  0
 14 15  1  0
 15 16  1  0
 16 29  1  0
 17 29  1  0
 17 13  1  0
 18 29  1  0
 18 19  1  0
 20 30  2  0
 21 31  2  0
 22 19  2  0
 23 21  1  0
 23 24  1  0
 24 32  1  0
 25 32  1  0
 27  7  1  0
  2  3  1  0
  4 26  1  0
  5  6  1  0
  7  8  1  0
  9 28  1  0
 10 11  1  0
 19 20  1  0
 21 30  1  0
 22 31  1  0
M  END
>  <rmsd>  (1) 
0.249122784

$$$$
