MolPort-020-278-653 MCULE-6054173363 PubChem-110255525
     RDKit          3D

 26 29  0  0  0  0  0  0  0  0999 V2000
   17.5915   43.0309    8.3285 C   0  0  0  0  0  0  0  0  0  0  0  0
   16.2163   42.5779    7.9949 C   0  0  0  0  0  0  0  0  0  0  0  0
   15.5248   43.1684    6.9395 C   0  0  0  0  0  0  0  0  0  0  0  0
   14.2316   42.7214    6.6481 C   0  0  0  0  0  0  0  0  0  0  0  0
   14.3744   41.1607    8.4269 C   0  0  0  0  0  0  0  0  0  0  0  0
   13.7383   40.0709    9.2238 C   0  0  2  0  0  0  0  0  0  0  0  0
   13.6053   40.4814   10.6918 C   0  0  0  0  0  0  0  0  0  0  0  0
   12.9514   39.3625   11.5002 C   0  0  0  0  0  0  0  0  0  0  0  0
   13.7736   38.0831   11.3791 C   0  0  0  0  0  0  0  0  0  0  0  0
   14.5400   38.7756    9.0976 C   0  0  0  0  0  0  0  0  0  0  0  0
   13.5555   36.4839    9.4448 C   0  0  0  0  0  0  0  0  0  0  0  0
   13.3431   35.0023    7.6088 C   0  0  0  0  0  0  0  0  0  0  0  0
   12.7764   34.0364    8.4381 C   0  0  0  0  0  0  0  0  0  0  0  0
   12.6132   34.3381    9.7886 C   0  0  0  0  0  0  0  0  0  0  0  0
   13.8451   44.3264    4.6743 C   0  0  0  0  0  0  0  0  0  0  0  0
   13.2953   45.7146    2.8379 C   0  0  0  0  0  0  0  0  0  0  0  0
   14.5418   46.3326    2.9149 C   0  0  0  0  0  0  0  0  0  0  0  0
   15.4278   45.9109    3.9041 C   0  0  0  0  0  0  0  0  0  0  0  0
   13.6879   41.7275    7.3997 N   0  0  0  0  0  0  0  0  0  0  0  0
   15.6332   41.5881    8.7183 N   0  0  0  0  0  0  0  0  0  0  0  0
   13.9593   37.7569    9.9678 N   0  0  0  0  0  0  0  0  0  0  0  0
   13.7206   36.2018    8.1226 N   0  0  0  0  0  0  0  0  0  0  0  0
   13.0028   35.5486   10.2662 N   0  0  0  0  0  0  0  0  0  0  0  0
   13.4586   43.2810    5.5768 N   0  0  0  0  0  0  0  0  0  0  0  0
   12.9707   44.7281    3.7139 N   0  0  0  0  0  0  0  0  0  0  0  0
   15.0666   44.9211    4.7616 N   0  0  0  0  0  0  0  0  0  0  0  0
  1  2  1  0
  2 20  2  0
  3  4  2  0
  4 24  1  0
  5 19  2  0
  6  5  1  6
  6  7  1  0
  7  8  1  0
  8  9  1  0
  9 21  1  0
 10 21  1  0
 10  6  1  0
 11 23  2  0
 12 22  2  0
 13 14  2  0
 15 26  2  0
 16 25  2  0
 17 18  2  0
 21 11  1  0
 24 15  1  0
  2  3  1  0
  4 19  1  0
  5 20  1  0
 11 22  1  0
 12 13  1  0
 14 23  1  0
 15 25  1  0
 16 17  1  0
 18 26  1  0
M  END
>  <rmsd>  (1) 
0.239778891

$$$$
