MolPort-008-373-247 55271854 CSSS00159787734 MCULE-2691739268 PubChem-46992885 ZINC000055271854 ZINC55271854
     RDKit          3D

 22 22  0  0  0  0  0  0  0  0999 V2000
   12.0256   46.8696    4.9773 C   0  0  0  0  0  0  0  0  0  0  0  0
   11.6885   45.5173    4.3772 C   0  0  0  0  0  0  0  0  0  0  0  0
   12.9097   44.9158    3.6994 C   0  0  0  0  0  0  0  0  0  0  0  0
   13.8793   44.3919    4.7047 C   0  0  0  0  0  0  0  0  0  0  0  0
   14.2912   42.7004    6.5871 C   0  0  0  0  0  0  0  0  0  0  0  0
   15.5952   43.1349    6.8704 C   0  0  0  0  0  0  0  0  0  0  0  0
   16.3430   42.5176    7.8770 C   0  0  0  0  0  0  0  0  0  0  0  0
   15.7938   41.4588    8.6077 C   0  0  0  0  0  0  0  0  0  0  0  0
   16.5860   40.8103    9.6933 C   0  0  0  0  0  0  0  0  0  0  0  0
   16.3751   41.5071   11.0017 C   0  0  0  0  0  0  0  0  0  0  0  0
   15.1650   39.5074   12.0046 C   0  0  1  0  0  0  0  0  0  0  0  0
   15.0516   38.8831   13.3972 C   0  0  0  0  0  0  0  0  0  0  0  0
   13.8574   39.4817   11.2001 C   0  0  0  0  0  0  0  0  0  0  0  0
   12.7438   40.2956   11.8387 C   0  0  0  0  0  0  0  0  0  0  0  0
   13.3925   38.0601   10.9455 C   0  0  0  0  0  0  0  0  0  0  0  0
   14.4933   41.0251    8.3317 C   0  0  0  0  0  0  0  0  0  0  0  0
   13.7467   41.6435    7.3248 C   0  0  0  0  0  0  0  0  0  0  0  0
   15.0290   44.9013    4.7727 O   0  0  0  0  0  0  0  0  0  0  0  0
   16.8079   42.6791   11.1568 O   0  0  0  0  0  0  0  0  0  0  0  0
   14.3242   39.7041   14.2617 O   0  0  0  0  0  0  0  0  0  0  0  0
   13.4929   43.3103    5.5638 N   0  0  0  0  0  0  0  0  0  0  0  0
   15.7094   40.8581   12.0881 N   0  0  0  0  0  0  0  0  0  0  0  0
  1  2  1  0
  2  3  1  0
  3  4  1  0
  4 21  1  0
  6  7  2  0
  8 16  2  0
  9  8  1  0
  9 10  1  0
 10 22  1  0
 11 22  1  0
 11 12  1  1
 11 13  1  0
 12 20  1  0
 13 14  1  0
 13 15  1  0
 17  5  2  0
 21  5  1  0
  4 18  2  0
  5  6  1  0
  7  8  1  0
 10 19  2  0
 16 17  1  0
M  END
>  <rmsd>  (1) 
0.240819708

$$$$
