MolPort-006-579-806 ChemDiv-V016-7939 MCULE-7327860342 PubChem-46040770 ZINC37544436
     RDKit          3D

 33 36  0  0  0  0  0  0  0  0999 V2000
    8.0059   41.0044   13.1483 F   0  0  0  0  0  0  0  0  0  0  0  0
    9.5051   40.4902    7.8717 F   0  0  0  0  0  0  0  0  0  0  0  0
    8.3761   40.8733   11.8520 C   0  0  0  0  0  0  0  0  0  0  0  0
    9.1571   39.7843   11.4551 C   0  0  0  0  0  0  0  0  0  0  0  0
    9.5401   39.6430   10.1161 C   0  0  0  0  0  0  0  0  0  0  0  0
   10.4026   38.4893    9.7168 C   0  0  0  0  0  0  0  0  0  0  0  0
   12.3708   38.5887   11.2780 C   0  0  0  0  0  0  0  0  0  0  0  0
   13.3302   39.7143   11.6434 C   0  0  0  0  0  0  0  0  0  0  0  0
   14.4154   39.7879   10.5773 C   0  0  0  0  0  0  0  0  0  0  0  0
   12.6026   39.4090    8.9145 C   0  0  0  0  0  0  0  0  0  0  0  0
   14.4285   41.1017    8.4374 C   0  0  0  0  0  0  0  0  0  0  0  0
   15.7535   41.5089    8.6645 C   0  0  0  0  0  0  0  0  0  0  0  0
   16.3391   42.5012    7.8754 C   0  0  0  0  0  0  0  0  0  0  0  0
   15.6043   43.1021    6.8518 C   0  0  0  0  0  0  0  0  0  0  0  0
   14.2785   42.7158    6.6114 C   0  0  0  0  0  0  0  0  0  0  0  0
   13.8971   44.3541    4.6775 C   0  0  0  0  0  0  0  0  0  0  0  0
   12.9470   44.8350    3.6407 C   0  0  0  0  0  0  0  0  0  0  0  0
   10.9987   46.3512    3.4945 C   0  0  0  0  0  0  0  0  0  0  0  0
   10.8105   46.0847    2.1279 C   0  0  0  0  0  0  0  0  0  0  0  0
    9.7714   46.7029    1.4264 C   0  0  0  0  0  0  0  0  0  0  0  0
    8.9154   47.5905    2.0844 C   0  0  0  0  0  0  0  0  0  0  0  0
    9.0991   47.8602    3.4432 C   0  0  0  0  0  0  0  0  0  0  0  0
   10.1375   47.2412    4.1456 C   0  0  0  0  0  0  0  0  0  0  0  0
   13.7019   41.7205    7.4062 C   0  0  0  0  0  0  0  0  0  0  0  0
    9.1441   40.6054    9.1738 C   0  0  0  0  0  0  0  0  0  0  0  0
    8.3630   41.6940    9.5747 C   0  0  0  0  0  0  0  0  0  0  0  0
    7.9790   41.8281   10.9120 C   0  0  0  0  0  0  0  0  0  0  0  0
   11.8068   38.8047    9.9471 N   0  0  0  0  0  0  0  0  0  0  0  0
   13.8248   40.0880    9.2708 N   0  0  0  0  0  0  0  0  0  0  0  0
   13.4916   43.3078    5.5689 N   0  0  0  0  0  0  0  0  0  0  0  0
   12.2234   39.3534    7.7126 O   0  0  0  0  0  0  0  0  0  0  0  0
   15.0304   44.8947    4.7752 O   0  0  0  0  0  0  0  0  0  0  0  0
   12.0264   45.7478    4.2241 O   0  0  0  0  0  0  0  0  0  0  0  0
  3  1  1  0
  4  5  2  0
  6  5  1  0
  6 28  1  0
  7 28  1  0
  7  8  1  0
  8  9  1  0
  9 29  1  0
 10 28  1  0
 12 13  2  0
 14 15  2  0
 15 30  1  0
 17 16  1  0
 17 33  1  0
 18 33  1  0
 19 20  2  0
 21 22  2  0
 23 18  2  0
 24 11  2  0
 25  2  1  0
 25 26  2  0
 27  3  2  0
 29 10  1  0
 29 11  1  0
 30 16  1  0
  3  4  1  0
  5 25  1  0
 10 31  2  0
 11 12  1  0
 13 14  1  0
 15 24  1  0
 16 32  2  0
 18 19  1  0
 20 21  1  0
 22 23  1  0
 26 27  1  0
M  END
>  <rmsd>  (1) 
0.247720554

$$$$
