MolPort-008-321-378 36354451 CSSS00160725062 LN00875969 MCULE-2342485604 PubChem-45491543 ZINC000036354451 ZINC36354451
     RDKit          3D

 33 37  0  0  0  0  0  0  0  0999 V2000
    8.2919   46.4740    6.1951 C   0  0  0  0  0  0  0  0  0  0  0  0
    9.5252   46.1836    4.0679 C   0  0  0  0  0  0  0  0  0  0  0  0
   10.7056   45.7869    3.4189 C   0  0  0  0  0  0  0  0  0  0  0  0
   12.9876   44.8426    3.6023 C   0  0  0  0  0  0  0  0  0  0  0  0
   13.9049   44.3672    4.6718 C   0  0  0  0  0  0  0  0  0  0  0  0
   14.2264   42.7462    6.6317 C   0  0  0  0  0  0  0  0  0  0  0  0
   15.5288   43.1651    6.9372 C   0  0  0  0  0  0  0  0  0  0  0  0
   16.2228   42.5897    8.0035 C   0  0  0  0  0  0  0  0  0  0  0  0
   15.6191   41.5920    8.7721 C   0  0  0  0  0  0  0  0  0  0  0  0
   14.3153   41.1569    8.4827 C   0  0  0  0  0  0  0  0  0  0  0  0
   13.6304   41.7457    7.4059 C   0  0  0  0  0  0  0  0  0  0  0  0
   14.3979   39.5702   10.4359 C   0  0  0  0  0  0  0  0  0  0  0  0
   13.5118   38.6716   11.2945 C   0  0  0  0  0  0  0  0  0  0  0  0
   12.5228   39.4949   12.1144 C   0  0  0  0  0  0  0  0  0  0  0  0
   11.3697   40.2758    9.9527 C   0  0  0  0  0  0  0  0  0  0  0  0
   12.3273   39.6958    8.9650 C   0  0  0  0  0  0  0  0  0  0  0  0
    9.7258   41.3474   10.7387 C   0  0  0  0  0  0  0  0  0  0  0  0
    8.5800   42.1144   10.9346 C   0  0  0  0  0  0  0  0  0  0  0  0
    8.1845   42.3615   12.2629 C   0  0  0  0  0  0  0  0  0  0  0  0
    8.9338   41.8461   13.3441 C   0  0  0  0  0  0  0  0  0  0  0  0
   10.0884   41.0758   13.1114 C   0  0  0  0  0  0  0  0  0  0  0  0
   10.4496   40.8499   11.7831 C   0  0  0  0  0  0  0  0  0  0  0  0
   10.7911   45.8742    2.0193 C   0  0  0  0  0  0  0  0  0  0  0  0
    9.7111   46.3497    1.2729 C   0  0  0  0  0  0  0  0  0  0  0  0
    8.5372   46.7424    1.9176 C   0  0  0  0  0  0  0  0  0  0  0  0
    8.4436   46.6600    3.3087 C   0  0  0  0  0  0  0  0  0  0  0  0
    9.4483   46.0928    5.4620 O   0  0  0  0  0  0  0  0  0  0  0  0
   11.7743   45.3043    4.1819 O   0  0  0  0  0  0  0  0  0  0  0  0
   15.0448   44.8894    4.7817 O   0  0  0  0  0  0  0  0  0  0  0  0
   13.4795   43.3152    5.5480 N   0  0  0  0  0  0  0  0  0  0  0  0
   13.6889   40.1305    9.2782 N   0  0  0  0  0  0  0  0  0  0  0  0
   11.4951   40.1601   11.3050 N   0  0  0  0  0  0  0  0  0  0  0  0
   10.2869   40.9999    9.5667 N   0  0  0  0  0  0  0  0  0  0  0  0
  1 27  1  0
  2 27  1  0
  3 28  1  0
  3 23  2  0
  4 28  1  0
  4  5  1  0
  5 30  1  0
  7  8  2  0
  9 10  2  0
 10 31  1  0
 11  6  2  0
 12 31  1  0
 12 13  1  0
 13 14  1  0
 14 32  1  0
 16 15  1  0
 16 31  1  0
 17 33  1  0
 18 19  2  0
 20 21  2  0
 22 17  2  0
 22 32  1  0
 24 25  2  0
 26  2  2  0
 30  6  1  0
 32 15  1  0
  2  3  1  0
  5 29  2  0
  6  7  1  0
  8  9  1  0
 10 11  1  0
 15 33  2  0
 17 18  1  0
 19 20  1  0
 21 22  1  0
 23 24  1  0
 25 26  1  0
M  END
>  <rmsd>  (1) 
0.231702745

$$$$
