MolPort-001-009-502 4703810 CSSS00121621149 MCULE-8687061856 PubChem-2996968 ZINC000004703810 ZINC04703810
     RDKit          3D

 23 24  0  0  0  0  0  0  0  0999 V2000
   10.0702   46.7428   -3.0881 C   0  0  0  0  0  0  0  0  0  0  0  0
   11.0142   46.0363   -2.1336 C   0  0  0  0  0  0  0  0  0  0  0  0
   11.7050   47.0430   -1.2277 C   0  0  0  0  0  0  0  0  0  0  0  0
   10.7522   47.5657   -0.1594 C   0  0  0  0  0  0  0  0  0  0  0  0
   11.2834   46.0225    1.7182 C   0  0  0  0  0  0  0  0  0  0  0  0
   12.5713   46.5528    1.8935 C   0  0  0  0  0  0  0  0  0  0  0  0
   13.4256   46.0225    2.8638 C   0  0  0  0  0  0  0  0  0  0  0  0
   13.0050   44.9571    3.6725 C   0  0  0  0  0  0  0  0  0  0  0  0
   11.7174   44.4314    3.4967 C   0  0  0  0  0  0  0  0  0  0  0  0
   10.8629   44.9617    2.5261 C   0  0  0  0  0  0  0  0  0  0  0  0
   13.9048   44.3966    4.6961 C   0  0  0  0  0  0  0  0  0  0  0  0
   14.2403   42.6813    6.5401 C   0  0  0  0  0  0  0  0  0  0  0  0
   14.7943   40.3855    9.1291 C   0  0  0  0  0  0  0  0  0  0  0  0
   14.2675   40.9838   10.4222 C   0  0  0  0  0  0  0  0  0  0  0  0
   14.2332   39.9328   11.5172 C   0  0  0  0  0  0  0  0  0  0  0  0
   13.0660   38.9867   11.3069 C   0  0  0  0  0  0  0  0  0  0  0  0
   10.4022   46.5323    0.7579 O   0  0  0  0  0  0  0  0  0  0  0  0
   15.0613   44.8776    4.8458 O   0  0  0  0  0  0  0  0  0  0  0  0
   13.4613   43.3074    5.5162 N   0  0  0  0  0  0  0  0  0  0  0  0
   13.7884   41.6616    7.2923 N   0  0  0  0  0  0  0  0  0  0  0  0
   14.8094   41.3984    8.0889 N   0  0  0  0  0  0  0  0  0  0  0  0
   15.8260   42.2108    7.8560 N   0  0  0  0  0  0  0  0  0  0  0  0
   15.4982   43.0356    6.8745 N   0  0  0  0  0  0  0  0  0  0  0  0
  1  2  1  0
  2  3  1  0
  3  4  1  0
  4 17  1  0
  5 17  1  0
  6  7  2  0
  8  9  2  0
  8 11  1  0
 10  5  2  0
 11 19  1  0
 12 23  1  0
 13 21  1  0
 13 14  1  0
 14 15  1  0
 15 16  1  0
 19 12  1  0
 21 20  1  0
 21 22  1  0
  5  6  1  0
  7  8  1  0
  9 10  1  0
 11 18  2  0
 12 20  2  0
 22 23  2  0
M  END
>  <rmsd>  (1) 
0.23542197

$$$$
