MolPort-007-711-013 ChemDiv-D485-0047 MCULE-7198466673 PubChem-46269987
     RDKit          3D

 32 36  0  0  0  0  0  0  0  0999 V2000
   13.3434   39.2161   11.2121 C   0  0  0  0  0  0  0  0  0  0  0  0
   12.1700   39.8119    9.1128 C   0  0  0  0  0  0  0  0  0  0  0  0
   11.8424   40.7914    8.1496 C   0  0  0  0  0  0  0  0  0  0  0  0
   11.0453   40.4446    7.0525 C   0  0  0  0  0  0  0  0  0  0  0  0
   10.5643   39.1418    6.9085 C   0  0  0  0  0  0  0  0  0  0  0  0
   10.8809   38.1720    7.8606 C   0  0  0  0  0  0  0  0  0  0  0  0
   11.6798   38.5044    8.9564 C   0  0  0  0  0  0  0  0  0  0  0  0
   12.3468   42.2117    8.2329 C   0  0  2  0  0  0  0  0  0  0  0  0
   12.5561   44.2259    9.5166 C   0  0  0  0  0  0  0  0  0  0  0  0
   12.1327   44.9729   10.7928 C   0  0  0  0  0  0  0  0  0  0  0  0
   10.3303   43.6368   11.0820 C   0  0  0  0  0  0  0  0  0  0  0  0
   10.6581   42.8238    9.8182 C   0  0  0  0  0  0  0  0  0  0  0  0
   13.8001   42.2519    7.8478 C   0  0  0  0  0  0  0  0  0  0  0  0
   14.3030   42.7814    6.6686 C   0  0  0  0  0  0  0  0  0  0  0  0
   13.9635   44.2307    4.5961 C   0  0  0  0  0  0  0  0  0  0  0  0
   13.1443   44.4518    3.4004 C   0  0  0  0  0  0  0  0  0  0  0  0
   13.4394   45.3262    2.3757 C   0  0  0  0  0  0  0  0  0  0  0  0
   12.3910   45.1903    1.4826 C   0  0  0  0  0  0  0  0  0  0  0  0
   11.5323   44.2468    2.0206 C   0  0  0  0  0  0  0  0  0  0  0  0
   15.6668   42.5744    6.7240 C   0  0  0  0  0  0  0  0  0  0  0  0
   16.6924   42.8209    5.8129 C   0  0  0  0  0  0  0  0  0  0  0  0
   17.9973   42.4512    6.1842 C   0  0  0  0  0  0  0  0  0  0  0  0
   18.2426   41.8408    7.4332 C   0  0  0  0  0  0  0  0  0  0  0  0
   17.1852   41.5834    8.3240 C   0  0  0  0  0  0  0  0  0  0  0  0
   15.9032   41.9592    7.9302 C   0  0  0  0  0  0  0  0  0  0  0  0
   12.9728   40.1510   10.2084 O   0  0  0  0  0  0  0  0  0  0  0  0
   11.5042   44.1031   11.7046 O   0  0  0  0  0  0  0  0  0  0  0  0
   15.0248   44.8896    4.7604 O   0  0  0  0  0  0  0  0  0  0  0  0
   12.0171   43.8302    3.1653 O   0  0  0  0  0  0  0  0  0  0  0  0
   14.7836   41.7760    8.5906 O   0  0  0  0  0  0  0  0  0  0  0  0
   12.1042   42.8265    9.5496 N   0  0  0  0  0  0  0  0  0  0  0  0
   13.5156   43.3059    5.5919 N   0  0  0  0  0  0  0  0  0  0  0  0
  1 26  1  0
  2 26  1  0
  3  4  2  0
  5  6  2  0
  7  2  2  0
  8  3  1  0
  8 31  1  1
  8 13  1  0
  9 31  1  0
  9 10  1  0
 10 27  1  0
 11 27  1  0
 11 12  1  0
 12 31  1  0
 13 30  1  0
 14 32  1  0
 14 20  1  0
 15 16  1  0
 16 29  1  0
 17 18  1  0
 19 29  1  0
 21 22  2  0
 23 24  2  0
 25 30  1  0
 25 20  2  0
 32 15  1  0
  2  3  1  0
  4  5  1  0
  6  7  1  0
 13 14  2  0
 15 28  2  0
 16 17  2  0
 18 19  2  0
 20 21  1  0
 22 23  1  0
 24 25  1  0
M  END
>  <rmsd>  (1) 
0.15492186

$$$$
