MolPort-035-706-972 CSSS03437789227 MCULE-3011014739 PubChem-91938297
     RDKit          3D

 28 30  0  0  0  0  0  0  0  0999 V2000
   13.5517   35.8931    6.9028 C   0  0  0  0  0  0  0  0  0  0  0  0
   14.7408   36.2466    7.7713 C   0  0  0  0  0  0  0  0  0  0  0  0
   14.5403   37.8297    9.6476 C   0  0  0  0  0  0  0  0  0  0  0  0
   14.3936   39.2502   10.1216 C   0  0  1  0  0  0  0  0  0  0  0  0
   13.4965   39.2985   11.3504 C   0  0  0  0  0  0  0  0  0  0  0  0
   14.3485   41.0559    8.3699 C   0  0  0  0  0  0  0  0  0  0  0  0
   13.6464   41.6709    7.3291 C   0  0  0  0  0  0  0  0  0  0  0  0
   14.2286   42.7124    6.5979 C   0  0  0  0  0  0  0  0  0  0  0  0
   13.9027   44.3819    4.6805 C   0  0  0  0  0  0  0  0  0  0  0  0
   12.9884   44.8695    3.6147 C   0  0  0  0  0  0  0  0  0  0  0  0
   11.9497   44.7768    1.2262 C   0  0  0  0  0  0  0  0  0  0  0  0
   12.3113   45.8981    0.4718 C   0  0  0  0  0  0  0  0  0  0  0  0
   11.3363   46.6115   -0.2323 C   0  0  0  0  0  0  0  0  0  0  0  0
    9.9999   46.2024   -0.1846 C   0  0  0  0  0  0  0  0  0  0  0  0
    9.6383   45.0795    0.5662 C   0  0  0  0  0  0  0  0  0  0  0  0
   10.6130   44.3659    1.2704 C   0  0  0  0  0  0  0  0  0  0  0  0
   15.5269   43.1366    6.9216 C   0  0  0  0  0  0  0  0  0  0  0  0
   16.2306   42.5263    7.9634 C   0  0  0  0  0  0  0  0  0  0  0  0
   15.6408   41.4864    8.6857 C   0  0  0  0  0  0  0  0  0  0  0  0
   15.7599   39.7929   10.4908 C   0  0  0  0  0  0  0  0  0  0  0  0
   14.5833   37.5638    8.2767 O   0  0  0  0  0  0  0  0  0  0  0  0
   14.6803   36.8917   10.4817 O   0  0  0  0  0  0  0  0  0  0  0  0
   13.7506   40.0164    9.0903 O   0  0  0  0  0  0  0  0  0  0  0  0
   15.0479   44.8935    4.7937 O   0  0  0  0  0  0  0  0  0  0  0  0
   16.4054   39.2817   11.4453 O   0  0  0  0  0  0  0  0  0  0  0  0
   13.4752   43.3148    5.5369 N   0  0  0  0  0  0  0  0  0  0  0  0
   16.3450   40.8675    9.7556 N   0  0  0  0  0  0  0  0  0  0  0  0
   13.1969   43.8596    2.1191 S   0  0  0  0  0  0  0  0  0  0  0  0
  1  2  1  0
  2 21  1  0
  3 21  1  0
  4  3  1  0
  4  5  1  1
  4 23  1  0
  4 20  1  0
  6 23  1  0
  7  8  2  0
  8 26  1  0
 10  9  1  0
 10 28  1  0
 11 28  1  0
 12 13  2  0
 14 15  2  0
 16 11  2  0
 17 18  2  0
 19 27  1  0
 19  6  2  0
 26  9  1  0
 27 20  1  0
  3 22  2  0
  6  7  1  0
  8 17  1  0
  9 24  2  0
 11 12  1  0
 13 14  1  0
 15 16  1  0
 18 19  1  0
 20 25  2  0
M  END
>  <rmsd>  (1) 
0.231915981

$$$$
