MolPort-007-723-532 ChemDiv-E157-6122 MCULE-1436261333 PubChem-22518072 ZINC000009405017 ZINC09405017
     RDKit          3D

 29 31  0  0  0  0  0  0  0  0999 V2000
   13.5302   39.3463   11.2910 C   0  0  0  0  0  0  0  0  0  0  0  0
   13.8511   41.8252   11.5809 C   0  0  0  0  0  0  0  0  0  0  0  0
   12.7825   41.8719   12.4925 C   0  0  0  0  0  0  0  0  0  0  0  0
   12.4045   43.0792   13.0868 C   0  0  0  0  0  0  0  0  0  0  0  0
   11.2718   43.1111   14.0479 C   0  0  0  0  0  0  0  0  0  0  0  0
   13.0909   44.2553   12.7768 C   0  0  0  0  0  0  0  0  0  0  0  0
   14.1552   44.2240   11.8730 C   0  0  0  0  0  0  0  0  0  0  0  0
   14.5324   43.0163   11.2795 C   0  0  0  0  0  0  0  0  0  0  0  0
   15.1590   41.5190    8.4362 C   0  0  0  0  0  0  0  0  0  0  0  0
   14.2461   42.7360    6.5965 C   0  0  0  0  0  0  0  0  0  0  0  0
   13.9144   44.3562    4.6722 C   0  0  0  0  0  0  0  0  0  0  0  0
   13.0041   44.8618    3.6117 C   0  0  0  0  0  0  0  0  0  0  0  0
   11.0902   46.4164    3.4202 C   0  0  0  0  0  0  0  0  0  0  0  0
   10.2033   47.2891    4.0601 C   0  0  0  0  0  0  0  0  0  0  0  0
    9.2114   47.9495    3.3286 C   0  0  0  0  0  0  0  0  0  0  0  0
    9.1020   47.7404    1.9510 C   0  0  0  0  0  0  0  0  0  0  0  0
    9.9839   46.8704    1.3041 C   0  0  0  0  0  0  0  0  0  0  0  0
   10.9753   46.2097    2.0353 C   0  0  0  0  0  0  0  0  0  0  0  0
   14.2362   40.5785   10.9671 N   0  0  0  0  0  0  0  0  0  0  0  0
   16.0208   42.4226    7.9214 N   0  0  0  0  0  0  0  0  0  0  0  0
   15.5131   43.1009    6.8943 N   0  0  0  0  0  0  0  0  0  0  0  0
   13.4697   43.3090    5.5403 N   0  0  0  0  0  0  0  0  0  0  0  0
   15.5294   40.4951    9.8082 S   0  0  0  0  0  0  0  0  0  0  0  0
   13.6853   41.5249    7.6206 S   0  0  0  0  0  0  0  0  0  0  0  0
   16.8069   40.9499   10.4567 O   0  0  0  0  0  0  0  0  0  0  0  0
   15.7040   39.0816    9.3270 O   0  0  0  0  0  0  0  0  0  0  0  0
   15.0521   44.8781    4.8122 O   0  0  0  0  0  0  0  0  0  0  0  0
   12.0705   45.7714    4.1787 O   0  0  0  0  0  0  0  0  0  0  0  0
    8.1400   48.3793    1.2435 F   0  0  0  0  0  0  0  0  0  0  0  0
  1 19  1  0
  3  4  2  0
  5  4  1  0
  6  7  2  0
  8  2  2  0
  9 24  1  0
 10 22  1  0
 10 24  1  0
 12 11  1  0
 12 28  1  0
 13 28  1  0
 14 15  2  0
 16 29  1  0
 16 17  2  0
 18 13  2  0
 19  2  1  0
 20 21  1  0
 22 11  1  0
 23 19  1  0
 23  9  1  0
  2  3  1  0
  4  6  1  0
  7  8  1  0
  9 20  2  0
 10 21  2  0
 11 27  2  0
 13 14  1  0
 15 16  1  0
 17 18  1  0
 23 25  2  0
 23 26  2  0
M  END
>  <rmsd>  (1) 
0.192907065

$$$$
