MolPort-020-275-226 CHEMBL3449729 MCULE-7637418685 PubChem-110252903
     RDKit          3D

 23 25  0  0  0  0  0  0  0  0999 V2000
   12.5097   37.0714    9.1937 S   0  0  0  0  0  0  0  0  0  0  0  0
   12.8070   36.6316    7.7877 O   0  0  0  0  0  0  0  0  0  0  0  0
   11.4380   38.1255    9.1646 O   0  0  0  0  0  0  0  0  0  0  0  0
   13.9666   37.6845    9.9289 N   0  0  0  0  0  0  0  0  0  0  0  0
   13.6993   41.7316    7.4121 N   0  0  0  0  0  0  0  0  0  0  0  0
   13.4591   43.2788    5.5821 N   0  0  0  0  0  0  0  0  0  0  0  0
   15.0654   44.9198    4.7578 N   0  0  0  0  0  0  0  0  0  0  0  0
   16.2229   42.6109    7.9701 N   0  0  0  0  0  0  0  0  0  0  0  0
   14.5464   38.7748    9.1304 C   0  0  0  0  0  0  0  0  0  0  0  0
   13.7478   40.0780    9.2406 C   0  0  2  0  0  0  0  0  0  0  0  0
   14.3867   41.1672    8.4402 C   0  0  0  0  0  0  0  0  0  0  0  0
   14.2359   42.7241    6.6531 C   0  0  0  0  0  0  0  0  0  0  0  0
   13.8434   44.3217    4.6761 C   0  0  0  0  0  0  0  0  0  0  0  0
   15.4380   45.9098    3.9024 C   0  0  0  0  0  0  0  0  0  0  0  0
   14.5602   46.3404    2.9060 C   0  0  0  0  0  0  0  0  0  0  0  0
   13.3033   45.7431    2.8025 C   0  0  0  0  0  0  0  0  0  0  0  0
   12.9403   44.7287    3.6902 C   0  0  0  0  0  0  0  0  0  0  0  0
   15.5310   43.1714    6.9440 C   0  0  0  0  0  0  0  0  0  0  0  0
   15.6812   41.6198    8.7244 C   0  0  0  0  0  0  0  0  0  0  0  0
   13.5989   40.4848   10.6998 C   0  0  0  0  0  0  0  0  0  0  0  0
   12.9230   39.3602   11.4645 C   0  0  0  0  0  0  0  0  0  0  0  0
   13.7400   38.0738   11.3296 C   0  0  0  0  0  0  0  0  0  0  0  0
   11.9211   35.6704   10.1173 C   0  0  0  0  0  0  0  0  0  0  0  0
  1  4  1  0
  1 23  1  0
  6 13  1  0
  9  4  1  0
  9 10  1  0
 10 11  1  6
 10 20  1  0
 12  5  2  0
 12  6  1  0
 14  7  2  0
 15 16  2  0
 17 13  2  0
 18  8  2  0
 19 11  2  0
 20 21  1  0
 21 22  1  0
 22  4  1  0
  1  2  2  0
  1  3  2  0
 11  5  1  0
 12 18  1  0
 13  7  1  0
 14 15  1  0
 16 17  1  0
 19  8  1  0
M  END
>  <rmsd>  (1) 
0.244490311

$$$$
