MolPort-039-218-911 299761789 MCULE-6935341986 ZINC000299761789
     RDKit          3D

 23 25  0  0  0  0  0  0  0  0999 V2000
   17.5168   44.5804    0.2779 N   0  0  0  0  0  0  0  0  0  0  0  0
   15.7419   45.4309    1.7142 N   0  0  0  0  0  0  0  0  0  0  0  0
   13.0603   44.8060    3.5957 N   0  0  0  0  0  0  0  0  0  0  0  0
   13.4676   43.3215    5.5219 N   0  0  0  0  0  0  0  0  0  0  0  0
   14.0327   44.4909    0.6033 N   0  0  0  0  0  0  0  0  0  0  0  0
   15.1406   44.1483   -0.0304 N   0  0  0  0  0  0  0  0  0  0  0  0
   16.1503   44.7197    0.6473 C   0  0  0  0  0  0  0  0  0  0  0  0
   14.4069   45.2631    1.6405 C   0  0  0  0  0  0  0  0  0  0  0  0
   13.4501   45.8279    2.6342 C   0  0  0  0  0  0  0  0  0  0  0  0
   13.9205   44.3621    4.6468 C   0  0  0  0  0  0  0  0  0  0  0  0
   14.1913   42.7436    6.6169 C   0  0  0  0  0  0  0  0  0  0  0  0
   15.4894   43.1578    6.9512 C   0  0  0  0  0  0  0  0  0  0  0  0
   16.1643   42.5703    8.0239 C   0  0  0  0  0  0  0  0  0  0  0  0
   15.5459   41.5644    8.7699 C   0  0  0  0  0  0  0  0  0  0  0  0
   14.2468   41.1416    8.4463 C   0  0  0  0  0  0  0  0  0  0  0  0
   14.1744   39.5014   10.3094 C   0  0  0  0  0  0  0  0  0  0  0  0
   14.0493   40.3997   11.5316 C   0  0  0  0  0  0  0  0  0  0  0  0
   13.0969   39.7075   12.4827 C   0  0  0  0  0  0  0  0  0  0  0  0
   13.1482   38.2463   12.1080 C   0  0  0  0  0  0  0  0  0  0  0  0
   13.4055   38.2308   10.6186 C   0  0  0  0  0  0  0  0  0  0  0  0
   13.5798   41.7350    7.3696 C   0  0  0  0  0  0  0  0  0  0  0  0
   15.0570   44.8869    4.7978 O   0  0  0  0  0  0  0  0  0  0  0  0
   13.5999   40.1350    9.1714 O   0  0  0  0  0  0  0  0  0  0  0  0
  1  7  1  0
  3 10  1  0
  4 11  1  0
  6  5  1  0
  6  7  1  0
  8  2  1  0
  9  8  1  0
  9  3  1  0
 10  4  1  0
 12 13  2  0
 14 15  2  0
 15 23  1  0
 16 23  1  0
 16 17  1  0
 17 18  1  0
 18 19  1  0
 19 20  1  0
 20 16  1  0
 21 11  2  0
  7  2  2  0
  8  5  2  0
 10 22  2  0
 11 12  1  0
 13 14  1  0
 15 21  1  0
M  END
>  <rmsd>  (1) 
0.24952279

$$$$
