MolPort-019-918-975 13789330 CSSS03437095136 FBLDHJSKAPTCBK-UHFFFAOYSA-N MCULE-1365347121 PubChem-49698053 ZINC000013789330
     RDKit          3D

 30 33  0  0  0  0  0  0  0  0999 V2000
   16.4568   41.0447    9.7705 N   0  0  0  0  0  0  0  0  0  0  0  0
   13.4781   43.3141    5.5403 N   0  0  0  0  0  0  0  0  0  0  0  0
   10.1460   45.2915    2.9039 N   0  0  0  0  0  0  0  0  0  0  0  0
   16.4795   39.7254   10.3896 C   0  0  0  0  0  0  0  0  0  0  0  0
   15.3705   39.5942   11.4228 C   0  0  0  0  0  0  0  0  0  0  0  0
   14.0230   39.4451   10.7437 C   0  0  0  0  0  0  0  0  0  0  0  0
   12.9371   39.3463   11.7934 C   0  0  0  0  0  0  0  0  0  0  0  0
   15.7026   41.4398    8.6209 C   0  0  0  0  0  0  0  0  0  0  0  0
   15.0352   40.6463    7.6876 C   0  0  0  0  0  0  0  0  0  0  0  0
   14.3098   41.3033    6.6672 C   0  0  0  0  0  0  0  0  0  0  0  0
   14.2567   42.7198    6.5868 C   0  0  0  0  0  0  0  0  0  0  0  0
   14.9114   43.4911    7.5811 C   0  0  0  0  0  0  0  0  0  0  0  0
   14.8556   44.8936    7.7149 C   0  0  0  0  0  0  0  0  0  0  0  0
   15.5147   45.5309    8.7979 C   0  0  0  0  0  0  0  0  0  0  0  0
   16.2220   44.7792    9.7652 C   0  0  0  0  0  0  0  0  0  0  0  0
   16.2572   43.3951    9.6006 C   0  0  0  0  0  0  0  0  0  0  0  0
   15.6230   42.8014    8.5490 C   0  0  0  0  0  0  0  0  0  0  0  0
   16.7877   42.2929   10.4002 C   0  0  0  0  0  0  0  0  0  0  0  0
   13.8532   44.4736    4.7861 C   0  0  0  0  0  0  0  0  0  0  0  0
   12.8488   45.1644    3.9270 C   0  0  0  0  0  0  0  0  0  0  0  0
   11.6829   45.6745    4.7720 C   0  0  0  0  0  0  0  0  0  0  0  0
   10.6238   46.2900    3.8614 C   0  0  0  0  0  0  0  0  0  0  0  0
   11.2557   44.9238    2.0231 C   0  0  0  0  0  0  0  0  0  0  0  0
   12.3515   44.2287    2.8268 C   0  0  0  0  0  0  0  0  0  0  0  0
    8.2988   44.8729    0.7430 C   0  0  0  0  0  0  0  0  0  0  0  0
   17.4017   42.3997   11.4944 O   0  0  0  0  0  0  0  0  0  0  0  0
   15.0416   44.8912    4.7990 O   0  0  0  0  0  0  0  0  0  0  0  0
    9.4966   47.2278    1.1985 O   0  0  0  0  0  0  0  0  0  0  0  0
    7.7906   46.4988    2.8023 O   0  0  0  0  0  0  0  0  0  0  0  0
    8.9246   46.0430    1.9274 S   0  0  0  0  0  0  0  0  0  0  0  0
  1  8  1  0
  2 19  1  0
  4  1  1  0
  4  5  1  0
  5  6  1  0
  6  7  1  0
  9 10  2  0
 11 12  2  0
 11  2  1  0
 13 14  2  0
 15 16  2  0
 16 18  1  0
 17  8  2  0
 17 12  1  0
 18  1  1  0
 20 19  1  0
 20 21  1  0
 21 22  1  0
 22  3  1  0
 23  3  1  0
 23 24  1  0
 24 20  1  0
 30  3  1  0
 30 25  1  0
  8  9  1  0
 10 11  1  0
 12 13  1  0
 14 15  1  0
 16 17  1  0
 18 26  2  0
 19 27  2  0
 30 28  2  0
 30 29  2  0
M  END
>  <rmsd>  (1) 
0.242982194

$$$$
