MolPort-005-289-767 49938002 CSSS00160680064 ChemDiv-8020-2583 LN00787752 MCULE-7315426399 PubChem-16644481 ZINC000049938002
     RDKit          3D

 21 22  0  0  0  0  0  0  0  0999 V2000
   16.4319   41.1248   12.0967 C   0  0  0  0  0  0  0  0  0  0  0  0
   15.0848   41.5705   11.5258 C   0  0  0  0  0  0  0  0  0  0  0  0
   14.2779   39.3292   11.2589 C   0  0  0  0  0  0  0  0  0  0  0  0
   12.8663   39.2728   11.8099 C   0  0  0  0  0  0  0  0  0  0  0  0
   15.4049   40.3751    9.4696 C   0  0  0  0  0  0  0  0  0  0  0  0
   15.1232   41.3443    8.3689 C   0  0  0  0  0  0  0  0  0  0  0  0
   15.9966   42.3116    7.8807 C   0  0  0  0  0  0  0  0  0  0  0  0
   17.3706   42.5250    8.4140 C   0  0  0  0  0  0  0  0  0  0  0  0
   14.2404   42.7007    6.5451 C   0  0  0  0  0  0  0  0  0  0  0  0
   13.9033   44.3978    4.6831 C   0  0  0  0  0  0  0  0  0  0  0  0
   13.0024   44.9447    3.6532 C   0  0  0  0  0  0  0  0  0  0  0  0
   11.7160   44.4125    3.4819 C   0  0  0  0  0  0  0  0  0  0  0  0
   10.8605   44.9307    2.5051 C   0  0  0  0  0  0  0  0  0  0  0  0
   11.2851   45.9851    1.6923 C   0  0  0  0  0  0  0  0  0  0  0  0
   12.5651   46.5216    1.8561 C   0  0  0  0  0  0  0  0  0  0  0  0
   13.4206   46.0035    2.8329 C   0  0  0  0  0  0  0  0  0  0  0  0
   14.4961   40.6041   10.5874 N   0  0  0  0  0  0  0  0  0  0  0  0
   15.5021   43.0673    6.8651 N   0  0  0  0  0  0  0  0  0  0  0  0
   13.4623   43.3159    5.5142 N   0  0  0  0  0  0  0  0  0  0  0  0
   15.0581   44.8842    4.8286 O   0  0  0  0  0  0  0  0  0  0  0  0
   13.6850   41.4325    7.4989 S   0  0  0  0  0  0  0  0  0  0  0  0
  1  2  1  0
  2 17  1  0
  3 17  1  0
  3  4  1  0
  5 17  1  0
  5  6  1  0
  6 21  1  0
  7 18  1  0
  8  7  1  0
  9 19  1  0
  9 21  1  0
 10 11  1  0
 12 13  2  0
 14 15  2  0
 16 11  2  0
 19 10  1  0
  6  7  2  0
  9 18  2  0
 10 20  2  0
 11 12  1  0
 13 14  1  0
 15 16  1  0
M  END
>  <rmsd>  (1) 
0.234346837

$$$$
