MolPort-003-112-246 8959277 CSSS03437096107 DOMGJBLIFOPKKD-UHFFFAOYSA-N MCULE-7504215690 PubChem-40887173 ZINC000008959277
     RDKit          3D

 27 29  0  0  0  0  0  0  0  0999 V2000
   16.3500   40.9740    9.8813 N   0  0  0  0  0  0  0  0  0  0  0  0
   13.4835   43.3159    5.5510 N   0  0  0  0  0  0  0  0  0  0  0  0
   16.1853   39.5449   10.1574 C   0  0  0  0  0  0  0  0  0  0  0  0
   15.3374   39.2972   11.4031 C   0  0  0  0  0  0  0  0  0  0  0  0
   13.8645   39.5671   11.1479 C   0  0  0  0  0  0  0  0  0  0  0  0
   13.2518   38.4211   10.3660 C   0  0  0  0  0  0  0  0  0  0  0  0
   13.1449   39.7057   12.4724 C   0  0  0  0  0  0  0  0  0  0  0  0
   15.6903   41.5580    8.7400 C   0  0  0  0  0  0  0  0  0  0  0  0
   14.3892   41.1363    8.4240 C   0  0  0  0  0  0  0  0  0  0  0  0
   13.6771   41.7149    7.3741 C   0  0  0  0  0  0  0  0  0  0  0  0
   14.2487   42.7344    6.6153 C   0  0  0  0  0  0  0  0  0  0  0  0
   15.5538   43.1498    6.9040 C   0  0  0  0  0  0  0  0  0  0  0  0
   16.2899   42.5678    7.9418 C   0  0  0  0  0  0  0  0  0  0  0  0
   18.5869   42.3592    8.9039 C   0  0  0  0  0  0  0  0  0  0  0  0
   18.3115   42.5478   10.3881 C   0  0  0  0  0  0  0  0  0  0  0  0
   19.5141   42.0273   11.1524 C   0  0  0  0  0  0  0  0  0  0  0  0
   18.1422   44.0256   10.7065 C   0  0  0  0  0  0  0  0  0  0  0  0
   17.0906   41.7821   10.8120 C   0  0  0  0  0  0  0  0  0  0  0  0
   13.8992   44.3685    4.6689 C   0  0  0  0  0  0  0  0  0  0  0  0
   12.9832   44.8420    3.6254 C   0  0  0  0  0  0  0  0  0  0  0  0
   11.7050   44.3594    3.3912 C   0  0  0  0  0  0  0  0  0  0  0  0
   11.0672   45.0080    2.3237 C   0  0  0  0  0  0  0  0  0  0  0  0
   11.8311   45.9996    1.7120 C   0  0  0  0  0  0  0  0  0  0  0  0
   17.6069   43.0107    8.1058 O   0  0  0  0  0  0  0  0  0  0  0  0
   16.7356   41.8136   12.0225 O   0  0  0  0  0  0  0  0  0  0  0  0
   15.0402   44.8924    4.7790 O   0  0  0  0  0  0  0  0  0  0  0  0
   13.3076   46.0575    2.5164 S   0  0  0  0  0  0  0  0  0  0  0  0
  1  8  1  0
  2 19  1  0
  3  1  1  0
  3  4  1  0
  4  5  1  0
  5  6  1  0
  5  7  1  0
  9 10  2  0
 11 12  2  0
 11  2  1  0
 13 24  1  0
 13  8  2  0
 14 24  1  0
 14 15  1  0
 15 16  1  0
 15 17  1  0
 15 18  1  0
 18  1  1  0
 19 20  1  0
 20 27  1  0
 21 22  1  0
 23 27  1  0
  8  9  1  0
 10 11  1  0
 12 13  1  0
 18 25  2  0
 19 26  2  0
 20 21  2  0
 22 23  2  0
M  END
>  <rmsd>  (1) 
0.230387866

$$$$
