MolPort-020-295-317 MCULE-6072814269 PubChem-110267399
     RDKit          3D

 28 31  0  0  0  0  0  0  0  0999 V2000
   15.0158   47.4369    2.0022 C   0  0  0  0  0  0  0  0  0  0  0  0
   14.5985   46.3519    2.9277 C   0  0  0  0  0  0  0  0  0  0  0  0
   15.4626   45.9090    3.9304 C   0  0  0  0  0  0  0  0  0  0  0  0
   13.8478   44.3263    4.6725 C   0  0  0  0  0  0  0  0  0  0  0  0
   12.9587   44.7464    3.6792 C   0  0  0  0  0  0  0  0  0  0  0  0
   13.3388   45.7650    2.8034 C   0  0  0  0  0  0  0  0  0  0  0  0
   14.2305   42.7317    6.6343 C   0  0  0  0  0  0  0  0  0  0  0  0
   16.2245   42.6674    7.9089 C   0  0  0  0  0  0  0  0  0  0  0  0
   15.7002   41.6471    8.6989 C   0  0  0  0  0  0  0  0  0  0  0  0
   14.4091   41.1852    8.4202 C   0  0  0  0  0  0  0  0  0  0  0  0
   13.7874   40.0916    9.2288 C   0  0  2  0  0  0  0  0  0  0  0  0
   13.6422   40.5035   10.6962 C   0  0  0  0  0  0  0  0  0  0  0  0
   12.9875   39.3829   11.5012 C   0  0  0  0  0  0  0  0  0  0  0  0
   13.8149   38.1065   11.3856 C   0  0  0  0  0  0  0  0  0  0  0  0
   14.5883   38.7942    9.1053 C   0  0  0  0  0  0  0  0  0  0  0  0
   13.6084   36.5029    9.4464 C   0  0  0  0  0  0  0  0  0  0  0  0
   13.0272   35.4479   10.3334 C   0  0  0  0  0  0  0  0  0  0  0  0
   14.1273   34.6560   11.0215 C   0  0  0  0  0  0  0  0  0  0  0  0
   14.7592   33.6567   10.0663 C   0  0  0  0  0  0  0  0  0  0  0  0
   14.8265   32.3278   10.7976 C   0  0  0  0  0  0  0  0  0  0  0  0
   14.3930   32.5974   12.2227 C   0  0  0  0  0  0  0  0  0  0  0  0
   13.5440   33.8439   12.1548 C   0  0  0  0  0  0  0  0  0  0  0  0
   15.0731   44.9151    4.7737 N   0  0  0  0  0  0  0  0  0  0  0  0
   13.4488   43.2803    5.5665 N   0  0  0  0  0  0  0  0  0  0  0  0
   15.4854   43.1893    6.8963 N   0  0  0  0  0  0  0  0  0  0  0  0
   13.7053   41.7364    7.3966 N   0  0  0  0  0  0  0  0  0  0  0  0
   14.0055   37.7768    9.9753 N   0  0  0  0  0  0  0  0  0  0  0  0
   13.7668   36.2487    8.2222 O   0  0  0  0  0  0  0  0  0  0  0  0
  1  2  1  0
  3 23  2  0
  4  5  2  0
  4 24  1  0
  6  2  2  0
  7 26  2  0
  8 25  2  0
  9 10  2  0
 11 10  1  6
 11 12  1  0
 12 13  1  0
 13 14  1  0
 14 27  1  0
 15 27  1  0
 15 11  1  0
 17 16  1  0
 17 18  1  0
 18 19  1  0
 19 20  1  0
 20 21  1  0
 21 22  1  0
 22 18  1  0
 24  7  1  0
 27 16  1  0
  2  3  1  0
  4 23  1  0
  5  6  1  0
  7 25  1  0
  8  9  1  0
 10 26  1  0
 16 28  2  0
M  END
>  <rmsd>  (1) 
0.241119593

$$$$
