MolPort-008-295-419 17030887 CSSS00160395729 ChemDiv-Y200-4684 MCULE-7472541371 PubChem-17349438 ZINC000017030887 ZINC17030887
     RDKit          3D

 22 23  0  0  0  0  0  0  0  0999 V2000
   12.8385   39.2403   11.8309 C   0  0  0  0  0  0  0  0  0  0  0  0
   13.9914   38.9471   10.8939 C   0  0  0  0  0  0  0  0  0  0  0  0
   15.0354   40.7208    9.5408 C   0  0  0  0  0  0  0  0  0  0  0  0
   14.9542   41.6629    8.4064 C   0  0  0  0  0  0  0  0  0  0  0  0
   15.9190   42.5743    7.9910 C   0  0  0  0  0  0  0  0  0  0  0  0
   17.2564   42.7960    8.6090 C   0  0  0  0  0  0  0  0  0  0  0  0
   14.2846   42.8162    6.6481 C   0  0  0  0  0  0  0  0  0  0  0  0
   13.9087   44.3377    4.6604 C   0  0  0  0  0  0  0  0  0  0  0  0
   13.0117   44.7685    3.5825 C   0  0  0  0  0  0  0  0  0  0  0  0
   11.3546   44.9974    2.2409 C   0  0  0  0  0  0  0  0  0  0  0  0
   10.0517   44.8711    1.5367 C   0  0  0  0  0  0  0  0  0  0  0  0
   11.7459   44.2599    3.3404 C   0  0  0  0  0  0  0  0  0  0  0  0
   13.8965   41.8282    7.5272 C   0  0  0  0  0  0  0  0  0  0  0  0
   12.6395   41.1250    7.5172 C   0  0  0  0  0  0  0  0  0  0  0  0
   13.9661   39.8640    9.8104 O   0  0  0  0  0  0  0  0  0  0  0  0
   16.0683   40.6909   10.2642 O   0  0  0  0  0  0  0  0  0  0  0  0
   15.4906   43.2441    6.9440 O   0  0  0  0  0  0  0  0  0  0  0  0
   15.0418   44.8768    4.7810 O   0  0  0  0  0  0  0  0  0  0  0  0
   12.3003   45.8360    1.8962 O   0  0  0  0  0  0  0  0  0  0  0  0
   13.4904   43.3099    5.5651 N   0  0  0  0  0  0  0  0  0  0  0  0
   13.3231   45.7263    2.6882 N   0  0  0  0  0  0  0  0  0  0  0  0
   11.6294   40.5605    7.5087 N   0  0  0  0  0  0  0  0  0  0  0  0
  1  2  1  0
  2 15  1  0
  3 15  1  0
  3  4  1  0
  5 17  1  0
  6  5  1  0
  7 17  1  0
  7 20  1  0
  8  9  1  0
 10 19  1  0
 11 10  1  0
 12  9  1  0
 13 14  1  0
 13  4  1  0
 20  8  1  0
 21 19  1  0
  3 16  2  0
  4  5  2  0
  7 13  2  0
  8 18  2  0
  9 21  2  0
 10 12  2  0
 14 22  3  0
M  END
>  <rmsd>  (1) 
0.204029962

$$$$
