MolPort-006-579-684 ChemDiv-V018-1016 MCULE-8337918688 PubChem-46040648 ZINC000037545105 ZINC37545105
     RDKit          3D

 32 35  0  0  0  0  0  0  0  0999 V2000
    8.9073   37.9918   11.9649 C   0  0  0  0  0  0  0  0  0  0  0  0
    8.5991   38.7977   10.7484 C   0  0  0  0  0  0  0  0  0  0  0  0
    7.4531   39.6002   10.7472 C   0  0  0  0  0  0  0  0  0  0  0  0
    7.1297   40.3671    9.6248 C   0  0  0  0  0  0  0  0  0  0  0  0
    7.9518   40.3339    8.4962 C   0  0  0  0  0  0  0  0  0  0  0  0
    9.0977   39.5344    8.4897 C   0  0  0  0  0  0  0  0  0  0  0  0
    9.4281   38.7616    9.6097 C   0  0  0  0  0  0  0  0  0  0  0  0
   10.6789   37.9393    9.5768 C   0  0  0  0  0  0  0  0  0  0  0  0
   12.1859   38.8756   11.3576 C   0  0  0  0  0  0  0  0  0  0  0  0
   13.6981   38.8722   11.4928 C   0  0  0  0  0  0  0  0  0  0  0  0
   14.2839   40.0721   10.7479 C   0  0  0  0  0  0  0  0  0  0  0  0
   12.6006   39.4558    8.9668 C   0  0  0  0  0  0  0  0  0  0  0  0
   14.3826   41.1912    8.5135 C   0  0  0  0  0  0  0  0  0  0  0  0
   15.7105   41.5917    8.7371 C   0  0  0  0  0  0  0  0  0  0  0  0
   16.3120   42.5512    7.9206 C   0  0  0  0  0  0  0  0  0  0  0  0
   15.5910   43.1265    6.8729 C   0  0  0  0  0  0  0  0  0  0  0  0
   14.2625   42.7479    6.6362 C   0  0  0  0  0  0  0  0  0  0  0  0
   13.9095   44.3370    4.6573 C   0  0  0  0  0  0  0  0  0  0  0  0
   13.0008   44.7465    3.5496 C   0  0  0  0  0  0  0  0  0  0  0  0
   13.9035   43.4719    1.6166 C   0  0  0  0  0  0  0  0  0  0  0  0
   15.0359   44.2961    1.5036 C   0  0  0  0  0  0  0  0  0  0  0  0
   16.0072   44.0302    0.5345 C   0  0  0  0  0  0  0  0  0  0  0  0
   15.8532   42.9410   -0.3277 C   0  0  0  0  0  0  0  0  0  0  0  0
   14.7277   42.1187   -0.2215 C   0  0  0  0  0  0  0  0  0  0  0  0
   13.7559   42.3851    0.7476 C   0  0  0  0  0  0  0  0  0  0  0  0
   13.6694   41.7851    7.4583 C   0  0  0  0  0  0  0  0  0  0  0  0
   11.8303   38.7511    9.9517 N   0  0  0  0  0  0  0  0  0  0  0  0
   13.7608   40.2156    9.3786 N   0  0  0  0  0  0  0  0  0  0  0  0
   13.4910   43.3113    5.5669 N   0  0  0  0  0  0  0  0  0  0  0  0
   12.2877   39.3708    7.7474 O   0  0  0  0  0  0  0  0  0  0  0  0
   15.0338   44.8913    4.7701 O   0  0  0  0  0  0  0  0  0  0  0  0
   12.9125   43.7116    2.5750 O   0  0  0  0  0  0  0  0  0  0  0  0
  1  2  1  0
  3  4  2  0
  5  6  2  0
  7  2  2  0
  8  7  1  0
  8 27  1  0
  9 27  1  0
  9 10  1  0
 10 11  1  0
 11 28  1  0
 12 27  1  0
 14 15  2  0
 16 17  2  0
 17 29  1  0
 19 18  1  0
 19 32  1  0
 20 32  1  0
 21 22  2  0
 23 24  2  0
 25 20  2  0
 26 13  2  0
 28 12  1  0
 28 13  1  0
 29 18  1  0
  2  3  1  0
  4  5  1  0
  6  7  1  0
 12 30  2  0
 13 14  1  0
 15 16  1  0
 17 26  1  0
 18 31  2  0
 20 21  1  0
 22 23  1  0
 24 25  1  0
M  END
>  <rmsd>  (1) 
0.237993062

$$$$
