MolPort-020-278-672 MCULE-2162936154 PubChem-110255544
     RDKit          3D

 27 30  0  0  0  0  0  0  0  0999 V2000
   16.7887   46.5329    4.0430 C   0  0  0  0  0  0  0  0  0  0  0  0
   15.4460   45.9106    3.9087 C   0  0  0  0  0  0  0  0  0  0  0  0
   13.8464   44.3228    4.6729 C   0  0  0  0  0  0  0  0  0  0  0  0
   12.9486   44.7311    3.6827 C   0  0  0  0  0  0  0  0  0  0  0  0
   13.3167   45.7459    2.7977 C   0  0  0  0  0  0  0  0  0  0  0  0
   14.5734   46.3425    2.9081 C   0  0  0  0  0  0  0  0  0  0  0  0
   14.2287   42.7237    6.6510 C   0  0  0  0  0  0  0  0  0  0  0  0
   14.3698   41.1684    8.4345 C   0  0  0  0  0  0  0  0  0  0  0  0
   16.2106   42.5870    8.0025 C   0  0  0  0  0  0  0  0  0  0  0  0
   15.5207   43.1735    6.9439 C   0  0  0  0  0  0  0  0  0  0  0  0
   17.5844   43.0433    8.3377 C   0  0  0  0  0  0  0  0  0  0  0  0
   13.7329   40.0806    9.2338 C   0  0  2  0  0  0  0  0  0  0  0  0
   13.5924   40.4972   10.6912 C   0  0  0  0  0  0  0  0  0  0  0  0
   12.9580   39.3641   11.4804 C   0  0  0  0  0  0  0  0  0  0  0  0
   13.8019   38.0945   11.3328 C   0  0  0  0  0  0  0  0  0  0  0  0
   14.5493   38.7862    9.1293 C   0  0  0  0  0  0  0  0  0  0  0  0
   12.6992   37.2775    9.3569 C   0  0  0  0  0  0  0  0  0  0  0  0
   12.5987   35.7902    9.3523 C   0  0  0  0  0  0  0  0  0  0  0  0
   12.4186   33.7937    8.6503 C   0  0  0  0  0  0  0  0  0  0  0  0
   12.4799   33.7803   10.0301 C   0  0  0  0  0  0  0  0  0  0  0  0
   15.0682   44.9204    4.7610 N   0  0  0  0  0  0  0  0  0  0  0  0
   13.4573   43.2794    5.5764 N   0  0  0  0  0  0  0  0  0  0  0  0
   13.6848   41.7313    7.4043 N   0  0  0  0  0  0  0  0  0  0  0  0
   15.6274   41.5986    8.7275 N   0  0  0  0  0  0  0  0  0  0  0  0
   13.9775   37.6933    9.9283 N   0  0  0  0  0  0  0  0  0  0  0  0
   12.4925   35.0679    8.2239 N   0  0  0  0  0  0  0  0  0  0  0  0
   12.5924   35.0460   10.4726 N   0  0  0  0  0  0  0  0  0  0  0  0
  1  2  1  0
  3 21  2  0
  3 22  1  0
  4  5  2  0
  6  2  2  0
  8 23  2  0
  9 24  2  0
 10  7  2  0
 11  9  1  0
 12  8  1  6
 12 13  1  0
 13 14  1  0
 14 15  1  0
 15 25  1  0
 16 25  1  0
 16 12  1  0
 17 25  1  0
 17 18  1  0
 19 26  1  0
 20 27  1  0
 22  7  1  0
 27 18  1  0
  2 21  1  0
  3  4  1  0
  5  6  1  0
  7 23  1  0
  8 24  1  0
  9 10  1  0
 18 26  2  0
 19 20  2  0
M  END
>  <rmsd>  (1) 
0.244306996

$$$$
