MolPort-000-013-326 6157221 CSSS03436552883 MCULE-8216926894 ZINC000006157221 ZINC06157221
     RDKit          3D

 29 32  0  0  0  0  0  0  0  0999 V2000
    9.7662   39.5527   12.3192 C   0  0  0  0  0  0  0  0  0  0  0  0
   12.0860   38.9600   11.6979 C   0  0  0  0  0  0  0  0  0  0  0  0
   12.4754   40.3057   11.6009 C   0  0  0  0  0  0  0  0  0  0  0  0
   13.7877   40.6361   11.2541 C   0  0  0  0  0  0  0  0  0  0  0  0
   14.7245   39.6264   10.9954 C   0  0  0  0  0  0  0  0  0  0  0  0
   14.3377   38.2841   11.1013 C   0  0  0  0  0  0  0  0  0  0  0  0
   13.0246   37.9541   11.4478 C   0  0  0  0  0  0  0  0  0  0  0  0
   17.1968   39.6004   11.3085 C   0  0  0  0  0  0  0  0  0  0  0  0
   16.5378   40.8122    9.7020 C   0  0  0  0  0  0  0  0  0  0  0  0
   15.7352   41.4669    8.6457 C   0  0  0  0  0  0  0  0  0  0  0  0
   14.4830   40.9668    8.2634 C   0  0  0  0  0  0  0  0  0  0  0  0
   13.7534   41.5829    7.2430 C   0  0  0  0  0  0  0  0  0  0  0  0
   14.2692   42.7006    6.5807 C   0  0  0  0  0  0  0  0  0  0  0  0
   13.8719   44.4176    4.7156 C   0  0  0  0  0  0  0  0  0  0  0  0
   12.9033   44.9878    3.7624 C   0  0  0  0  0  0  0  0  0  0  0  0
   11.6028   44.4691    3.6781 C   0  0  0  0  0  0  0  0  0  0  0  0
   10.6812   45.0138    2.7790 C   0  0  0  0  0  0  0  0  0  0  0  0
   11.0535   46.0812    1.9574 C   0  0  0  0  0  0  0  0  0  0  0  0
   12.3471   46.6039    2.0341 C   0  0  0  0  0  0  0  0  0  0  0  0
   13.2690   46.0588    2.9326 C   0  0  0  0  0  0  0  0  0  0  0  0
   15.5277   43.1959    6.9514 C   0  0  0  0  0  0  0  0  0  0  0  0
   16.2564   42.5801    7.9725 C   0  0  0  0  0  0  0  0  0  0  0  0
   10.7805   38.5971   12.0400 O   0  0  0  0  0  0  0  0  0  0  0  0
   15.0361   44.8971    4.7860 O   0  0  0  0  0  0  0  0  0  0  0  0
   16.0767   39.9633   10.6515 N   0  0  0  0  0  0  0  0  0  0  0  0
   18.2880   40.1979   10.7980 N   0  0  0  0  0  0  0  0  0  0  0  0
   17.8767   40.9530    9.7900 N   0  0  0  0  0  0  0  0  0  0  0  0
   13.4847   43.3145    5.5492 N   0  0  0  0  0  0  0  0  0  0  0  0
   17.2461   38.5395   12.7513 S   0  0  0  0  0  0  0  0  0  0  0  0
  1 23  1  0
  2 23  1  0
  3  4  2  0
  5  6  2  0
  5 25  1  0
  7  2  2  0
  8 29  1  0
  9 10  1  0
  9 25  1  0
 11 12  2  0
 13 28  1  0
 13 21  2  0
 14 15  1  0
 16 17  2  0
 18 19  2  0
 20 15  2  0
 22 10  2  0
 25  8  1  0
 26 27  1  0
 28 14  1  0
  2  3  1  0
  4  5  1  0
  6  7  1  0
  8 26  2  0
  9 27  2  0
 10 11  1  0
 12 13  1  0
 14 24  2  0
 15 16  1  0
 17 18  1  0
 19 20  1  0
 21 22  1  0
M  END
>  <rmsd>  (1) 
0.233320028

$$$$
