MolPort-002-319-884 6273700 LN01124744 MCULE-2831407268 ZINC000006273700
     RDKit          3D

 25 25  0  0  0  0  0  0  0  0999 V2000
   11.3965   38.9892   12.2352 C   0  0  0  0  0  0  0  0  0  0  0  0
   12.5036   39.9981   11.9948 C   0  0  0  0  0  0  0  0  0  0  0  0
   13.8322   39.2892   11.7856 C   0  0  0  0  0  0  0  0  0  0  0  0
   13.8983   38.6408   10.4080 C   0  0  0  0  0  0  0  0  0  0  0  0
   15.0383   40.4440    9.1513 C   0  0  0  0  0  0  0  0  0  0  0  0
   14.9756   41.4724    8.1096 C   0  0  0  0  0  0  0  0  0  0  0  0
   14.3113   42.7045    6.5659 C   0  0  0  0  0  0  0  0  0  0  0  0
   13.8889   44.3811    4.7037 C   0  0  0  0  0  0  0  0  0  0  0  0
   12.9408   44.8928    3.6553 C   0  0  0  0  0  0  0  0  0  0  0  0
   13.3013   44.3880    2.2394 C   0  0  0  0  0  0  0  0  0  0  0  0
   13.2448   42.8568    2.0862 C   0  0  0  0  0  0  0  0  0  0  0  0
   13.9265   39.6289    9.3831 O   0  0  0  0  0  0  0  0  0  0  0  0
   16.0939   40.2986    9.8263 O   0  0  0  0  0  0  0  0  0  0  0  0
   15.0393   44.8875    4.8040 O   0  0  0  0  0  0  0  0  0  0  0  0
   15.9955   42.3001    7.8131 N   0  0  0  0  0  0  0  0  0  0  0  0
   15.5751   43.0815    6.8341 N   0  0  0  0  0  0  0  0  0  0  0  0
   13.4891   43.3028    5.5592 N   0  0  0  0  0  0  0  0  0  0  0  0
   13.8878   41.6918    7.3447 N   0  0  0  0  0  0  0  0  0  0  0  0
   12.9907   46.2770    3.6582 F   0  0  0  0  0  0  0  0  0  0  0  0
   11.6456   44.5185    3.9747 F   0  0  0  0  0  0  0  0  0  0  0  0
   12.4099   44.9487    1.3394 F   0  0  0  0  0  0  0  0  0  0  0  0
   14.5736   44.8242    1.9063 F   0  0  0  0  0  0  0  0  0  0  0  0
   14.2275   42.2501    2.8479 F   0  0  0  0  0  0  0  0  0  0  0  0
   13.4559   42.5232    0.7603 F   0  0  0  0  0  0  0  0  0  0  0  0
   12.0072   42.3713    2.4692 F   0  0  0  0  0  0  0  0  0  0  0  0
  1  2  1  0
  2  3  1  0
  3  4  1  0
  4 12  1  0
  5 12  1  0
  5  6  1  0
  6 18  1  0
  7 17  1  0
  9  8  1  0
  9 19  1  0
  9 20  1  0
  9 10  1  0
 10 21  1  0
 10 22  1  0
 10 11  1  0
 11 23  1  0
 11 24  1  0
 11 25  1  0
 16 15  1  0
 16  7  1  0
 17  8  1  0
  5 13  2  0
  6 15  2  0
  7 18  2  0
  8 14  2  0
M  END
>  <rmsd>  (1) 
0.174373895

$$$$
