MolPort-007-723-580 ChemDiv-E157-6420 MCULE-8433436354 PubChem-22518105 ZINC000006818372 ZINC06818372
     RDKit          3D

 22 23  0  0  0  0  0  0  0  0999 V2000
   13.5872   45.8892    2.7067 C   0  0  0  0  0  0  0  0  0  0  0  0
   12.9900   44.7869    3.5668 C   0  0  0  0  0  0  0  0  0  0  0  0
   13.9119   44.3446    4.6614 C   0  0  0  0  0  0  0  0  0  0  0  0
   14.2376   42.7829    6.6365 C   0  0  0  0  0  0  0  0  0  0  0  0
   15.1362   41.6298    8.5242 C   0  0  0  0  0  0  0  0  0  0  0  0
   13.5228   39.2711   11.2337 C   0  0  0  0  0  0  0  0  0  0  0  0
   13.5631   41.7661   11.5594 C   0  0  0  0  0  0  0  0  0  0  0  0
   14.1521   43.0217   11.3347 C   0  0  0  0  0  0  0  0  0  0  0  0
   13.6063   44.1772   11.9000 C   0  0  0  0  0  0  0  0  0  0  0  0
   12.4637   44.0910   12.6985 C   0  0  0  0  0  0  0  0  0  0  0  0
   11.8829   45.3195   13.2996 C   0  0  0  0  0  0  0  0  0  0  0  0
   11.8676   42.8498   12.9318 C   0  0  0  0  0  0  0  0  0  0  0  0
   12.4141   41.6945   12.3657 C   0  0  0  0  0  0  0  0  0  0  0  0
   15.0504   44.8709    4.8013 O   0  0  0  0  0  0  0  0  0  0  0  0
   16.6704   41.2186   10.6687 O   0  0  0  0  0  0  0  0  0  0  0  0
   15.8638   39.2547    9.4530 O   0  0  0  0  0  0  0  0  0  0  0  0
   13.4735   43.3102    5.5477 N   0  0  0  0  0  0  0  0  0  0  0  0
   15.4804   43.1991    6.9670 N   0  0  0  0  0  0  0  0  0  0  0  0
   15.9803   42.5560    8.0204 N   0  0  0  0  0  0  0  0  0  0  0  0
   14.1222   40.5730   10.9734 N   0  0  0  0  0  0  0  0  0  0  0  0
   13.6900   41.5675    7.6630 S   0  0  0  0  0  0  0  0  0  0  0  0
   15.5040   40.6375    9.9201 S   0  0  0  0  0  0  0  0  0  0  0  0
  1  2  1  0
  2  3  1  0
  3 17  1  0
  4 21  1  0
  5 21  1  0
  6 20  1  0
  8  9  2  0
 10 12  2  0
 11 10  1  0
 13  7  2  0
 17  4  1  0
 18 19  1  0
 20  7  1  0
 22  5  1  0
 22 20  1  0
  3 14  2  0
  4 18  2  0
  5 19  2  0
  7  8  1  0
  9 10  1  0
 12 13  1  0
 22 15  2  0
 22 16  2  0
M  END
>  <rmsd>  (1) 
0.200207293

$$$$
