Molport-016-716-267 19496917 MCULE-7909949771 PubChem-92584239 ZINC000019496917
     RDKit          3D

 29 31  0  0  0  0  0  0  0  0999 V2000
   13.4922   39.0906   11.5406 C   0  0  0  0  0  0  0  0  0  0  0  0
   14.0160   39.7821   12.7866 C   0  0  0  0  0  0  0  0  0  0  0  0
   15.5100   39.4918   12.9743 C   0  0  0  0  0  0  0  0  0  0  0  0
   16.4200   40.3190   12.0462 C   0  0  0  0  0  0  0  0  0  0  0  0
   14.8709   42.1072   12.1482 C   0  0  0  0  0  0  0  0  0  0  0  0
   13.7136   41.2853   12.7258 C   0  0  0  0  0  0  0  0  0  0  0  0
   16.6457   42.1767   10.6250 C   0  0  0  0  0  0  0  0  0  0  0  0
   16.9408   41.7290    9.2002 C   0  0  0  0  0  0  0  0  0  0  0  0
   15.7920   42.0258    8.2961 C   0  0  0  0  0  0  0  0  0  0  0  0
   14.2380   42.7604    6.6242 C   0  0  0  0  0  0  0  0  0  0  0  0
   13.9363   44.3221    4.6201 C   0  0  0  0  0  0  0  0  0  0  0  0
   13.0422   44.7646    3.4902 C   0  0  0  0  0  0  0  0  0  0  0  0
   12.1634   45.8919    3.9945 C   0  0  0  0  0  0  0  0  0  0  0  0
   12.1297   43.6352    3.0276 C   0  0  0  0  0  0  0  0  0  0  0  0
   14.7331   44.5107    1.6325 C   0  0  0  0  0  0  0  0  0  0  0  0
   15.4038   45.1401    0.5794 C   0  0  0  0  0  0  0  0  0  0  0  0
   16.3307   44.4336   -0.1919 C   0  0  0  0  0  0  0  0  0  0  0  0
   16.5985   43.0832    0.0835 C   0  0  0  0  0  0  0  0  0  0  0  0
   15.9290   42.4526    1.1364 C   0  0  0  0  0  0  0  0  0  0  0  0
   15.0022   43.1598    1.9069 C   0  0  0  0  0  0  0  0  0  0  0  0
   18.2447   42.9110   -1.7545 C   0  0  0  0  0  0  0  0  0  0  0  0
   15.6729   41.2908   11.2440 N   0  0  0  0  0  0  0  0  0  0  0  0
   14.5797   41.4364    8.3973 N   0  0  0  0  0  0  0  0  0  0  0  0
   13.7167   41.8456    7.4691 N   0  0  0  0  0  0  0  0  0  0  0  0
   13.4854   43.3176    5.5403 N   0  0  0  0  0  0  0  0  0  0  0  0
   15.8478   43.1023    7.0037 S   0  0  0  0  0  0  0  0  0  0  0  0
   15.0490   44.8911    4.7876 O   0  0  0  0  0  0  0  0  0  0  0  0
   13.8111   45.2566    2.3852 O   0  0  0  0  0  0  0  0  0  0  0  0
   17.5199   42.3496   -0.6686 O   0  0  0  0  0  0  0  0  0  0  0  0
  1  2  1  0
  2  3  1  0
  3  4  1  0
  4 22  1  0
  5 22  1  0
  5  6  1  0
  6  2  1  0
  7 22  1  0
  7  8  1  0
  8  9  1  0
  9 26  1  0
 10 26  1  0
 10 25  1  0
 12 11  1  0
 12 13  1  0
 12 14  1  0
 12 28  1  0
 15 28  1  0
 16 17  2  0
 18 19  2  0
 18 29  1  0
 20 15  2  0
 21 29  1  0
 23 24  1  0
 25 11  1  0
  9 23  2  0
 10 24  2  0
 11 27  2  0
 15 16  1  0
 17 18  1  0
 19 20  1  0
M  END
>  <rmsd>  (1) 
0.223719567

$$$$
