MolPort-045-962-912 952985915 CSSS00160227687 MCULE-2269726237 PubChem-131937921 ZINC000952985915
     RDKit          3D

 28 30  0  0  0  0  0  0  0  0999 V2000
   12.8528   45.5971    1.4709 C   0  0  0  0  0  0  0  0  0  0  0  0
   13.1238   44.5169    3.3761 C   0  0  0  0  0  0  0  0  0  0  0  0
   13.9580   44.2544    4.5880 C   0  0  0  0  0  0  0  0  0  0  0  0
   14.2665   42.7735    6.6355 C   0  0  0  0  0  0  0  0  0  0  0  0
   13.6488   42.6050    7.8787 C   0  0  0  0  0  0  0  0  0  0  0  0
   14.3554   42.0696    8.9562 C   0  0  0  0  0  0  0  0  0  0  0  0
   15.6894   41.6734    8.7990 C   0  0  0  0  0  0  0  0  0  0  0  0
   15.9249   40.6454   11.1284 C   0  0  0  0  0  0  0  0  0  0  0  0
   14.6242   39.9368   11.1867 C   0  0  0  0  0  0  0  0  0  0  0  0
   14.2498   39.1273   10.1023 C   0  0  0  0  0  0  0  0  0  0  0  0
   13.0427   38.4287   10.1222 C   0  0  0  0  0  0  0  0  0  0  0  0
   12.2073   38.5046   11.2419 C   0  0  0  0  0  0  0  0  0  0  0  0
   10.7909   36.7313   10.2972 C   0  0  0  0  0  0  0  0  0  0  0  0
   11.3111   37.1597    8.9231 C   0  0  0  0  0  0  0  0  0  0  0  0
   12.5600   39.3114   12.3238 C   0  0  0  0  0  0  0  0  0  0  0  0
   13.7625   40.0272   12.3071 C   0  0  0  0  0  0  0  0  0  0  0  0
   14.0738   40.8952   13.4796 C   0  0  0  0  0  0  0  0  0  0  0  0
   16.3062   41.8249    7.5554 C   0  0  0  0  0  0  0  0  0  0  0  0
   15.6038   42.3561    6.4603 C   0  0  0  0  0  0  0  0  0  0  0  0
   17.5461   42.0334    4.9558 C   0  0  0  0  0  0  0  0  0  0  0  0
   13.7260   45.4681    2.5498 O   0  0  0  0  0  0  0  0  0  0  0  0
   15.0355   44.8839    4.7722 O   0  0  0  0  0  0  0  0  0  0  0  0
   16.6269   40.7428   12.1695 O   0  0  0  0  0  0  0  0  0  0  0  0
   11.0216   37.7649   11.2572 O   0  0  0  0  0  0  0  0  0  0  0  0
   12.6505   37.6476    9.0316 O   0  0  0  0  0  0  0  0  0  0  0  0
   16.2073   42.4427    5.2005 O   0  0  0  0  0  0  0  0  0  0  0  0
   13.4883   43.3158    5.5606 N   0  0  0  0  0  0  0  0  0  0  0  0
   16.4532   41.1569    9.8963 N   0  0  0  0  0  0  0  0  0  0  0  0
  1 21  1  0
  2 21  1  0
  2  3  1  0
  3 27  1  0
  5  6  2  0
  7 28  1  0
  7 18  2  0
  8  9  1  0
 10 11  2  0
 11 25  1  0
 12 24  1  0
 12 15  2  0
 13 24  1  0
 13 14  1  0
 14 25  1  0
 16  9  2  0
 17 16  1  0
 19 26  1  0
 19  4  2  0
 20 26  1  0
 27  4  1  0
 28  8  1  0
  3 22  2  0
  4  5  1  0
  6  7  1  0
  8 23  2  0
  9 10  1  0
 11 12  1  0
 15 16  1  0
 18 19  1  0
M  END
>  <rmsd>  (1) 
0.241809025

$$$$
