Molport-047-883-860 PubChem-165926871
     RDKit          3D

 24 24  0  0  0  0  0  0  0  0999 V2000
   12.8195   39.2440   11.8088 C   0  0  0  0  0  0  0  0  0  0  0  0
   13.9783   38.9483   10.8800 C   0  0  0  0  0  0  0  0  0  0  0  0
   15.0420   40.7223    9.5418 C   0  0  0  0  0  0  0  0  0  0  0  0
   14.9715   41.6700    8.4082 C   0  0  0  0  0  0  0  0  0  0  0  0
   15.9384   42.5854    7.9867 C   0  0  0  0  0  0  0  0  0  0  0  0
   14.2919   42.8195    6.6498 C   0  0  0  0  0  0  0  0  0  0  0  0
   13.9102   41.8337    7.5316 C   0  0  0  0  0  0  0  0  0  0  0  0
   12.6531   41.1303    7.5259 C   0  0  0  0  0  0  0  0  0  0  0  0
   13.9051   44.3360    4.6622 C   0  0  0  0  0  0  0  0  0  0  0  0
   13.3140   45.7401    2.6711 C   0  0  0  0  0  0  0  0  0  0  0  0
   13.5518   47.0811    3.3437 C   0  0  0  0  0  0  0  0  0  0  0  0
   12.1229   45.8732    1.7462 C   0  0  0  0  0  0  0  0  0  0  0  0
   14.5269   45.3589    1.8399 C   0  0  0  0  0  0  0  0  0  0  0  0
   17.2896   42.8242    8.5903 C   0  0  0  0  0  0  0  0  0  0  0  0
   13.9666   39.8697    9.7999 O   0  0  0  0  0  0  0  0  0  0  0  0
   16.0670   40.6820   10.2750 O   0  0  0  0  0  0  0  0  0  0  0  0
   15.4974   43.2496    6.9393 O   0  0  0  0  0  0  0  0  0  0  0  0
   15.0396   44.8756    4.7799 O   0  0  0  0  0  0  0  0  0  0  0  0
   13.0286   44.7303    3.6423 O   0  0  0  0  0  0  0  0  0  0  0  0
   11.6431   40.5656    7.5209 N   0  0  0  0  0  0  0  0  0  0  0  0
   13.4923   43.3103    5.5691 N   0  0  0  0  0  0  0  0  0  0  0  0
   17.1516   43.2360    9.9028 F   0  0  0  0  0  0  0  0  0  0  0  0
   17.9524   43.8097    7.8814 F   0  0  0  0  0  0  0  0  0  0  0  0
   18.0374   41.6623    8.5431 F   0  0  0  0  0  0  0  0  0  0  0  0
  1  2  1  0
  2 15  1  0
  3 15  1  0
  3  4  1  0
  5 17  1  0
  6 17  1  0
  6 21  1  0
  7  8  1  0
  7  4  1  0
  9 19  1  0
 10 19  1  0
 10 11  1  0
 10 12  1  0
 10 13  1  0
 14  5  1  0
 14 22  1  0
 14 23  1  0
 14 24  1  0
 21  9  1  0
  3 16  2  0
  4  5  2  0
  6  7  2  0
  9 18  2  0
  8 20  3  0
M  END
>  <rmsd>  (1) 
0.2050322

$$$$
