MolPort-002-761-906 2730088 CSSS00132538522 MCULE-7263961932 PubChem-17024138 ZINC000002730088 ZINC02730088
     RDKit          3D

 28 31  0  0  0  0  0  0  0  0999 V2000
   13.4063   39.4295   11.2184 C   0  0  0  0  0  0  0  0  0  0  0  0
   14.2652   40.6125   11.5118 C   0  0  0  0  0  0  0  0  0  0  0  0
   14.1563   41.4134   12.6331 C   0  0  0  0  0  0  0  0  0  0  0  0
   15.1669   42.3455   12.4303 C   0  0  0  0  0  0  0  0  0  0  0  0
   15.6811   40.4868    9.4505 C   0  0  0  0  0  0  0  0  0  0  0  0
   15.2968   41.3875    8.3289 C   0  0  0  0  0  0  0  0  0  0  0  0
   14.2770   42.6723    6.5923 C   0  0  0  0  0  0  0  0  0  0  0  0
   13.8617   44.3389    4.7340 C   0  0  0  0  0  0  0  0  0  0  0  0
   16.2048   46.6999    3.5330 C   0  0  0  0  0  0  0  0  0  0  0  0
   17.2242   45.9291    2.7655 C   0  0  0  0  0  0  0  0  0  0  0  0
   17.1679   45.8881    1.3676 C   0  0  0  0  0  0  0  0  0  0  0  0
   18.1057   45.1374    0.6523 C   0  0  0  0  0  0  0  0  0  0  0  0
   19.0963   44.4221    1.3336 C   0  0  0  0  0  0  0  0  0  0  0  0
   19.1488   44.4567    2.7305 C   0  0  0  0  0  0  0  0  0  0  0  0
   18.2116   45.2073    3.4462 C   0  0  0  0  0  0  0  0  0  0  0  0
   13.8875   45.8670    3.1886 C   0  0  0  0  0  0  0  0  0  0  0  0
   13.0708   44.8932    3.7450 C   0  0  0  0  0  0  0  0  0  0  0  0
   15.4472   43.5000   13.3296 C   0  0  0  0  0  0  0  0  0  0  0  0
   15.8145   42.1261   11.2670 N   0  0  0  0  0  0  0  0  0  0  0  0
   15.2600   41.0599   10.7206 N   0  0  0  0  0  0  0  0  0  0  0  0
   16.1025   42.3572    7.8454 N   0  0  0  0  0  0  0  0  0  0  0  0
   15.5377   43.0695    6.8731 N   0  0  0  0  0  0  0  0  0  0  0  0
   13.4531   43.2645    5.5851 N   0  0  0  0  0  0  0  0  0  0  0  0
   15.0684   44.9263    4.7798 N   0  0  0  0  0  0  0  0  0  0  0  0
   15.0643   45.8528    3.8408 N   0  0  0  0  0  0  0  0  0  0  0  0
   13.7954   41.3874    7.5646 S   0  0  0  0  0  0  0  0  0  0  0  0
   16.7757   43.8766   13.2267 F   0  0  0  0  0  0  0  0  0  0  0  0
   14.6343   44.5689   12.9919 F   0  0  0  0  0  0  0  0  0  0  0  0
  1  2  1  0
  3  4  1  0
  5 20  1  0
  5  6  1  0
  6 26  1  0
  7 23  1  0
  7 26  1  0
  9 25  1  0
  9 10  1  0
 11 12  2  0
 13 14  2  0
 15 10  2  0
 17  8  1  0
 18  4  1  0
 18 27  1  0
 18 28  1  0
 20 19  1  0
 20  2  1  0
 21 22  1  0
 23  8  1  0
 25 24  1  0
 25 16  1  0
  2  3  2  0
  4 19  2  0
  6 21  2  0
  7 22  2  0
  8 24  2  0
 10 11  1  0
 12 13  1  0
 14 15  1  0
 16 17  2  0
M  END
>  <rmsd>  (1) 
0.219517484

$$$$
