MolPort-008-361-976 55060657 CSSS00160015778 MCULE-9327796142 PubChem-46984026 ZINC000055060657 ZINC55060657
     RDKit          3D

 26 27  0  0  0  0  0  0  0  0999 V2000
   16.5258   36.1207   14.6395 C   0  0  0  0  0  0  0  0  0  0  0  0
   16.0026   35.4982   13.3591 C   0  0  0  0  0  0  0  0  0  0  0  0
   14.5076   38.1876   11.5708 C   0  0  0  0  0  0  0  0  0  0  0  0
   13.5135   39.2876   11.4399 C   0  0  0  0  0  0  0  0  0  0  0  0
   15.4674   37.8359   10.6400 C   0  0  0  0  0  0  0  0  0  0  0  0
   15.7613   38.5018    9.3359 C   0  0  0  0  0  0  0  0  0  0  0  0
   17.6667   39.3908    8.2571 C   0  0  0  0  0  0  0  0  0  0  0  0
   19.1406   39.5797    8.5714 C   0  0  0  0  0  0  0  0  0  0  0  0
   20.8873   38.8630    9.7124 C   0  0  0  0  0  0  0  0  0  0  0  0
   16.4034   40.7824    9.7712 C   0  0  0  0  0  0  0  0  0  0  0  0
   15.6419   41.4269    8.6437 C   0  0  0  0  0  0  0  0  0  0  0  0
   16.2288   42.4781    7.9328 C   0  0  0  0  0  0  0  0  0  0  0  0
   15.5252   43.1073    6.9023 C   0  0  0  0  0  0  0  0  0  0  0  0
   14.2233   42.6962    6.5778 C   0  0  0  0  0  0  0  0  0  0  0  0
   13.9037   44.3892    4.6801 C   0  0  0  0  0  0  0  0  0  0  0  0
   12.9810   44.9119    3.6395 C   0  0  0  0  0  0  0  0  0  0  0  0
   13.6346   41.6543    7.3023 C   0  0  0  0  0  0  0  0  0  0  0  0
   14.3375   41.0246    8.3333 C   0  0  0  0  0  0  0  0  0  0  0  0
   16.1461   36.7860   11.2208 C   0  0  0  0  0  0  0  0  0  0  0  0
   17.3051   36.0490   10.6375 C   0  0  0  0  0  0  0  0  0  0  0  0
   15.5967   36.5392   12.4259 N   0  0  0  0  0  0  0  0  0  0  0  0
   14.5982   37.3818   12.6478 N   0  0  0  0  0  0  0  0  0  0  0  0
   16.8834   39.4191    9.4876 N   0  0  0  0  0  0  0  0  0  0  0  0
   13.4706   43.3170    5.5267 N   0  0  0  0  0  0  0  0  0  0  0  0
   19.6184   38.4784    9.2824 O   0  0  0  0  0  0  0  0  0  0  0  0
   15.0498   44.8968    4.8001 O   0  0  0  0  0  0  0  0  0  0  0  0
  1  2  1  0
  2 21  1  0
  3  5  1  0
  4  3  1  0
  6  5  1  0
  6 23  1  0
  7 23  1  0
  7  8  1  0
  8 25  1  0
  9 25  1  0
 10 23  1  0
 10 11  1  0
 12 13  2  0
 14 24  1  0
 14 17  2  0
 16 15  1  0
 18 11  2  0
 19 21  1  0
 20 19  1  0
 21 22  1  0
 24 15  1  0
  3 22  2  0
  5 19  2  0
 11 12  1  0
 13 14  1  0
 15 26  2  0
 17 18  1  0
M  END
>  <rmsd>  (1) 
0.243728831

$$$$
