MolPort-020-293-032 MCULE-5785464282 PubChem-110265499
     RDKit          3D

 27 29  0  0  0  0  0  0  0  0999 V2000
   12.3169   46.1091    1.7852 C   0  0  0  0  0  0  0  0  0  0  0  0
   13.2921   45.6975    2.8282 C   0  0  0  0  0  0  0  0  0  0  0  0
   14.5371   46.3193    2.9022 C   0  0  0  0  0  0  0  0  0  0  0  0
   15.4238   45.9053    3.8941 C   0  0  0  0  0  0  0  0  0  0  0  0
   13.8450   44.3212    4.6726 C   0  0  0  0  0  0  0  0  0  0  0  0
   14.2355   42.7286    6.6556 C   0  0  0  0  0  0  0  0  0  0  0  0
   15.5296   43.1827    6.9447 C   0  0  0  0  0  0  0  0  0  0  0  0
   16.2409   42.6133    8.0008 C   0  0  0  0  0  0  0  0  0  0  0  0
   15.6604   41.5981    8.7600 C   0  0  0  0  0  0  0  0  0  0  0  0
   14.3648   41.1638    8.4486 C   0  0  0  0  0  0  0  0  0  0  0  0
   13.7039   40.0771    9.2353 C   0  0  2  0  0  0  0  0  0  0  0  0
   13.5375   40.4829   10.6999 C   0  0  0  0  0  0  0  0  0  0  0  0
   12.9458   39.3298   11.5039 C   0  0  0  0  0  0  0  0  0  0  0  0
   13.7911   38.0760   11.2957 C   0  0  0  0  0  0  0  0  0  0  0  0
   14.4931   38.7703    9.1376 C   0  0  0  0  0  0  0  0  0  0  0  0
   13.8622   34.9856   11.7858 C   0  0  0  0  0  0  0  0  0  0  0  0
   14.5694   33.6925    9.9849 C   0  0  0  0  0  0  0  0  0  0  0  0
   16.7616   46.5418    4.0083 C   0  0  0  0  0  0  0  0  0  0  0  0
   15.0649   44.9195    4.7569 N   0  0  0  0  0  0  0  0  0  0  0  0
   12.9699   44.7150    3.7096 N   0  0  0  0  0  0  0  0  0  0  0  0
   13.4612   43.2799    5.5808 N   0  0  0  0  0  0  0  0  0  0  0  0
   13.6930   41.7363    7.4130 N   0  0  0  0  0  0  0  0  0  0  0  0
   13.8045   37.7120    9.8780 N   0  0  0  0  0  0  0  0  0  0  0  0
   13.8452   34.9024   10.3353 N   0  0  0  0  0  0  0  0  0  0  0  0
   14.7344   36.2543    9.6978 S   0  0  0  0  0  0  0  0  0  0  0  0
   16.0549   36.3910   10.4086 O   0  0  0  0  0  0  0  0  0  0  0  0
   14.9925   36.0201    8.2339 O   0  0  0  0  0  0  0  0  0  0  0  0
  1  2  1  0
  2 20  2  0
  3  4  2  0
  5 19  2  0
  5 21  1  0
  6 22  2  0
  7  8  2  0
  9 10  2  0
 11 10  1  6
 11 12  1  0
 12 13  1  0
 13 14  1  0
 14 23  1  0
 15 23  1  0
 15 11  1  0
 16 24  1  0
 17 24  1  0
 18  4  1  0
 21  6  1  0
 25 23  1  0
 25 24  1  0
  2  3  1  0
  4 19  1  0
  5 20  1  0
  6  7  1  0
  8  9  1  0
 10 22  1  0
 25 26  2  0
 25 27  2  0
M  END
>  <rmsd>  (1) 
0.246126086

$$$$
