Molport-052-050-200 MCULE-5841702432 PubChem-110093686
     RDKit          3D

 31 35  0  0  0  0  0  0  0  0999 V2000
   12.8938   39.3886   11.4989 C   0  0  0  0  0  0  0  0  0  0  0  0
   13.5960   40.4832   10.6989 C   0  0  0  0  0  0  0  0  0  0  0  0
   13.7252   40.0678    9.2318 C   0  0  2  0  0  0  0  0  0  0  0  0
   14.4756   38.7411    9.1123 C   0  0  0  0  0  0  0  0  0  0  0  0
   13.6655   38.0777   11.3788 C   0  0  0  0  0  0  0  0  0  0  0  0
   13.2376   36.5487    9.4317 C   0  0  0  0  0  0  0  0  0  0  0  0
   13.6465   35.9686    8.1304 C   0  0  0  0  0  0  0  0  0  0  0  0
   14.8875   36.2779    7.5507 C   0  0  0  0  0  0  0  0  0  0  0  0
   15.2649   35.6971    6.3379 C   0  0  0  0  0  0  0  0  0  0  0  0
   14.3982   34.8122    5.6837 C   0  0  0  0  0  0  0  0  0  0  0  0
   13.1740   34.4752    6.2639 C   0  0  0  0  0  0  0  0  0  0  0  0
   12.8033   35.0494    7.4843 C   0  0  0  0  0  0  0  0  0  0  0  0
   15.8792   34.8229    3.7222 C   0  0  0  0  0  0  0  0  0  0  0  0
   17.0124   35.2011    4.6792 C   0  0  0  0  0  0  0  0  0  0  0  0
   14.3926   41.1360    8.4258 C   0  0  0  0  0  0  0  0  0  0  0  0
   14.2532   42.7055    6.6378 C   0  0  0  0  0  0  0  0  0  0  0  0
   15.5656   43.1263    6.8908 C   0  0  0  0  0  0  0  0  0  0  0  0
   16.2915   42.5376    7.9263 C   0  0  0  0  0  0  0  0  0  0  0  0
   15.7068   41.5366    8.7012 C   0  0  0  0  0  0  0  0  0  0  0  0
   13.8397   44.3296    4.6862 C   0  0  0  0  0  0  0  0  0  0  0  0
   15.4112   45.9236    3.9010 C   0  0  0  0  0  0  0  0  0  0  0  0
   14.5012   46.3442    2.9305 C   0  0  0  0  0  0  0  0  0  0  0  0
   12.9317   44.7527    3.7131 C   0  0  0  0  0  0  0  0  0  0  0  0
   13.8415   37.7410    9.9681 N   0  0  0  0  0  0  0  0  0  0  0  0
   13.7072   41.7261    7.4092 N   0  0  0  0  0  0  0  0  0  0  0  0
   13.4637   43.2775    5.5854 N   0  0  0  0  0  0  0  0  0  0  0  0
   15.0611   44.9269    4.7560 N   0  0  0  0  0  0  0  0  0  0  0  0
   13.2813   45.7496    2.8576 N   0  0  0  0  0  0  0  0  0  0  0  0
   12.3310   35.9709   10.0925 O   0  0  0  0  0  0  0  0  0  0  0  0
   14.7790   34.2744    4.4513 O   0  0  0  0  0  0  0  0  0  0  0  0
   16.5056   35.9851    5.7622 O   0  0  0  0  0  0  0  0  0  0  0  0
  1  2  1  0
  2  3  1  0
  3  4  1  0
  3 15  1  6
  4 24  1  0
  5 24  1  0
  5  1  1  0
  6  7  1  0
  8  9  2  0
  9 31  1  0
 10 11  2  0
 10 30  1  0
 12  7  2  0
 13 30  1  0
 13 14  1  0
 14 31  1  0
 16 25  2  0
 16 26  1  0
 17 18  2  0
 19 15  2  0
 21 27  2  0
 22 28  2  0
 23 20  2  0
 24  6  1  0
 26 20  1  0
  6 29  2  0
  7  8  1  0
  9 10  1  0
 11 12  1  0
 15 25  1  0
 16 17  1  0
 18 19  1  0
 20 27  1  0
 21 22  1  0
 23 28  1  0
M  END
>  <rmsd>  (1) 
0.243466005

$$$$
