MolPort-002-989-525 9427031 CSSS00132429902 MCULE-2605706855 PubChem-3636262 ZINC000009427031 ZINC09427031
     RDKit          3D

 22 24  0  0  0  0  0  0  0  0999 V2000
   13.1846   38.6393   11.0258 C   0  0  0  0  0  0  0  0  0  0  0  0
   13.8268   39.9323   11.4924 C   0  0  0  0  0  0  0  0  0  0  0  0
   13.8147   40.9624   10.3773 C   0  0  0  0  0  0  0  0  0  0  0  0
   14.8778   40.6359    9.3417 C   0  0  0  0  0  0  0  0  0  0  0  0
   14.2665   42.7752    6.6308 C   0  0  0  0  0  0  0  0  0  0  0  0
   13.9059   44.3496    4.6702 C   0  0  0  0  0  0  0  0  0  0  0  0
   13.0172   44.8247    3.5931 C   0  0  0  0  0  0  0  0  0  0  0  0
   11.7221   44.3735    3.2851 C   0  0  0  0  0  0  0  0  0  0  0  0
   11.1654   45.0509    2.1912 C   0  0  0  0  0  0  0  0  0  0  0  0
    9.8985   44.8348    1.6414 C   0  0  0  0  0  0  0  0  0  0  0  0
    9.4987   45.6082    0.5393 C   0  0  0  0  0  0  0  0  0  0  0  0
   10.3599   46.5824    0.0004 C   0  0  0  0  0  0  0  0  0  0  0  0
   11.6303   46.7943    0.5571 C   0  0  0  0  0  0  0  0  0  0  0  0
   12.0023   46.0145    1.6489 C   0  0  0  0  0  0  0  0  0  0  0  0
   14.8493   41.6183    8.2716 N   0  0  0  0  0  0  0  0  0  0  0  0
   15.8501   42.4339    7.9884 N   0  0  0  0  0  0  0  0  0  0  0  0
   15.5110   43.1840    6.9522 N   0  0  0  0  0  0  0  0  0  0  0  0
   13.4847   43.3072    5.5572 N   0  0  0  0  0  0  0  0  0  0  0  0
   13.8345   41.7936    7.4427 N   0  0  0  0  0  0  0  0  0  0  0  0
   15.0451   44.8730    4.8027 O   0  0  0  0  0  0  0  0  0  0  0  0
   10.8594   43.1045    4.1484 Cl  0  0  0  0  0  0  0  0  0  0  0  0
   13.4421   46.0519    2.5035 S   0  0  0  0  0  0  0  0  0  0  0  0
  1  2  1  0
  2  3  1  0
  3  4  1  0
  4 15  1  0
  5 17  1  0
  5 18  1  0
  6  7  1  0
  7 22  1  0
  8 21  1  0
  8  9  1  0
 10 11  2  0
 12 13  2  0
 14 22  1  0
 14  9  2  0
 15 16  1  0
 15 19  1  0
 18  6  1  0
  5 19  2  0
  6 20  2  0
  7  8  2  0
  9 10  1  0
 11 12  1  0
 13 14  1  0
 16 17  2  0
M  END
>  <rmsd>  (1) 
0.163667619

$$$$
