MolPort-003-112-234 8959257 CSSS03437105859 MCULE-9045010206 PubChem-40887153 RCZVKESWLZZSND-UHFFFAOYSA-N ZINC000008959257 ZINC08959257
     RDKit          3D

 32 34  0  0  0  0  0  0  0  0999 V2000
    9.6398   44.2407    5.2598 C   0  0  0  0  0  0  0  0  0  0  0  0
   11.5644   44.8057    3.7999 C   0  0  0  0  0  0  0  0  0  0  0  0
   10.7069   45.2631    2.7874 C   0  0  0  0  0  0  0  0  0  0  0  0
   11.2176   45.7740    1.5981 C   0  0  0  0  0  0  0  0  0  0  0  0
   12.5943   45.8338    1.4045 C   0  0  0  0  0  0  0  0  0  0  0  0
   13.4789   45.3812    2.3954 C   0  0  0  0  0  0  0  0  0  0  0  0
   15.4430   45.9355    0.9851 C   0  0  0  0  0  0  0  0  0  0  0  0
   12.9670   44.8587    3.6086 C   0  0  0  0  0  0  0  0  0  0  0  0
   13.8925   44.3746    4.6661 C   0  0  0  0  0  0  0  0  0  0  0  0
   14.2492   42.7422    6.6167 C   0  0  0  0  0  0  0  0  0  0  0  0
   15.5486   43.1689    6.9143 C   0  0  0  0  0  0  0  0  0  0  0  0
   16.2831   42.5929    7.9565 C   0  0  0  0  0  0  0  0  0  0  0  0
   15.6870   41.5775    8.7498 C   0  0  0  0  0  0  0  0  0  0  0  0
   14.3918   41.1442    8.4255 C   0  0  0  0  0  0  0  0  0  0  0  0
   13.6816   41.7171    7.3711 C   0  0  0  0  0  0  0  0  0  0  0  0
   16.1955   39.5725   10.1748 C   0  0  0  0  0  0  0  0  0  0  0  0
   15.3401   39.3162   11.4136 C   0  0  0  0  0  0  0  0  0  0  0  0
   13.8662   39.5662   11.1449 C   0  0  0  0  0  0  0  0  0  0  0  0
   13.1329   39.6971   12.4625 C   0  0  0  0  0  0  0  0  0  0  0  0
   13.2755   38.4110   10.3592 C   0  0  0  0  0  0  0  0  0  0  0  0
   17.0588   41.8262   10.8325 C   0  0  0  0  0  0  0  0  0  0  0  0
   18.2812   42.5961   10.4221 C   0  0  0  0  0  0  0  0  0  0  0  0
   18.1042   44.0729   10.7400 C   0  0  0  0  0  0  0  0  0  0  0  0
   19.4765   42.0781   11.1994 C   0  0  0  0  0  0  0  0  0  0  0  0
   18.5763   42.4114    8.9407 C   0  0  0  0  0  0  0  0  0  0  0  0
   11.0356   44.3178    5.0020 O   0  0  0  0  0  0  0  0  0  0  0  0
   14.8626   45.4289    2.1797 O   0  0  0  0  0  0  0  0  0  0  0  0
   15.0379   44.8891    4.7803 O   0  0  0  0  0  0  0  0  0  0  0  0
   16.6818   41.8661   12.0361 O   0  0  0  0  0  0  0  0  0  0  0  0
   17.5969   43.0445    8.1264 O   0  0  0  0  0  0  0  0  0  0  0  0
   13.4848   43.3180    5.5489 N   0  0  0  0  0  0  0  0  0  0  0  0
   16.3432   41.0029    9.8967 N   0  0  0  0  0  0  0  0  0  0  0  0
  1 26  1  0
  2 26  1  0
  3  4  2  0
  5  6  2  0
  6 27  1  0
  7 27  1  0
  8  9  1  0
  8  2  2  0
  9 31  1  0
 11 12  2  0
 12 30  1  0
 13 14  2  0
 13 32  1  0
 15 10  2  0
 16 32  1  0
 16 17  1  0
 17 18  1  0
 18 19  1  0
 18 20  1  0
 22 21  1  0
 22 23  1  0
 22 24  1  0
 22 25  1  0
 25 30  1  0
 31 10  1  0
 32 21  1  0
  2  3  1  0
  4  5  1  0
  6  8  1  0
  9 28  2  0
 10 11  1  0
 12 13  1  0
 14 15  1  0
 21 29  2  0
M  END
>  <rmsd>  (1) 
0.230794013

$$$$
