MolPort-004-978-380 CSSS00159439457 MCULE-6028275498 PubChem-45159086
     RDKit          3D

 29 31  0  0  0  0  0  0  0  0999 V2000
   11.6823   39.6835    4.8644 C   0  0  0  0  0  0  0  0  0  0  0  0
   13.3459   40.3814    6.5404 C   0  0  0  0  0  0  0  0  0  0  0  0
   14.1946   41.4459    7.1187 C   0  0  0  0  0  0  0  0  0  0  0  0
   14.2811   42.7576    6.6435 C   0  0  0  0  0  0  0  0  0  0  0  0
   13.8580   44.4453    4.7773 C   0  0  0  0  0  0  0  0  0  0  0  0
   12.8345   45.0686    3.8992 C   0  0  0  0  0  0  0  0  0  0  0  0
   15.1538   43.4199    7.4893 C   0  0  0  0  0  0  0  0  0  0  0  0
   15.5542   44.7495    7.5753 C   0  0  0  0  0  0  0  0  0  0  0  0
   16.4336   45.1007    8.6195 C   0  0  0  0  0  0  0  0  0  0  0  0
   16.5213   47.5198    7.8667 C   0  0  0  0  0  0  0  0  0  0  0  0
   17.1740   48.8392    8.2663 C   0  0  0  0  0  0  0  0  0  0  0  0
   16.7357   49.9114    7.2916 C   0  0  0  0  0  0  0  0  0  0  0  0
   18.6863   48.7225    8.2144 C   0  0  0  0  0  0  0  0  0  0  0  0
   16.7427   49.2452    9.6636 C   0  0  0  0  0  0  0  0  0  0  0  0
   16.8512   44.1133    9.5385 C   0  0  0  0  0  0  0  0  0  0  0  0
   15.5751   42.4985    8.4087 C   0  0  0  0  0  0  0  0  0  0  0  0
   15.1814   40.1121    9.0343 C   0  0  0  0  0  0  0  0  0  0  0  0
   14.3318   40.2211   10.2910 C   0  0  2  0  0  0  0  0  0  0  0  0
   14.6189   39.0520   11.2016 C   0  0  0  0  0  0  0  0  0  0  0  0
   13.2726   38.6790   11.7441 C   0  0  0  0  0  0  0  0  0  0  0  0
   12.3296   39.6590   11.0865 C   0  0  0  0  0  0  0  0  0  0  0  0
   12.5148   40.6695    5.4561 O   0  0  0  0  0  0  0  0  0  0  0  0
   13.3757   39.2152    7.0200 O   0  0  0  0  0  0  0  0  0  0  0  0
   15.0358   44.8895    4.7668 O   0  0  0  0  0  0  0  0  0  0  0  0
   12.9680   40.2018    9.9625 O   0  0  0  0  0  0  0  0  0  0  0  0
   13.5039   43.3101    5.5720 N   0  0  0  0  0  0  0  0  0  0  0  0
   16.9050   46.4409    8.7707 N   0  0  0  0  0  0  0  0  0  0  0  0
   16.4114   42.8245    9.4269 N   0  0  0  0  0  0  0  0  0  0  0  0
   15.0100   41.2953    8.1980 N   0  0  0  0  0  0  0  0  0  0  0  0
  1 22  1  0
  2 22  1  0
  2  3  1  0
  4 26  1  0
  4  7  1  0
  6  5  1  0
  8  9  2  0
  9 27  1  0
 10 27  1  0
 10 11  1  0
 11 12  1  0
 11 13  1  0
 11 14  1  0
 15 28  2  0
 16 29  1  0
 16  7  2  0
 17 29  1  0
 18 17  1  6
 18 19  1  0
 18 25  1  0
 19 20  1  0
 20 21  1  0
 21 25  1  0
 26  5  1  0
 29  3  1  0
  2 23  2  0
  3  4  2  0
  5 24  2  0
  7  8  1  0
  9 15  1  0
 16 28  1  0
M  END
>  <rmsd>  (1) 
0.164331779

$$$$
