MolPort-001-580-100 CSSS00121683560 LN00925186 MCULE-2337673618 PubChem-2950106
     RDKit          3D

 27 29  0  0  0  0  0  0  0  0999 V2000
   13.4993   39.3243   11.3611 C   0  0  0  0  0  0  0  0  0  0  0  0
   14.3764   39.3124   10.1227 C   0  0  1  0  0  0  0  0  0  0  0  0
   14.3549   41.0413    8.3510 C   0  0  0  0  0  0  0  0  0  0  0  0
   15.6605   41.4608    8.6514 C   0  0  0  0  0  0  0  0  0  0  0  0
   16.2510   42.4960    7.9231 C   0  0  0  0  0  0  0  0  0  0  0  0
   15.5413   43.1165    6.8922 C   0  0  0  0  0  0  0  0  0  0  0  0
   14.2361   42.7063    6.5823 C   0  0  0  0  0  0  0  0  0  0  0  0
   13.8955   44.3893    4.6705 C   0  0  0  0  0  0  0  0  0  0  0  0
   12.9617   44.8947    3.6309 C   0  0  0  0  0  0  0  0  0  0  0  0
   13.2811   45.9471    2.7332 C   0  0  0  0  0  0  0  0  0  0  0  0
   14.5946   46.6538    2.7457 C   0  0  0  0  0  0  0  0  0  0  0  0
   12.3415   46.3617    1.7831 C   0  0  0  0  0  0  0  0  0  0  0  0
   11.0896   45.7507    1.7071 C   0  0  0  0  0  0  0  0  0  0  0  0
   10.7663   44.7166    2.5840 C   0  0  0  0  0  0  0  0  0  0  0  0
   11.6955   44.2943    3.5362 C   0  0  0  0  0  0  0  0  0  0  0  0
   13.6523   41.6686    7.3170 C   0  0  0  0  0  0  0  0  0  0  0  0
   14.7224   37.9133    9.7084 C   0  0  0  0  0  0  0  0  0  0  0  0
   13.7051   36.9516    9.2225 C   0  0  0  0  0  0  0  0  0  0  0  0
   14.0881   35.6511    8.8597 C   0  0  0  0  0  0  0  0  0  0  0  0
   13.1393   34.7345    8.3971 C   0  0  0  0  0  0  0  0  0  0  0  0
   11.7978   35.1102    8.2923 C   0  0  0  0  0  0  0  0  0  0  0  0
   11.4051   36.4023    8.6500 C   0  0  0  0  0  0  0  0  0  0  0  0
   12.3542   37.3182    9.1124 C   0  0  0  0  0  0  0  0  0  0  0  0
   13.7361   40.0077    9.0593 O   0  0  0  0  0  0  0  0  0  0  0  0
   15.0445   44.8906    4.8007 O   0  0  0  0  0  0  0  0  0  0  0  0
   15.9302   37.5599    9.7737 O   0  0  0  0  0  0  0  0  0  0  0  0
   13.4758   43.3183    5.5313 N   0  0  0  0  0  0  0  0  0  0  0  0
  2  1  1  1
  2 24  1  0
  2 17  1  0
  3 24  1  0
  4  5  2  0
  6  7  2  0
  7 27  1  0
  8  9  1  0
 10 12  2  0
 11 10  1  0
 13 14  2  0
 15  9  2  0
 16  3  2  0
 17 18  1  0
 19 20  2  0
 21 22  2  0
 23 18  2  0
 27  8  1  0
  3  4  1  0
  5  6  1  0
  7 16  1  0
  8 25  2  0
  9 10  1  0
 12 13  1  0
 14 15  1  0
 17 26  2  0
 18 19  1  0
 20 21  1  0
 22 23  1  0
M  END
>  <rmsd>  (1) 
0.234571263

$$$$
