MolPort-029-896-536 96149094 CSSS00159654518 MCULE-9308766807 PubChem-72885521 ZINC000096149094 ZINC96149094
     RDKit          3D

 23 24  0  0  0  0  0  0  0  0999 V2000
   13.0707   39.5180   12.0460 C   0  0  0  0  0  0  0  0  0  0  0  0
   14.0651   39.3652   10.9143 C   0  0  0  0  0  0  0  0  0  0  0  0
   14.9076   40.2101    9.0582 C   0  0  0  0  0  0  0  0  0  0  0  0
   13.8446   41.5906    7.2848 C   0  0  0  0  0  0  0  0  0  0  0  0
   14.2634   42.6518    6.5151 C   0  0  0  0  0  0  0  0  0  0  0  0
   13.8932   44.4110    4.7148 C   0  0  0  0  0  0  0  0  0  0  0  0
   13.3247   46.1020    2.9191 C   0  0  0  0  0  0  0  0  0  0  0  0
   13.3204   47.3803    3.7409 C   0  0  0  0  0  0  0  0  0  0  0  0
   13.6681   48.5757    2.8688 C   0  0  0  0  0  0  0  0  0  0  0  0
   12.4812   49.0379    2.0915 C   0  0  0  0  0  0  0  0  0  0  0  0
   10.8351   48.9692    0.5683 C   0  0  0  0  0  0  0  0  0  0  0  0
   10.0147   48.3621   -0.5160 C   0  0  0  0  0  0  0  0  0  0  0  0
   10.6087   50.2407    1.0852 C   0  0  0  0  0  0  0  0  0  0  0  0
    9.5435   51.1922    0.6640 C   0  0  0  0  0  0  0  0  0  0  0  0
   15.5647   42.9495    6.8772 C   0  0  0  0  0  0  0  0  0  0  0  0
   13.9635   40.4585   10.0554 O   0  0  0  0  0  0  0  0  0  0  0  0
   15.0538   44.8892    4.8362 O   0  0  0  0  0  0  0  0  0  0  0  0
   14.8850   41.2838    8.0799 N   0  0  0  0  0  0  0  0  0  0  0  0
   13.4678   43.3078    5.5218 N   0  0  0  0  0  0  0  0  0  0  0  0
   12.9844   44.9654    3.7618 N   0  0  0  0  0  0  0  0  0  0  0  0
   11.8797   48.3037    1.1283 N   0  0  0  0  0  0  0  0  0  0  0  0
   15.9150   42.0812    7.8461 N   0  0  0  0  0  0  0  0  0  0  0  0
   11.7515   50.5421    2.2801 S   0  0  0  0  0  0  0  0  0  0  0  0
  1  2  1  0
  2 16  1  0
  3 16  1  0
  3 18  1  0
  5 19  1  0
  5 15  1  0
  6 20  1  0
  7 20  1  0
  7  8  1  0
  8  9  1  0
  9 10  1  0
 10 23  1  0
 11 21  1  0
 12 11  1  0
 13 23  1  0
 14 13  1  0
 18  4  1  0
 18 22  1  0
 19  6  1  0
  4  5  2  0
  6 17  2  0
 10 21  2  0
 11 13  2  0
 15 22  2  0
M  END
>  <rmsd>  (1) 
0.23898609

$$$$
