MolPort-008-385-367 16622831 CHEMBL4952988 CSSS00160349970 MCULE-4295273166 PubChem-27241852 ZINC000016622831 ZINC16622831
     RDKit          3D

 19 20  0  0  0  0  0  0  0  0999 V2000
   12.9001   44.9068    3.7202 C   0  0  0  0  0  0  0  0  0  0  0  0
   13.8778   44.3850    4.7099 C   0  0  0  0  0  0  0  0  0  0  0  0
   14.3424   42.7145    6.5629 C   0  0  0  0  0  0  0  0  0  0  0  0
   16.1792   42.3639    7.7983 C   0  0  0  0  0  0  0  0  0  0  0  0
   17.5842   42.5948    8.2337 C   0  0  0  0  0  0  0  0  0  0  0  0
   15.3474   41.3902    8.3471 C   0  0  0  0  0  0  0  0  0  0  0  0
   14.7244   38.5302   11.2569 C   0  0  0  0  0  0  0  0  0  0  0  0
   13.5524   38.0428   12.1267 C   0  0  0  0  0  0  0  0  0  0  0  0
   12.2093   38.5611   11.6167 C   0  0  0  0  0  0  0  0  0  0  0  0
   12.2296   40.0851   11.4701 C   0  0  0  0  0  0  0  0  0  0  0  0
   13.5841   40.6031   10.9718 C   0  0  0  0  0  0  0  0  0  0  0  0
   15.0258   44.8986    4.7765 O   0  0  0  0  0  0  0  0  0  0  0  0
   16.6255   39.1641    9.0292 O   0  0  0  0  0  0  0  0  0  0  0  0
   16.5247   40.9566   10.7045 O   0  0  0  0  0  0  0  0  0  0  0  0
   13.4984   43.3071    5.5712 N   0  0  0  0  0  0  0  0  0  0  0  0
   15.6150   43.1014    6.8058 N   0  0  0  0  0  0  0  0  0  0  0  0
   14.3200   39.5463   10.2771 N   0  0  0  0  0  0  0  0  0  0  0  0
   13.8626   41.4467    7.5567 S   0  0  0  0  0  0  0  0  0  0  0  0
   15.7646   40.2471    9.6172 S   0  0  0  0  0  0  0  0  0  0  0  0
  1  2  1  0
  2 15  1  0
  3 18  1  0
  4 16  1  0
  5  4  1  0
  6 18  1  0
  7 17  1  0
  7  8  1  0
  8  9  1  0
  9 10  1  0
 10 11  1  0
 11 17  1  0
 15  3  1  0
 19  6  1  0
 19 17  1  0
  2 12  2  0
  3 16  2  0
  4  6  2  0
 19 13  2  0
 19 14  2  0
M  END
>  <rmsd>  (1) 
0.243379191

$$$$
