MolPort-002-604-707 16974898 CSSS00160675836 MCULE-5119078341 PubChem-1989596 ZINC000016974898 ZINC16974898
     RDKit          3D

 28 31  0  0  0  0  0  0  0  0999 V2000
   12.8076   39.7085   11.7522 C   0  0  0  0  0  0  0  0  0  0  0  0
   13.7823   38.9718   10.8528 C   0  0  0  0  0  0  0  0  0  0  0  0
   13.9139   39.6835    9.5185 C   0  0  0  0  0  0  0  0  0  0  0  0
   14.7651   40.9338    9.6661 C   0  0  0  0  0  0  0  0  0  0  0  0
   14.3522   42.6977    6.5831 C   0  0  0  0  0  0  0  0  0  0  0  0
   13.9354   44.2710    4.6158 C   0  0  0  0  0  0  0  0  0  0  0  0
   13.0599   44.5675    3.4567 C   0  0  0  0  0  0  0  0  0  0  0  0
   13.4145   45.5022    2.4535 C   0  0  0  0  0  0  0  0  0  0  0  0
   15.0444   47.1385    1.5507 C   0  0  0  0  0  0  0  0  0  0  0  0
   12.5333   45.7309    1.3822 C   0  0  0  0  0  0  0  0  0  0  0  0
   11.3198   45.0479    1.2978 C   0  0  0  0  0  0  0  0  0  0  0  0
   10.9708   44.1262    2.2833 C   0  0  0  0  0  0  0  0  0  0  0  0
   11.8352   43.8890    3.3529 C   0  0  0  0  0  0  0  0  0  0  0  0
   15.7190   42.4741    6.5230 C   0  0  0  0  0  0  0  0  0  0  0  0
   16.7021   42.7250    5.5710 C   0  0  0  0  0  0  0  0  0  0  0  0
   18.0037   42.2855    5.8684 C   0  0  0  0  0  0  0  0  0  0  0  0
   19.0472   42.5135    4.9688 C   0  0  0  0  0  0  0  0  0  0  0  0
   20.3388   42.0708    5.2708 C   0  0  0  0  0  0  0  0  0  0  0  0
   20.5925   41.3979    6.4711 C   0  0  0  0  0  0  0  0  0  0  0  0
   19.5572   41.1608    7.3808 C   0  0  0  0  0  0  0  0  0  0  0  0
   18.2615   41.5978    7.0949 C   0  0  0  0  0  0  0  0  0  0  0  0
   16.0025   41.8024    7.6762 C   0  0  0  0  0  0  0  0  0  0  0  0
   14.8793   41.6135    8.3854 N   0  0  0  0  0  0  0  0  0  0  0  0
   13.8602   42.1509    7.7224 N   0  0  0  0  0  0  0  0  0  0  0  0
   13.5184   43.3027    5.5874 N   0  0  0  0  0  0  0  0  0  0  0  0
   17.2479   41.3583    7.9802 N   0  0  0  0  0  0  0  0  0  0  0  0
   15.0166   44.8977    4.7780 O   0  0  0  0  0  0  0  0  0  0  0  0
   14.6319   46.1906    2.5264 O   0  0  0  0  0  0  0  0  0  0  0  0
  1  2  1  0
  2  3  1  0
  3  4  1  0
  4 23  1  0
  5 25  1  0
  5 14  1  0
  6  7  1  0
  8 28  1  0
  8 10  2  0
  9 28  1  0
 11 12  2  0
 13  7  2  0
 15 16  2  0
 17 18  2  0
 19 20  2  0
 21 26  2  0
 21 16  1  0
 22 23  1  0
 22 14  2  0
 23 24  1  0
 25  6  1  0
  5 24  2  0
  6 27  2  0
  7  8  1  0
 10 11  1  0
 12 13  1  0
 14 15  1  0
 16 17  1  0
 18 19  1  0
 20 21  1  0
 22 26  1  0
M  END
>  <rmsd>  (1) 
0.168105796

$$$$
