MolPort-007-723-438 6818289 ChemDiv-E157-5455 MCULE-8623262614 PubChem-22518003 ZINC000006818289 ZINC06818289
     RDKit          3D

 26 28  0  0  0  0  0  0  0  0999 V2000
   13.5239   39.2715   11.2308 C   0  0  0  0  0  0  0  0  0  0  0  0
   13.5622   41.7659   11.5615 C   0  0  0  0  0  0  0  0  0  0  0  0
   14.1490   43.0226   11.3378 C   0  0  0  0  0  0  0  0  0  0  0  0
   13.6021   44.1766   11.9052 C   0  0  0  0  0  0  0  0  0  0  0  0
   12.4606   44.0878   12.7049 C   0  0  0  0  0  0  0  0  0  0  0  0
   11.8665   42.8453   12.9370 C   0  0  0  0  0  0  0  0  0  0  0  0
   12.4140   41.6917   12.3688 C   0  0  0  0  0  0  0  0  0  0  0  0
   15.1372   41.6330    8.5255 C   0  0  0  0  0  0  0  0  0  0  0  0
   14.2383   42.7841    6.6370 C   0  0  0  0  0  0  0  0  0  0  0  0
   13.9113   44.3468    4.6594 C   0  0  0  0  0  0  0  0  0  0  0  0
   13.0258   44.8026    3.5735 C   0  0  0  0  0  0  0  0  0  0  0  0
   13.4408   45.8161    2.6968 C   0  0  0  0  0  0  0  0  0  0  0  0
   12.6000   46.2479    1.6669 C   0  0  0  0  0  0  0  0  0  0  0  0
   11.3380   45.6698    1.5059 C   0  0  0  0  0  0  0  0  0  0  0  0
   10.9167   44.6598    2.3748 C   0  0  0  0  0  0  0  0  0  0  0  0
   11.7575   44.2279    3.4047 C   0  0  0  0  0  0  0  0  0  0  0  0
   14.1225   40.5742   10.9736 N   0  0  0  0  0  0  0  0  0  0  0  0
   15.9804   42.5603    8.0220 N   0  0  0  0  0  0  0  0  0  0  0  0
   15.4803   43.2022    6.9681 N   0  0  0  0  0  0  0  0  0  0  0  0
   13.4740   43.3102    5.5481 N   0  0  0  0  0  0  0  0  0  0  0  0
   15.5055   40.6416    9.9218 S   0  0  0  0  0  0  0  0  0  0  0  0
   13.6916   41.5683    7.6633 S   0  0  0  0  0  0  0  0  0  0  0  0
   15.8687   39.2595    9.4553 O   0  0  0  0  0  0  0  0  0  0  0  0
   16.6699   41.2251   10.6717 O   0  0  0  0  0  0  0  0  0  0  0  0
   15.0499   44.8709    4.8022 O   0  0  0  0  0  0  0  0  0  0  0  0
   13.1282   47.5130    0.5792 Cl  0  0  0  0  0  0  0  0  0  0  0  0
  1 17  1  0
  3  4  2  0
  5  6  2  0
  7  2  2  0
  8 22  1  0
  9 20  1  0
  9 22  1  0
 10 11  1  0
 12 13  2  0
 13 26  1  0
 14 15  2  0
 16 11  2  0
 17  2  1  0
 18 19  1  0
 20 10  1  0
 21 17  1  0
 21  8  1  0
  2  3  1  0
  4  5  1  0
  6  7  1  0
  8 18  2  0
  9 19  2  0
 10 25  2  0
 11 12  1  0
 13 14  1  0
 15 16  1  0
 21 23  2  0
 21 24  2  0
M  END
>  <rmsd>  (1) 
0.201083824

$$$$
