MolPort-005-116-032 14954796 CSSS00160028336 PubChem-26318516 ZINC000014954796
     RDKit          3D

 32 35  0  0  0  0  0  0  0  0999 V2000
   15.0625   44.8824    4.8219 O   0  0  0  0  0  0  0  0  0  0  0  0
   11.1549   46.3828    3.2286 O   0  0  0  0  0  0  0  0  0  0  0  0
   13.9217   44.3698    4.6715 C   0  0  0  0  0  0  0  0  0  0  0  0
   13.0166   44.8936    3.6147 C   0  0  0  0  0  0  0  0  0  0  0  0
   12.1069   45.9605    4.1992 C   0  0  0  0  0  0  0  0  0  0  0  0
   10.0555   45.6070    2.8434 C   0  0  0  0  0  0  0  0  0  0  0  0
    9.7767   44.3701    3.4492 C   0  0  0  0  0  0  0  0  0  0  0  0
    8.6686   43.6207    3.0438 C   0  0  0  0  0  0  0  0  0  0  0  0
    7.8320   44.1020    2.0330 C   0  0  0  0  0  0  0  0  0  0  0  0
    8.1031   45.3326    1.4283 C   0  0  0  0  0  0  0  0  0  0  0  0
    9.2117   46.0824    1.8337 C   0  0  0  0  0  0  0  0  0  0  0  0
   14.2171   42.7224    6.5922 C   0  0  0  0  0  0  0  0  0  0  0  0
   15.4958   43.0665    6.9888 C   0  0  0  0  0  0  0  0  0  0  0  0
   15.7407   42.2132    8.0593 C   0  0  0  0  0  0  0  0  0  0  0  0
   12.4213   41.1328    7.2817 C   0  0  0  0  0  0  0  0  0  0  0  0
   12.5067   39.5983    7.2459 C   0  0  0  0  0  0  0  0  0  0  0  0
   12.1990   38.9555    8.6004 C   0  0  0  0  0  0  0  0  0  0  0  0
   12.4961   39.0916   10.9206 C   0  0  0  0  0  0  0  0  0  0  0  0
   13.5664   39.4955   11.8787 C   0  0  0  0  0  0  0  0  0  0  0  0
   14.8474   39.2745   11.5976 C   0  0  0  0  0  0  0  0  0  0  0  0
   15.9384   39.6597   12.5028 C   0  0  0  0  0  0  0  0  0  0  0  0
   17.2573   39.3924   12.1196 C   0  0  0  0  0  0  0  0  0  0  0  0
   18.3206   39.7481   12.9551 C   0  0  0  0  0  0  0  0  0  0  0  0
   18.0689   40.3740   14.1794 C   0  0  0  0  0  0  0  0  0  0  0  0
   16.7542   40.6446   14.5688 C   0  0  0  0  0  0  0  0  0  0  0  0
   15.6908   40.2892   13.7335 C   0  0  0  0  0  0  0  0  0  0  0  0
   11.6964   40.9682    9.7480 C   0  0  0  0  0  0  0  0  0  0  0  0
   11.5001   41.6650    8.3887 C   0  0  0  0  0  0  0  0  0  0  0  0
   13.4673   43.3114    5.5219 N   0  0  0  0  0  0  0  0  0  0  0  0
   14.6656   41.4242    8.2681 N   0  0  0  0  0  0  0  0  0  0  0  0
   13.7490   41.7363    7.3694 N   0  0  0  0  0  0  0  0  0  0  0  0
   12.6262   39.8377    9.6792 N   0  0  0  0  0  0  0  0  0  0  0  0
  3 29  1  0
  4  3  1  0
  4  5  1  0
  5  2  1  0
  6  2  1  0
  7  8  2  0
  9 10  2  0
 11  6  2  0
 13 14  1  0
 15 31  1  0
 15 16  1  0
 16 17  1  0
 17 32  1  0
 18 32  1  0
 18 19  1  0
 20 21  1  0
 22 23  2  0
 24 25  2  0
 26 21  2  0
 27 32  1  0
 27 28  1  0
 28 15  1  0
 29 12  1  0
 31 30  1  0
 31 12  1  0
  3  1  2  0
  6  7  1  0
  8  9  1  0
 10 11  1  0
 12 13  2  0
 14 30  2  0
 19 20  2  0
 21 22  1  0
 23 24  1  0
 25 26  1  0
M  END
>  <rmsd>  (1) 
0.207617372

$$$$
