MolPort-020-292-989 MCULE-3525130051 PubChem-110265456
     RDKit          3D

 27 30  0  0  0  0  0  0  0  0999 V2000
   12.9019   39.3417   11.4610 C   0  0  0  0  0  0  0  0  0  0  0  0
   13.5716   40.4741   10.6996 C   0  0  0  0  0  0  0  0  0  0  0  0
   13.7298   40.0763    9.2378 C   0  0  2  0  0  0  0  0  0  0  0  0
   14.5201   38.7662    9.1279 C   0  0  0  0  0  0  0  0  0  0  0  0
   13.7178   38.0543   11.3031 C   0  0  0  0  0  0  0  0  0  0  0  0
   12.6181   37.2984    9.3083 C   0  0  0  0  0  0  0  0  0  0  0  0
   12.8132   36.3232    8.1907 C   0  0  0  0  0  0  0  0  0  0  0  0
   12.5293   36.7395    6.8854 C   0  0  0  0  0  0  0  0  0  0  0  0
   12.6944   35.8601    5.8123 C   0  0  0  0  0  0  0  0  0  0  0  0
   13.1407   34.5564    6.0402 C   0  0  0  0  0  0  0  0  0  0  0  0
   13.4190   34.1307    7.3416 C   0  0  0  0  0  0  0  0  0  0  0  0
   13.2562   35.0056    8.4207 C   0  0  0  0  0  0  0  0  0  0  0  0
   14.3852   41.1652    8.4499 C   0  0  0  0  0  0  0  0  0  0  0  0
   14.2451   42.7298    6.6575 C   0  0  0  0  0  0  0  0  0  0  0  0
   15.5395   43.1861    6.9408 C   0  0  0  0  0  0  0  0  0  0  0  0
   16.2566   42.6177    7.9936 C   0  0  0  0  0  0  0  0  0  0  0  0
   15.6814   41.6015    8.7553 C   0  0  0  0  0  0  0  0  0  0  0  0
   13.8424   44.3207    4.6750 C   0  0  0  0  0  0  0  0  0  0  0  0
   13.2771   45.6947    2.8326 C   0  0  0  0  0  0  0  0  0  0  0  0
   14.5214   46.3184    2.8991 C   0  0  0  0  0  0  0  0  0  0  0  0
   15.4143   45.9067    3.8864 C   0  0  0  0  0  0  0  0  0  0  0  0
   13.9041   37.6730    9.8957 N   0  0  0  0  0  0  0  0  0  0  0  0
   13.7076   41.7365    7.4171 N   0  0  0  0  0  0  0  0  0  0  0  0
   13.4648   43.2795    5.5861 N   0  0  0  0  0  0  0  0  0  0  0  0
   12.9613   44.7125    3.7166 N   0  0  0  0  0  0  0  0  0  0  0  0
   15.0619   44.9211    4.7521 N   0  0  0  0  0  0  0  0  0  0  0  0
   13.5989   34.4132   10.0392 Cl  0  0  0  0  0  0  0  0  0  0  0  0
  1  2  1  0
  2  3  1  0
  3  4  1  0
  3 13  1  6
  4 22  1  0
  5 22  1  0
  5  1  1  0
  6 22  1  0
  6  7  1  0
  8  9  2  0
 10 11  2  0
 12 27  1  0
 12  7  2  0
 14 23  2  0
 14 24  1  0
 15 16  2  0
 17 13  2  0
 18 26  2  0
 19 25  2  0
 20 21  2  0
 24 18  1  0
  7  8  1  0
  9 10  1  0
 11 12  1  0
 13 23  1  0
 14 15  1  0
 16 17  1  0
 18 25  1  0
 19 20  1  0
 21 26  1  0
M  END
>  <rmsd>  (1) 
0.248967841

$$$$
