Molport-020-292-510 MCULE-9265781753
     RDKit          3D

 33 37  0  0  0  0  0  0  0  0999 V2000
   13.8005   35.9793    8.1902 C   0  0  0  0  0  0  0  0  0  0  0  0
   13.8120   34.6860    7.6940 C   0  0  0  0  0  0  0  0  0  0  0  0
   13.9315   33.4059    8.4731 C   0  0  0  0  0  0  0  0  0  0  0  0
   13.3270   32.2319    7.7109 C   0  0  0  0  0  0  0  0  0  0  0  0
   14.2876   31.6473    6.6677 C   0  0  0  0  0  0  0  0  0  0  0  0
   14.9437   32.6771    5.7387 C   0  0  0  0  0  0  0  0  0  0  0  0
   13.9688   33.7628    5.2942 C   0  0  0  0  0  0  0  0  0  0  0  0
   13.9003   34.8491    6.3222 C   0  0  0  0  0  0  0  0  0  0  0  0
   13.7463   36.3797    9.6175 C   0  0  0  0  0  0  0  0  0  0  0  0
   13.7673   38.0937   11.4493 C   0  0  0  0  0  0  0  0  0  0  0  0
   13.0040   39.4081   11.5912 C   0  0  0  0  0  0  0  0  0  0  0  0
   13.6723   40.4991   10.7581 C   0  0  0  0  0  0  0  0  0  0  0  0
   13.7329   40.0725    9.2925 C   0  0  2  0  0  0  0  0  0  0  0  0
   14.4971   38.7570    9.1546 C   0  0  0  0  0  0  0  0  0  0  0  0
   14.3651   41.1350    8.4558 C   0  0  0  0  0  0  0  0  0  0  0  0
   13.6330   41.7177    7.4185 C   0  0  0  0  0  0  0  0  0  0  0  0
   14.2232   42.7015    6.6211 C   0  0  0  0  0  0  0  0  0  0  0  0
   15.5491   43.0809    6.8743 C   0  0  0  0  0  0  0  0  0  0  0  0
   16.2519   42.4783    7.9191 C   0  0  0  0  0  0  0  0  0  0  0  0
   17.6577   42.8760    8.1948 C   0  0  0  0  0  0  0  0  0  0  0  0
   13.8511   44.3278    4.6591 C   0  0  0  0  0  0  0  0  0  0  0  0
   12.9723   44.7503    3.6471 C   0  0  0  0  0  0  0  0  0  0  0  0
   13.3681   45.7701    2.7782 C   0  0  0  0  0  0  0  0  0  0  0  0
   14.6249   46.3598    2.9192 C   0  0  0  0  0  0  0  0  0  0  0  0
   15.4731   45.9173    3.9353 C   0  0  0  0  0  0  0  0  0  0  0  0
   11.6263   44.1323    3.4789 C   0  0  0  0  0  0  0  0  0  0  0  0
   13.9092   36.1609    6.0233 N   0  0  0  0  0  0  0  0  0  0  0  0
   13.8443   36.8464    7.1562 N   0  0  0  0  0  0  0  0  0  0  0  0
   13.9104   37.7490   10.0357 N   0  0  0  0  0  0  0  0  0  0  0  0
   15.6520   41.5256    8.6821 N   0  0  0  0  0  0  0  0  0  0  0  0
   13.4505   43.2831    5.5609 N   0  0  0  0  0  0  0  0  0  0  0  0
   15.0725   44.9232    4.7735 N   0  0  0  0  0  0  0  0  0  0  0  0
   13.5341   35.4920   10.4893 O   0  0  0  0  0  0  0  0  0  0  0  0
  1  9  1  0
  3  2  1  0
  3  4  1  0
  4  5  1  0
  5  6  1  0
  6  7  1  0
  7  8  1  0
  8  2  1  0
  9 29  1  0
 10 29  1  0
 10 11  1  0
 11 12  1  0
 12 13  1  0
 13 14  1  0
 13 15  1  6
 14 29  1  0
 15 30  2  0
 16 17  2  0
 17 31  1  0
 18 19  2  0
 20 19  1  0
 21 32  2  0
 22 23  2  0
 24 25  2  0
 26 22  1  0
 28 27  1  0
 28  1  1  0
 31 21  1  0
  1  2  2  0
  8 27  2  0
  9 33  2  0
 15 16  1  0
 17 18  1  0
 19 30  1  0
 21 22  1  0
 23 24  1  0
 25 32  1  0
M  END
>  <rmsd>  (1) 
0.242043048

$$$$
