Molport-051-836-447 MCULE-6687774003 MCULE-7570445166
     RDKit          3D

 29 32  0  0  0  0  0  0  0  0999 V2000
   12.0121   42.5358    3.1946 C   0  0  0  0  0  0  0  0  0  0  0  0
   12.1239   43.9909    2.8851 C   0  0  0  0  0  0  0  0  0  0  0  0
   13.0362   44.8463    3.5425 C   0  0  0  0  0  0  0  0  0  0  0  0
   13.9186   44.3629    4.6387 C   0  0  0  0  0  0  0  0  0  0  0  0
   14.1948   42.7431    6.6127 C   0  0  0  0  0  0  0  0  0  0  0  0
   13.5816   41.7382    7.3688 C   0  0  0  0  0  0  0  0  0  0  0  0
   14.2506   41.1418    8.4426 C   0  0  0  0  0  0  0  0  0  0  0  0
   14.1784   39.5029   10.3069 C   0  0  0  0  0  0  0  0  0  0  0  0
   13.4104   38.2311   10.6211 C   0  0  0  0  0  0  0  0  0  0  0  0
   12.7074   38.4642   11.9412 C   0  0  0  0  0  0  0  0  0  0  0  0
   13.5090   39.5369   12.6371 C   0  0  0  0  0  0  0  0  0  0  0  0
   14.0557   40.4033   11.5259 C   0  0  0  0  0  0  0  0  0  0  0  0
   15.5535   41.5577    8.7595 C   0  0  0  0  0  0  0  0  0  0  0  0
   16.1736   42.5597    8.0098 C   0  0  0  0  0  0  0  0  0  0  0  0
   15.4966   43.1504    6.9401 C   0  0  0  0  0  0  0  0  0  0  0  0
   13.0851   46.1948    3.1192 C   0  0  0  0  0  0  0  0  0  0  0  0
   11.4266   45.8414    1.5132 C   0  0  0  0  0  0  0  0  0  0  0  0
   11.3194   44.4944    1.8671 C   0  0  0  0  0  0  0  0  0  0  0  0
   10.5772   46.4198    0.4266 C   0  0  2  0  0  0  0  0  0  0  0  0
    9.0921   46.3561    0.8003 C   0  0  0  0  0  0  0  0  0  0  0  0
    8.2143   46.5971   -0.4259 C   0  0  0  0  0  0  0  0  0  0  0  0
    8.5967   45.6865   -1.6060 C   0  0  0  0  0  0  0  0  0  0  0  0
   10.8768   45.7576   -0.9276 C   0  0  0  0  0  0  0  0  0  0  0  0
   15.0547   44.8852    4.8011 O   0  0  0  0  0  0  0  0  0  0  0  0
   13.6017   40.1392    9.1713 O   0  0  0  0  0  0  0  0  0  0  0  0
   13.8679   47.0145    3.6698 O   0  0  0  0  0  0  0  0  0  0  0  0
   12.2931   46.6266    2.1420 O   0  0  0  0  0  0  0  0  0  0  0  0
   13.4685   43.3234    5.5208 N   0  0  0  0  0  0  0  0  0  0  0  0
    9.7850   44.8736   -1.3316 N   0  0  0  0  0  0  0  0  0  0  0  0
  1  2  1  0
  3  4  1  0
  3 16  1  0
  4 28  1  0
  6  7  2  0
  7 25  1  0
  8 25  1  0
  8  9  1  0
  9 10  1  0
 10 11  1  0
 11 12  1  0
 12  8  1  0
 13 14  2  0
 15  5  2  0
 16 27  1  0
 17 27  1  0
 18  2  1  0
 19 17  1  1
 19 20  1  0
 20 21  1  0
 21 22  1  0
 22 29  1  0
 23 29  1  0
 23 19  1  0
 28  5  1  0
  2  3  2  0
  4 24  2  0
  5  6  1  0
  7 13  1  0
 14 15  1  0
 16 26  2  0
 17 18  2  0
M  END
>  <rmsd>  (1) 
0.247298241

$$$$
