MolPort-006-579-633 ChemDiv-V012-7707 MCULE-4229415263 PubChem-46040595 ZINC000037544351 ZINC37544351
     RDKit          3D

 27 29  0  0  0  0  0  0  0  0999 V2000
   12.6275   46.1909    3.6468 C   0  0  0  0  0  0  0  0  0  0  0  0
   13.0123   44.7293    3.5246 C   0  0  0  0  0  0  0  0  0  0  0  0
   13.6807   44.4829    2.1860 C   0  0  0  0  0  0  0  0  0  0  0  0
   13.9179   44.3301    4.6430 C   0  0  0  0  0  0  0  0  0  0  0  0
   14.2411   42.7546    6.6389 C   0  0  0  0  0  0  0  0  0  0  0  0
   15.5763   43.1098    6.8728 C   0  0  0  0  0  0  0  0  0  0  0  0
   16.2819   42.5401    7.9343 C   0  0  0  0  0  0  0  0  0  0  0  0
   15.6566   41.6120    8.7692 C   0  0  0  0  0  0  0  0  0  0  0  0
   14.3208   41.2369    8.5502 C   0  0  0  0  0  0  0  0  0  0  0  0
   13.6247   41.8224    7.4793 C   0  0  0  0  0  0  0  0  0  0  0  0
   14.1425   40.2385   10.8311 C   0  0  0  0  0  0  0  0  0  0  0  0
   13.8407   38.8901   11.4744 C   0  0  0  0  0  0  0  0  0  0  0  0
   12.3452   38.6349   11.3912 C   0  0  0  0  0  0  0  0  0  0  0  0
   12.5276   39.5095    9.0477 C   0  0  0  0  0  0  0  0  0  0  0  0
   10.8644   37.6906    9.6071 C   0  0  0  0  0  0  0  0  0  0  0  0
   11.4319   36.5192    8.8771 C   0  0  0  0  0  0  0  0  0  0  0  0
   12.0822   35.5006    9.5837 C   0  0  0  0  0  0  0  0  0  0  0  0
   12.6246   34.4090    8.8986 C   0  0  0  0  0  0  0  0  0  0  0  0
   12.5183   34.3347    7.5064 C   0  0  0  0  0  0  0  0  0  0  0  0
   11.8722   35.3533    6.7987 C   0  0  0  0  0  0  0  0  0  0  0  0
   11.3303   36.4455    7.4836 C   0  0  0  0  0  0  0  0  0  0  0  0
   15.0411   44.8893    4.7768 O   0  0  0  0  0  0  0  0  0  0  0  0
   12.0757   39.5694    7.8712 O   0  0  0  0  0  0  0  0  0  0  0  0
   13.4843   43.3138    5.5563 N   0  0  0  0  0  0  0  0  0  0  0  0
   13.6780   40.2962    9.4390 N   0  0  0  0  0  0  0  0  0  0  0  0
   11.9254   38.6115    9.9962 N   0  0  0  0  0  0  0  0  0  0  0  0
   13.0417   33.2751    6.8439 F   0  0  0  0  0  0  0  0  0  0  0  0
  1  2  1  0
  2  3  1  0
  2  4  1  0
  4 24  1  0
  6  7  2  0
  8  9  2  0
  9 25  1  0
 10  5  2  0
 11 25  1  0
 11 12  1  0
 12 13  1  0
 13 26  1  0
 14 25  1  0
 15 26  1  0
 15 16  1  0
 17 18  2  0
 19 20  2  0
 19 27  1  0
 21 16  2  0
 24  5  1  0
 26 14  1  0
  4 22  2  0
  5  6  1  0
  7  8  1  0
  9 10  1  0
 14 23  2  0
 16 17  1  0
 18 19  1  0
 20 21  1  0
M  END
>  <rmsd>  (1) 
0.234564155

$$$$
