Molport-052-054-263
     RDKit          3D

 26 28  0  0  0  0  0  0  0  0999 V2000
   12.2954   41.9441   10.2579 C   0  0  0  0  0  0  0  0  0  0  0  0
   13.6679   41.2703   10.0404 C   0  0  2  0  0  0  0  0  0  0  0  0
   13.4081   39.2269   11.3829 C   0  0  0  0  0  0  0  0  0  0  0  0
   12.6438   39.2201    9.0646 C   0  0  0  0  0  0  0  0  0  0  0  0
   13.1278   37.8841    8.5857 C   0  0  0  0  0  0  0  0  0  0  0  0
   14.2703   37.7909    7.7766 C   0  0  0  0  0  0  0  0  0  0  0  0
   14.7162   36.5337    7.3640 C   0  0  0  0  0  0  0  0  0  0  0  0
   14.0239   35.3877    7.7597 C   0  0  0  0  0  0  0  0  0  0  0  0
   12.8912   35.5177    8.5678 C   0  0  0  0  0  0  0  0  0  0  0  0
   14.3566   41.7539    8.7879 C   0  0  0  0  0  0  0  0  0  0  0  0
   16.3425   41.9092    7.5057 C   0  0  0  0  0  0  0  0  0  0  0  0
   17.8078   41.6424    7.3682 C   0  0  0  0  0  0  0  0  0  0  0  0
   15.6279   42.4951    6.4564 C   0  0  0  0  0  0  0  0  0  0  0  0
   14.2520   42.7132    6.6178 C   0  0  0  0  0  0  0  0  0  0  0  0
   13.9106   44.2588    4.6341 C   0  0  0  0  0  0  0  0  0  0  0  0
   15.2388   45.8426    3.7605 C   0  0  0  0  0  0  0  0  0  0  0  0
   14.1865   45.9031    2.8532 C   0  0  0  0  0  0  0  0  0  0  0  0
   14.1388   46.7555    1.6297 C   0  0  0  0  0  0  0  0  0  0  0  0
   13.6087   39.7856   10.0336 N   0  0  0  0  0  0  0  0  0  0  0  0
   12.4733   36.7506    8.9617 N   0  0  0  0  0  0  0  0  0  0  0  0
   15.6926   41.5479    8.6429 N   0  0  0  0  0  0  0  0  0  0  0  0
   13.4480   43.2763    5.5700 N   0  0  0  0  0  0  0  0  0  0  0  0
   15.0748   44.9361    4.7600 N   0  0  0  0  0  0  0  0  0  0  0  0
   13.6493   42.3170    7.7699 N   0  0  0  0  0  0  0  0  0  0  0  0
   14.4483   34.1613    7.3664 F   0  0  0  0  0  0  0  0  0  0  0  0
   13.0248   44.7691    3.2974 S   0  0  0  0  0  0  0  0  0  0  0  0
  2  1  1  6
  2 19  1  0
  2 10  1  0
  3 19  1  0
  4 19  1  0
  4  5  1  0
  5 20  2  0
  6  7  2  0
  8 25  1  0
  8  9  2  0
 10 24  2  0
 11 21  2  0
 12 11  1  0
 13 14  2  0
 14 22  1  0
 15 26  1  0
 16 23  1  0
 17 26  1  0
 18 17  1  0
 22 15  1  0
  5  6  1  0
  7  8  1  0
  9 20  1  0
 10 21  1  0
 11 13  1  0
 14 24  1  0
 15 23  2  0
 16 17  2  0
M  END
>  <rmsd>  (1) 
0.241354302

$$$$
