Molport-020-293-006 MCULE-2810227855 PubChem-110265473
     RDKit          3D

 29 32  0  0  0  0  0  0  0  0999 V2000
   14.2272   39.4713    3.4525 C   0  0  0  0  0  0  0  0  0  0  0  0
   13.3155   38.5658    4.2515 C   0  0  0  0  0  0  0  0  0  0  0  0
   14.0557   37.2770    4.6051 C   0  0  0  0  0  0  0  0  0  0  0  0
   13.1381   36.3628    5.4129 C   0  0  0  0  0  0  0  0  0  0  0  0
   11.9675   38.3705    6.3550 C   0  0  0  0  0  0  0  0  0  0  0  0
   12.8701   39.2823    5.5239 C   0  0  0  0  0  0  0  0  0  0  0  0
   12.7295   36.5151    7.8892 C   0  0  0  0  0  0  0  0  0  0  0  0
   12.3536   37.3129    9.1019 C   0  0  0  0  0  0  0  0  0  0  0  0
   13.0745   38.1460   11.1841 C   0  0  0  0  0  0  0  0  0  0  0  0
   13.8077   39.3800   11.7152 C   0  0  0  0  0  0  0  0  0  0  0  0
   13.5845   40.5717   10.7800 C   0  0  0  0  0  0  0  0  0  0  0  0
   13.6084   40.1647    9.2999 C   0  0  2  0  0  0  0  0  0  0  0  0
   14.2367   38.7822    9.0932 C   0  0  0  0  0  0  0  0  0  0  0  0
   14.3068   41.1895    8.4660 C   0  0  0  0  0  0  0  0  0  0  0  0
   14.2214   42.7024    6.6276 C   0  0  0  0  0  0  0  0  0  0  0  0
   15.5676   43.0381    6.8284 C   0  0  0  0  0  0  0  0  0  0  0  0
   16.2813   42.4375    7.8649 C   0  0  0  0  0  0  0  0  0  0  0  0
   15.6533   41.5064    8.6905 C   0  0  0  0  0  0  0  0  0  0  0  0
   13.8682   44.2964    4.6426 C   0  0  0  0  0  0  0  0  0  0  0  0
   13.0128   44.6621    3.5995 C   0  0  0  0  0  0  0  0  0  0  0  0
   13.4091   45.6582    2.7034 C   0  0  0  0  0  0  0  0  0  0  0  0
   14.6484   46.2815    2.8582 C   0  0  0  0  0  0  0  0  0  0  0  0
   15.4762   45.8952    3.9145 C   0  0  0  0  0  0  0  0  0  0  0  0
   12.6337   37.0875    6.5772 N   0  0  0  0  0  0  0  0  0  0  0  0
   13.5411   37.7218    9.8485 N   0  0  0  0  0  0  0  0  0  0  0  0
   13.6322   41.7909    7.4486 N   0  0  0  0  0  0  0  0  0  0  0  0
   13.4499   43.2789    5.5638 N   0  0  0  0  0  0  0  0  0  0  0  0
   15.0727   44.9212    4.7747 N   0  0  0  0  0  0  0  0  0  0  0  0
   13.1520   35.3373    8.0346 O   0  0  0  0  0  0  0  0  0  0  0  0
  1  2  1  0
  2  3  1  0
  3  4  1  0
  4 24  1  0
  5 24  1  0
  5  6  1  0
  6  2  1  0
  8  7  1  0
  8 25  1  0
  9 25  1  0
  9 10  1  0
 10 11  1  0
 11 12  1  0
 12 13  1  0
 12 14  1  6
 13 25  1  0
 15 26  2  0
 15 27  1  0
 16 17  2  0
 18 14  2  0
 19 28  2  0
 20 21  2  0
 22 23  2  0
 24  7  1  0
 27 19  1  0
  7 29  2  0
 14 26  1  0
 15 16  1  0
 17 18  1  0
 19 20  1  0
 21 22  1  0
 23 28  1  0
M  END
>  <rmsd>  (1) 
0.244621351

$$$$
