MolPort-006-579-667 ChemDiv-V018-1028 MCULE-7774224366 PubChem-46040631 ZINC000037543390 ZINC37543390
     RDKit          3D

 32 35  0  0  0  0  0  0  0  0999 V2000
   11.2577   33.5839   11.8967 C   0  0  0  0  0  0  0  0  0  0  0  0
   11.3944   34.4809   10.7206 C   0  0  0  0  0  0  0  0  0  0  0  0
   11.9720   34.0033    9.5394 C   0  0  0  0  0  0  0  0  0  0  0  0
   12.1001   34.8478    8.4321 C   0  0  0  0  0  0  0  0  0  0  0  0
   11.6488   36.1693    8.5051 C   0  0  0  0  0  0  0  0  0  0  0  0
   11.0666   36.6471    9.6854 C   0  0  0  0  0  0  0  0  0  0  0  0
   10.6092   38.0640    9.7760 C   0  0  0  0  0  0  0  0  0  0  0  0
   12.1731   39.0555   11.4776 C   0  0  0  0  0  0  0  0  0  0  0  0
   13.6838   38.9163   11.5252 C   0  0  0  0  0  0  0  0  0  0  0  0
   14.3301   40.0515   10.7291 C   0  0  0  0  0  0  0  0  0  0  0  0
   12.4878   39.5820    9.0627 C   0  0  0  0  0  0  0  0  0  0  0  0
   14.3769   41.1653    8.4893 C   0  0  0  0  0  0  0  0  0  0  0  0
   15.7367   41.4827    8.6477 C   0  0  0  0  0  0  0  0  0  0  0  0
   16.3605   42.3943    7.7927 C   0  0  0  0  0  0  0  0  0  0  0  0
   15.6305   43.0047    6.7711 C   0  0  0  0  0  0  0  0  0  0  0  0
   14.2709   42.7098    6.5999 C   0  0  0  0  0  0  0  0  0  0  0  0
   13.9066   44.3482    4.6647 C   0  0  0  0  0  0  0  0  0  0  0  0
   12.9856   44.7826    3.5773 C   0  0  0  0  0  0  0  0  0  0  0  0
   14.3675   44.9285    1.5202 C   0  0  0  0  0  0  0  0  0  0  0  0
   14.8742   46.1939    1.8635 C   0  0  0  0  0  0  0  0  0  0  0  0
   15.8108   46.8252    1.0396 C   0  0  0  0  0  0  0  0  0  0  0  0
   16.2459   46.1986   -0.1325 C   0  0  0  0  0  0  0  0  0  0  0  0
   15.7410   44.9424   -0.4814 C   0  0  0  0  0  0  0  0  0  0  0  0
   14.8041   44.3101    0.3425 C   0  0  0  0  0  0  0  0  0  0  0  0
   13.6567   41.7935    7.4589 C   0  0  0  0  0  0  0  0  0  0  0  0
   10.9453   35.8031   10.7949 C   0  0  0  0  0  0  0  0  0  0  0  0
   11.7292   38.9399   10.0965 N   0  0  0  0  0  0  0  0  0  0  0  0
   13.7324   40.2418    9.3960 N   0  0  0  0  0  0  0  0  0  0  0  0
   13.4888   43.3094    5.5588 N   0  0  0  0  0  0  0  0  0  0  0  0
   12.0863   39.5291    7.8677 O   0  0  0  0  0  0  0  0  0  0  0  0
   15.0345   44.8957    4.7814 O   0  0  0  0  0  0  0  0  0  0  0  0
   13.4284   44.2715    2.3237 O   0  0  0  0  0  0  0  0  0  0  0  0
  1  2  1  0
  3  4  2  0
  5  6  2  0
  7  6  1  0
  7 27  1  0
  8 27  1  0
  8  9  1  0
  9 10  1  0
 10 28  1  0
 11 27  1  0
 13 14  2  0
 15 16  2  0
 16 29  1  0
 18 17  1  0
 18 32  1  0
 19 32  1  0
 20 21  2  0
 22 23  2  0
 24 19  2  0
 25 12  2  0
 26  2  2  0
 28 11  1  0
 28 12  1  0
 29 17  1  0
  2  3  1  0
  4  5  1  0
  6 26  1  0
 11 30  2  0
 12 13  1  0
 14 15  1  0
 16 25  1  0
 17 31  2  0
 19 20  1  0
 21 22  1  0
 23 24  1  0
M  END
>  <rmsd>  (1) 
0.235772416

$$$$
