MolPort-046-958-385 MCULE-1235616481 PubChem-110093605
     RDKit          3D

 32 36  0  0  0  0  0  0  0  0999 V2000
   17.5673   43.0066    8.3574 C   0  0  0  0  0  0  0  0  0  0  0  0
   16.1935   42.5509    8.0219 C   0  0  0  0  0  0  0  0  0  0  0  0
   15.5023   43.1411    6.9623 C   0  0  0  0  0  0  0  0  0  0  0  0
   14.2075   42.7052    6.6528 C   0  0  0  0  0  0  0  0  0  0  0  0
   13.6323   41.6848    7.4138 C   0  0  0  0  0  0  0  0  0  0  0  0
   14.3525   41.1165    8.4677 C   0  0  0  0  0  0  0  0  0  0  0  0
   13.7331   40.0252    9.2761 C   0  0  2  0  0  0  0  0  0  0  0  0
   13.6055   40.4442   10.7423 C   0  0  0  0  0  0  0  0  0  0  0  0
   12.9684   39.3240   11.5619 C   0  0  0  0  0  0  0  0  0  0  0  0
   13.8032   38.0527   11.4438 C   0  0  0  0  0  0  0  0  0  0  0  0
   14.5481   38.7377    9.1540 C   0  0  0  0  0  0  0  0  0  0  0  0
   13.5793   36.4446    9.5104 C   0  0  0  0  0  0  0  0  0  0  0  0
   13.0546   35.3739   10.4137 C   0  0  0  0  0  0  0  0  0  0  0  0
   14.1001   34.3295   10.6501 C   0  0  0  0  0  0  0  0  0  0  0  0
   15.0191   34.2788   11.6858 C   0  0  0  0  0  0  0  0  0  0  0  0
   15.3939   32.6385   10.3981 C   0  0  0  0  0  0  0  0  0  0  0  0
   13.7499   32.8975    8.6940 C   0  0  0  0  0  0  0  0  0  0  0  0
   14.2373   31.7501    8.0524 C   0  0  0  0  0  0  0  0  0  0  0  0
   15.3235   31.0511    8.6128 C   0  0  0  0  0  0  0  0  0  0  0  0
   15.9198   31.4935    9.8049 C   0  0  0  0  0  0  0  0  0  0  0  0
   15.1202   35.2406   12.8171 C   0  0  0  0  0  0  0  0  0  0  0  0
   13.8768   44.3210    4.6953 C   0  0  0  0  0  0  0  0  0  0  0  0
   15.2055   45.8875    3.7944 C   0  0  0  0  0  0  0  0  0  0  0  0
   14.1021   46.0462    2.9548 C   0  0  0  0  0  0  0  0  0  0  0  0
   15.6105   41.5595    8.7468 N   0  0  0  0  0  0  0  0  0  0  0  0
   13.9837   37.7182   10.0336 N   0  0  0  0  0  0  0  0  0  0  0  0
   15.8390   33.2106   11.5367 N   0  0  0  0  0  0  0  0  0  0  0  0
   14.3553   33.2890    9.8438 N   0  0  0  0  0  0  0  0  0  0  0  0
   13.4513   43.2744    5.5762 N   0  0  0  0  0  0  0  0  0  0  0  0
   15.0766   44.9326    4.7553 N   0  0  0  0  0  0  0  0  0  0  0  0
   13.6745   36.2097    8.2756 O   0  0  0  0  0  0  0  0  0  0  0  0
   12.9369   44.9368    3.4571 S   0  0  0  0  0  0  0  0  0  0  0  0
  1  2  1  0
  2 25  2  0
  3  4  2  0
  4 29  1  0
  5  6  2  0
  7  6  1  6
  7  8  1  0
  8  9  1  0
  9 10  1  0
 10 26  1  0
 11 26  1  0
 11  7  1  0
 13 12  1  0
 13 14  1  0
 15 27  1  0
 16 28  1  0
 18 19  1  0
 20 16  1  0
 21 15  1  0
 22 32  1  0
 23 30  1  0
 24 32  1  0
 26 12  1  0
 28 17  1  0
 28 14  1  0
 29 22  1  0
  2  3  1  0
  4  5  1  0
  6 25  1  0
 12 31  2  0
 14 15  2  0
 16 27  2  0
 17 18  2  0
 19 20  2  0
 22 30  2  0
 23 24  2  0
M  END
>  <rmsd>  (1) 
0.24290894

$$$$
