MolPort-016-718-365 MCULE-1952619002 PubChem-46975251
     RDKit          3D

 30 33  0  0  0  0  0  0  0  0999 V2000
   13.0469   39.5155   11.8441 C   0  0  0  0  0  0  0  0  0  0  0  0
   13.2718   38.8222   10.5130 C   0  0  0  0  0  0  0  0  0  0  0  0
   14.7395   40.4709    9.3699 C   0  0  0  0  0  0  0  0  0  0  0  0
   14.8907   41.4445    8.3777 C   0  0  0  0  0  0  0  0  0  0  0  0
   16.0885   42.1313    8.2438 C   0  0  0  0  0  0  0  0  0  0  0  0
   17.1805   41.8910    9.0722 C   0  0  0  0  0  0  0  0  0  0  0  0
   17.0442   40.9159   10.0713 C   0  0  0  0  0  0  0  0  0  0  0  0
   15.8351   40.2104   10.2199 C   0  0  0  0  0  0  0  0  0  0  0  0
   14.3602   42.7652    6.6531 C   0  0  0  0  0  0  0  0  0  0  0  0
   13.8817   44.3345    4.6914 C   0  0  0  0  0  0  0  0  0  0  0  0
   12.9123   44.7248    3.6291 C   0  0  0  0  0  0  0  0  0  0  0  0
   14.0418   43.8200    1.5106 C   0  0  0  0  0  0  0  0  0  0  0  0
   14.0884   42.5292    0.7385 C   0  0  2  0  0  0  0  0  0  0  0  0
   12.4612   42.5208    2.4041 C   0  0  0  0  0  0  0  0  0  0  0  0
   15.4335   41.8437    0.9252 C   0  0  0  0  0  0  0  0  0  0  0  0
   13.7941   42.7538   -0.7301 C   0  0  0  0  0  0  0  0  0  0  0  0
   12.6419   42.2185   -1.3315 C   0  0  0  0  0  0  0  0  0  0  0  0
   12.3805   42.4360   -2.6871 C   0  0  0  0  0  0  0  0  0  0  0  0
   13.2678   43.1914   -3.4573 C   0  0  0  0  0  0  0  0  0  0  0  0
   14.4165   43.7295   -2.8725 C   0  0  0  0  0  0  0  0  0  0  0  0
   14.6782   43.5122   -1.5170 C   0  0  0  0  0  0  0  0  0  0  0  0
   13.5266   39.7816    9.4925 O   0  0  0  0  0  0  0  0  0  0  0  0
   15.0073   44.8969    4.7362 O   0  0  0  0  0  0  0  0  0  0  0  0
   14.8322   44.7875    1.3414 O   0  0  0  0  0  0  0  0  0  0  0  0
   11.5520   42.1011    3.1673 O   0  0  0  0  0  0  0  0  0  0  0  0
   15.9628   43.2235    6.9775 S   0  0  0  0  0  0  0  0  0  0  0  0
   13.9232   41.7948    7.4911 N   0  0  0  0  0  0  0  0  0  0  0  0
   13.5277   43.3021    5.6184 N   0  0  0  0  0  0  0  0  0  0  0  0
   13.0173   43.8188    2.4930 N   0  0  0  0  0  0  0  0  0  0  0  0
   13.0453   41.7225    1.3817 N   0  0  0  0  0  0  0  0  0  0  0  0
  1  2  1  0
  2 22  1  0
  3 22  1  0
  4  5  2  0
  4 27  1  0
  5 26  1  0
  6  7  2  0
  8  3  2  0
  9 26  1  0
  9 28  1  0
 11 10  1  0
 11 29  1  0
 13 12  1  0
 13 30  1  0
 13 15  1  6
 13 16  1  0
 14 29  1  0
 17 18  2  0
 19 20  2  0
 21 16  2  0
 28 10  1  0
 29 12  1  0
 30 14  1  0
  3  4  1  0
  5  6  1  0
  7  8  1  0
  9 27  2  0
 10 23  2  0
 12 24  2  0
 14 25  2  0
 16 17  1  0
 18 19  1  0
 20 21  1  0
M  END
>  <rmsd>  (1) 
0.240784898

$$$$
