Molport-047-071-874 PubChem-132766510
     RDKit          3D

 31 34  0  0  0  0  0  0  0  0999 V2000
   16.7899   46.5259    4.0560 C   0  0  0  0  0  0  0  0  0  0  0  0
   15.4472   45.9035    3.9239 C   0  0  0  0  0  0  0  0  0  0  0  0
   14.5731   46.3358    2.9284 C   0  0  0  0  0  0  0  0  0  0  0  0
   13.3231   45.7265    2.8373 C   0  0  0  0  0  0  0  0  0  0  0  0
   12.3624   46.1557    1.7885 C   0  0  0  0  0  0  0  0  0  0  0  0
   13.8473   44.3268    4.6721 C   0  0  0  0  0  0  0  0  0  0  0  0
   14.2324   42.7355    6.6349 C   0  0  0  0  0  0  0  0  0  0  0  0
   13.6938   41.7163    7.4197 C   0  0  0  0  0  0  0  0  0  0  0  0
   14.4643   41.1926    8.4576 C   0  0  0  0  0  0  0  0  0  0  0  0
   16.2263   42.6721    7.9108 C   0  0  0  0  0  0  0  0  0  0  0  0
   17.5942   43.1899    8.1753 C   0  0  0  0  0  0  0  0  0  0  0  0
   13.9078   40.0992    9.3074 C   0  0  2  0  0  0  0  0  0  0  0  0
   13.8201   40.5390   10.7726 C   0  0  0  0  0  0  0  0  0  0  0  0
   13.4119   39.4064   11.7283 C   0  0  0  0  0  0  0  0  0  0  0  0
   13.1941   38.0712   11.0177 C   0  0  0  0  0  0  0  0  0  0  0  0
   14.7443   38.8255    9.1680 C   0  0  0  0  0  0  0  0  0  0  0  0
   15.1009   36.5912   10.2408 C   0  0  0  0  0  0  0  0  0  0  0  0
   14.5925   35.3516   10.8584 C   0  0  0  0  0  0  0  0  0  0  0  0
   13.3202   35.1540   11.1869 C   0  0  0  0  0  0  0  0  0  0  0  0
   12.8717   33.9003   11.7982 C   0  0  0  0  0  0  0  0  0  0  0  0
   11.5765   33.6249   12.1616 C   0  0  0  0  0  0  0  0  0  0  0  0
   12.8354   31.9460   12.6169 C   0  0  0  0  0  0  0  0  0  0  0  0
   12.9843   44.7379    3.7057 N   0  0  0  0  0  0  0  0  0  0  0  0
   13.4487   43.2817    5.5673 N   0  0  0  0  0  0  0  0  0  0  0  0
   15.7156   41.6786    8.6834 N   0  0  0  0  0  0  0  0  0  0  0  0
   15.4877   43.1925    6.8965 N   0  0  0  0  0  0  0  0  0  0  0  0
   14.3157   37.7938   10.1189 N   0  0  0  0  0  0  0  0  0  0  0  0
   11.5602   32.3837   12.6803 N   0  0  0  0  0  0  0  0  0  0  0  0
   13.6706   32.8561   12.0779 N   0  0  0  0  0  0  0  0  0  0  0  0
   15.0716   44.9129    4.7738 N   0  0  0  0  0  0  0  0  0  0  0  0
   16.2784   36.5751    9.7929 O   0  0  0  0  0  0  0  0  0  0  0  0
  1  2  1  0
  2 30  2  0
  3  4  2  0
  5  4  1  0
  6 23  2  0
  6 24  1  0
  7 26  2  0
  8  9  2  0
 10 25  2  0
 11 10  1  0
 12  9  1  6
 12 13  1  0
 13 14  1  0
 14 15  1  0
 15 27  1  0
 16 27  1  0
 16 12  1  0
 17 18  1  0
 19 20  1  0
 21 28  1  0
 22 29  1  0
 24  7  1  0
 27 17  1  0
 29 20  1  0
  2  3  1  0
  4 23  1  0
  6 30  1  0
  7  8  1  0
  9 25  1  0
 10 26  1  0
 17 31  2  0
 18 19  2  0
 20 21  2  0
 22 28  2  0
M  END
>  <rmsd>  (1) 
0.248018891

$$$$
