Molport-052-055-979 MCULE-7130697295 PubChem-110089784
     RDKit          3D

 22 24  0  0  0  0  0  0  0  0999 V2000
   12.3487   46.1242    1.7763 C   0  0  0  0  0  0  0  0  0  0  0  0
   13.3143   45.7068    2.8258 C   0  0  0  0  0  0  0  0  0  0  0  0
   14.5601   46.3254    2.9119 C   0  0  0  0  0  0  0  0  0  0  0  0
   15.4377   45.9060    3.9096 C   0  0  0  0  0  0  0  0  0  0  0  0
   13.8490   44.3232    4.6701 C   0  0  0  0  0  0  0  0  0  0  0  0
   14.2206   42.7240    6.6508 C   0  0  0  0  0  0  0  0  0  0  0  0
   14.3510   41.1687    8.4352 C   0  0  0  0  0  0  0  0  0  0  0  0
   16.1952   42.5860    8.0128 C   0  0  0  0  0  0  0  0  0  0  0  0
   15.5113   43.1728    6.9504 C   0  0  0  0  0  0  0  0  0  0  0  0
   17.5675   43.0413    8.3553 C   0  0  0  0  0  0  0  0  0  0  0  0
   13.7083   40.0824    9.2324 C   0  0  2  0  0  0  0  0  0  0  0  0
   13.5620   40.5032   10.6938 C   0  0  0  0  0  0  0  0  0  0  0  0
   13.0004   39.3515   11.5207 C   0  0  0  0  0  0  0  0  0  0  0  0
   13.8627   38.1079   11.3167 C   0  0  0  0  0  0  0  0  0  0  0  0
   14.5230   38.7912    9.1395 C   0  0  0  0  0  0  0  0  0  0  0  0
   16.7762   46.5388    4.0369 C   0  0  0  0  0  0  0  0  0  0  0  0
   15.0696   44.9184    4.7662 N   0  0  0  0  0  0  0  0  0  0  0  0
   12.9826   44.7223    3.7014 N   0  0  0  0  0  0  0  0  0  0  0  0
   13.4553   43.2801    5.5720 N   0  0  0  0  0  0  0  0  0  0  0  0
   13.6718   41.7322    7.4013 N   0  0  0  0  0  0  0  0  0  0  0  0
   15.6072   41.5982    8.7350 N   0  0  0  0  0  0  0  0  0  0  0  0
   13.8699   37.7301    9.9042 N   0  0  0  0  0  0  0  0  0  0  0  0
  1  2  1  0
  2 18  2  0
  3  4  2  0
  5 17  2  0
  5 19  1  0
  7 20  2  0
  8 21  2  0
  9  6  2  0
 10  8  1  0
 11  7  1  6
 11 12  1  0
 12 13  1  0
 13 14  1  0
 14 22  1  0
 15 22  1  0
 15 11  1  0
 16  4  1  0
 19  6  1  0
  2  3  1  0
  4 17  1  0
  5 18  1  0
  6 20  1  0
  7 21  1  0
  8  9  1  0
M  END
>  <rmsd>  (1) 
0.244012922

$$$$
