MolPort-006-580-041 ChemDiv-V020-6525 MCULE-7808711997 PubChem-46041007 ZINC000037544204 ZINC37544204
     RDKit          3D

 27 29  0  0  0  0  0  0  0  0999 V2000
   12.1649   46.0375    1.7572 C   0  0  0  0  0  0  0  0  0  0  0  0
   13.3263   45.8198    2.7036 C   0  0  0  0  0  0  0  0  0  0  0  0
   13.8953   44.3505    4.6699 C   0  0  0  0  0  0  0  0  0  0  0  0
   14.2651   42.7615    6.6484 C   0  0  0  0  0  0  0  0  0  0  0  0
   13.7032   41.7447    7.4269 C   0  0  0  0  0  0  0  0  0  0  0  0
   14.4154   41.1650    8.4902 C   0  0  0  0  0  0  0  0  0  0  0  0
   15.7078   41.6389    8.7709 C   0  0  0  0  0  0  0  0  0  0  0  0
   16.2776   42.6544    8.0000 C   0  0  0  0  0  0  0  0  0  0  0  0
   15.5593   43.2129    6.9415 C   0  0  0  0  0  0  0  0  0  0  0  0
   14.3859   39.8564   10.6294 C   0  0  0  0  0  0  0  0  0  0  0  0
   13.2651   39.5883   11.6200 C   0  0  0  0  0  0  0  0  0  0  0  0
   12.4814   38.3494   11.1964 C   0  0  0  0  0  0  0  0  0  0  0  0
   11.0880   37.4444    9.3319 C   0  0  0  0  0  0  0  0  0  0  0  0
   11.6996   36.3222    8.5604 C   0  0  0  0  0  0  0  0  0  0  0  0
   11.5497   36.2664    7.1706 C   0  0  0  0  0  0  0  0  0  0  0  0
   12.1291   35.2211    6.4448 C   0  0  0  0  0  0  0  0  0  0  0  0
   12.8598   34.2304    7.1081 C   0  0  0  0  0  0  0  0  0  0  0  0
   13.0111   34.2849    8.4970 C   0  0  0  0  0  0  0  0  0  0  0  0
   12.4320   35.3300    9.2230 C   0  0  0  0  0  0  0  0  0  0  0  0
   12.7459   39.2851    8.8537 C   0  0  0  0  0  0  0  0  0  0  0  0
   12.9877   44.7725    3.6525 N   0  0  0  0  0  0  0  0  0  0  0  0
   13.4934   43.3117    5.5719 N   0  0  0  0  0  0  0  0  0  0  0  0
   13.8257   40.1286    9.3068 N   0  0  0  0  0  0  0  0  0  0  0  0
   12.1123   38.3812    9.7797 N   0  0  0  0  0  0  0  0  0  0  0  0
   15.0314   44.8892    4.7660 O   0  0  0  0  0  0  0  0  0  0  0  0
   12.3626   39.3218    7.6524 O   0  0  0  0  0  0  0  0  0  0  0  0
   13.7195   33.3256    9.1393 F   0  0  0  0  0  0  0  0  0  0  0  0
  1  2  1  0
  2 21  1  0
  3 22  1  0
  5  6  2  0
  6 23  1  0
  7  8  2  0
  9  4  2  0
 10 23  1  0
 10 11  1  0
 11 12  1  0
 12 24  1  0
 13 24  1  0
 13 14  1  0
 15 16  2  0
 17 18  2  0
 18 27  1  0
 19 14  2  0
 20 23  1  0
 21  3  1  0
 22  4  1  0
 24 20  1  0
  3 25  2  0
  4  5  1  0
  6  7  1  0
  8  9  1  0
 14 15  1  0
 16 17  1  0
 18 19  1  0
 20 26  2  0
M  END
>  <rmsd>  (1) 
0.248272449

$$$$
