MolPort-004-886-863 11917139 CSSS00160882810 ChemDiv-D337-0195 LN01984288 MCULE-1689293103 PubChem-16455803 ZINC000011917139 ZINC11917139
     RDKit          3D

 24 26  0  0  0  0  0  0  0  0999 V2000
   13.2096   38.7742   11.0219 C   0  0  0  0  0  0  0  0  0  0  0  0
   13.4995   39.9747   11.9016 C   0  0  0  0  0  0  0  0  0  0  0  0
   13.8797   41.1775   11.0542 C   0  0  0  0  0  0  0  0  0  0  0  0
   15.3798   41.2192   10.7985 C   0  0  0  0  0  0  0  0  0  0  0  0
   15.3640   41.2975    8.1755 C   0  0  0  0  0  0  0  0  0  0  0  0
   14.3295   42.6541    6.5045 C   0  0  0  0  0  0  0  0  0  0  0  0
   13.8719   44.4131    4.7308 C   0  0  0  0  0  0  0  0  0  0  0  0
   12.9046   44.9890    3.7903 C   0  0  0  0  0  0  0  0  0  0  0  0
   11.9298   46.1859    2.2917 C   0  0  0  0  0  0  0  0  0  0  0  0
   13.1457   46.0566    2.9421 C   0  0  0  0  0  0  0  0  0  0  0  0
   11.6005   47.1798    1.2585 C   0  0  0  0  0  0  0  0  0  0  0  0
   10.3224   47.1938    0.6839 C   0  0  0  0  0  0  0  0  0  0  0  0
   10.0008   48.1350   -0.2988 C   0  0  0  0  0  0  0  0  0  0  0  0
   10.9560   49.0677   -0.7125 C   0  0  0  0  0  0  0  0  0  0  0  0
   12.2327   49.0597   -0.1440 C   0  0  0  0  0  0  0  0  0  0  0  0
   12.5544   48.1187    0.8387 C   0  0  0  0  0  0  0  0  0  0  0  0
   15.8526   40.1176    9.4275 S   0  0  0  0  0  0  0  0  0  0  0  0
   13.8426   41.3532    7.4538 S   0  0  0  0  0  0  0  0  0  0  0  0
   16.1876   42.2472    7.6816 N   0  0  0  0  0  0  0  0  0  0  0  0
   15.6113   43.0054    6.7509 N   0  0  0  0  0  0  0  0  0  0  0  0
   13.4843   43.3047    5.5511 N   0  0  0  0  0  0  0  0  0  0  0  0
   11.6459   44.5355    3.6422 N   0  0  0  0  0  0  0  0  0  0  0  0
   15.0336   44.8969    4.8091 O   0  0  0  0  0  0  0  0  0  0  0  0
   11.0909   45.2786    2.7339 O   0  0  0  0  0  0  0  0  0  0  0  0
  1  2  1  0
  2  3  1  0
  3  4  1  0
  4 17  1  0
  5 17  1  0
  5 18  1  0
  6 21  1  0
  6 18  1  0
  7  8  1  0
  9 24  1  0
  9 11  1  0
 10  8  1  0
 12 13  2  0
 14 15  2  0
 16 11  2  0
 19 20  1  0
 21  7  1  0
 22 24  1  0
  5 19  2  0
  6 20  2  0
  7 23  2  0
  8 22  2  0
  9 10  2  0
 11 12  1  0
 13 14  1  0
 15 16  1  0
M  END
>  <rmsd>  (1) 
0.248462021

$$$$
