Molport-008-272-750 MCULE-6633283457 PubChem-46951643
     RDKit          3D

 25 28  0  0  0  0  0  0  0  0999 V2000
   13.0410   39.5116   11.8405 C   0  0  0  0  0  0  0  0  0  0  0  0
   13.2735   38.8191   10.5103 C   0  0  0  0  0  0  0  0  0  0  0  0
   14.7386   40.4737    9.3723 C   0  0  0  0  0  0  0  0  0  0  0  0
   14.8893   41.4478    8.3805 C   0  0  0  0  0  0  0  0  0  0  0  0
   16.0849   42.1394    8.2508 C   0  0  0  0  0  0  0  0  0  0  0  0
   17.1748   41.9036    9.0832 C   0  0  0  0  0  0  0  0  0  0  0  0
   17.0390   40.9280   10.0818 C   0  0  0  0  0  0  0  0  0  0  0  0
   15.8323   40.2176   10.2262 C   0  0  0  0  0  0  0  0  0  0  0  0
   14.3596   42.7662    6.6539 C   0  0  0  0  0  0  0  0  0  0  0  0
   13.8816   44.3346    4.6892 C   0  0  0  0  0  0  0  0  0  0  0  0
   12.9031   44.7522    3.6379 C   0  0  1  0  0  0  0  0  0  0  0  0
   12.6395   43.6474    2.6303 C   0  0  0  0  0  0  0  0  0  0  0  0
   13.6609   42.7911    2.1912 C   0  0  0  0  0  0  0  0  0  0  0  0
   13.3985   41.8263    1.2145 C   0  0  0  0  0  0  0  0  0  0  0  0
   12.1206   41.7230    0.6577 C   0  0  0  0  0  0  0  0  0  0  0  0
   11.1054   42.5919    1.0674 C   0  0  0  0  0  0  0  0  0  0  0  0
   11.3642   43.5644    2.0379 C   0  0  0  0  0  0  0  0  0  0  0  0
   10.2700   44.4955    2.4686 C   0  0  0  0  0  0  0  0  0  0  0  0
   10.8617   45.6698    3.2492 C   0  0  0  0  0  0  0  0  0  0  0  0
   13.5280   39.7795    9.4906 O   0  0  0  0  0  0  0  0  0  0  0  0
   15.0071   44.8967    4.7361 O   0  0  0  0  0  0  0  0  0  0  0  0
   11.7094   45.1810    4.2591 O   0  0  0  0  0  0  0  0  0  0  0  0
   15.9591   43.2312    6.9842 S   0  0  0  0  0  0  0  0  0  0  0  0
   13.9236   41.7942    7.4905 N   0  0  0  0  0  0  0  0  0  0  0  0
   13.5276   43.3016    5.6181 N   0  0  0  0  0  0  0  0  0  0  0  0
  1  2  1  0
  2 20  1  0
  3 20  1  0
  4  5  2  0
  4 24  1  0
  5 23  1  0
  6  7  2  0
  8  3  2  0
  9 23  1  0
  9 25  1  0
 11 10  1  1
 11 12  1  0
 11 22  1  0
 13 14  2  0
 15 16  2  0
 17 12  2  0
 18 17  1  0
 18 19  1  0
 19 22  1  0
 25 10  1  0
  3  4  1  0
  5  6  1  0
  7  8  1  0
  9 24  2  0
 10 21  2  0
 12 13  1  0
 14 15  1  0
 16 17  1  0
M  END
>  <rmsd>  (1) 
0.241997495

$$$$
