MolPort-002-774-447 36613597 CSSS00132996021 MCULE-6853413992 PubChem-44821655 ZINC000036613597 ZINC36613597
     RDKit          3D

 32 35  0  0  0  0  0  0  0  0999 V2000
   13.0247   38.5444   10.9029 C   0  0  0  0  0  0  0  0  0  0  0  0
   13.6448   39.8172   11.4484 C   0  0  0  0  0  0  0  0  0  0  0  0
   13.7051   40.8823   10.3685 C   0  0  0  0  0  0  0  0  0  0  0  0
   14.8264   40.5804    9.3880 C   0  0  0  0  0  0  0  0  0  0  0  0
   14.3145   42.8031    6.6710 C   0  0  0  0  0  0  0  0  0  0  0  0
   13.8802   44.3574    4.6969 C   0  0  0  0  0  0  0  0  0  0  0  0
   12.9537   44.7807    3.6321 C   0  0  0  0  0  0  0  0  0  0  0  0
   11.5575   44.8402    3.7760 C   0  0  0  0  0  0  0  0  0  0  0  0
   10.6600   44.6928    4.8309 C   0  0  0  0  0  0  0  0  0  0  0  0
   10.9700   44.4430    6.2644 C   0  0  0  0  0  0  0  0  0  0  0  0
    8.3381   45.5804    2.2670 C   0  0  0  0  0  0  0  0  0  0  0  0
   10.7633   45.1862    2.7178 C   0  0  0  0  0  0  0  0  0  0  0  0
   12.6147   45.4860    1.3007 C   0  0  0  0  0  0  0  0  0  0  0  0
   13.4733   45.1211    2.3675 C   0  0  0  0  0  0  0  0  0  0  0  0
   13.1697   45.8399   -0.0232 C   0  0  0  0  0  0  0  0  0  0  0  0
   12.3119   46.2003   -1.0729 C   0  0  0  0  0  0  0  0  0  0  0  0
   12.8270   46.5364   -2.3279 C   0  0  0  0  0  0  0  0  0  0  0  0
   14.2064   46.5178   -2.5533 C   0  0  0  0  0  0  0  0  0  0  0  0
   16.0755   46.8667   -4.1353 C   0  0  0  0  0  0  0  0  0  0  0  0
   15.0700   46.1580   -1.5069 C   0  0  0  0  0  0  0  0  0  0  0  0
   14.5547   45.8220   -0.2524 C   0  0  0  0  0  0  0  0  0  0  0  0
   15.5754   43.2627    7.0338 C   0  0  0  0  0  0  0  0  0  0  0  0
   15.8824   42.4539    8.1117 C   0  0  0  0  0  0  0  0  0  0  0  0
   17.1471   42.5173    8.8970 C   0  0  0  0  0  0  0  0  0  0  0  0
   14.8706   41.6000    8.3502 N   0  0  0  0  0  0  0  0  0  0  0  0
   13.9055   41.8014    7.4718 N   0  0  0  0  0  0  0  0  0  0  0  0
   13.5124   43.3044    5.5959 N   0  0  0  0  0  0  0  0  0  0  0  0
    9.4025   44.9346    4.3853 N   0  0  0  0  0  0  0  0  0  0  0  0
    9.4781   45.2258    3.0940 N   0  0  0  0  0  0  0  0  0  0  0  0
   11.2612   45.5112    1.4997 N   0  0  0  0  0  0  0  0  0  0  0  0
   15.0258   44.8803    4.7616 O   0  0  0  0  0  0  0  0  0  0  0  0
   14.6901   46.8591   -3.8192 O   0  0  0  0  0  0  0  0  0  0  0  0
  1  2  1  0
  2  3  1  0
  3  4  1  0
  4 25  1  0
  5 27  1  0
  5 22  1  0
  6  7  1  0
  8  9  1  0
 10  9  1  0
 11 29  1  0
 12  8  2  0
 13 30  2  0
 13 15  1  0
 14  7  2  0
 16 17  2  0
 18 32  1  0
 18 20  2  0
 19 32  1  0
 21 15  2  0
 23 25  1  0
 24 23  1  0
 25 26  1  0
 27  6  1  0
 29 28  1  0
 29 12  1  0
  5 26  2  0
  6 31  2  0
  7  8  1  0
  9 28  2  0
 12 30  1  0
 13 14  1  0
 15 16  1  0
 17 18  1  0
 20 21  1  0
 22 23  2  0
M  END
>  <rmsd>  (1) 
0.179779842

$$$$
