MolPort-010-852-391 41076402 ChemDiv-G952-3434 MCULE-9208365050 PubChem-52095934 ZINC000041076402 ZINC41076402
     RDKit          3D

 24 26  0  0  0  0  0  0  0  0999 V2000
   14.0721   39.0232   11.9621 C   0  0  0  0  0  0  0  0  0  0  0  0
   13.1218   39.6361   10.9509 C   0  0  0  0  0  0  0  0  0  0  0  0
   13.6265   39.4040    9.5360 C   0  0  0  0  0  0  0  0  0  0  0  0
   14.6924   40.3868    9.1774 C   0  0  0  0  0  0  0  0  0  0  0  0
   15.7501   41.9271    8.2186 C   0  0  0  0  0  0  0  0  0  0  0  0
   14.2217   42.6951    6.5765 C   0  0  0  0  0  0  0  0  0  0  0  0
   13.9086   44.3856    4.6777 C   0  0  0  0  0  0  0  0  0  0  0  0
   13.0072   44.9058    3.6346 C   0  0  0  0  0  0  0  0  0  0  0  0
   13.4176   45.9543    2.7994 C   0  0  0  0  0  0  0  0  0  0  0  0
   12.5672   46.4524    1.8080 C   0  0  0  0  0  0  0  0  0  0  0  0
   12.2174   48.0649   -0.0348 C   0  0  0  0  0  0  0  0  0  0  0  0
   11.2894   45.8931    1.6510 C   0  0  0  0  0  0  0  0  0  0  0  0
   10.8646   44.8475    2.4751 C   0  0  0  0  0  0  0  0  0  0  0  0
    9.0738   43.2529    3.0816 C   0  0  0  0  0  0  0  0  0  0  0  0
   11.7289   44.3573    3.4663 C   0  0  0  0  0  0  0  0  0  0  0  0
   15.9194   40.4738    9.7596 N   0  0  0  0  0  0  0  0  0  0  0  0
   16.5960   41.4565    9.1506 N   0  0  0  0  0  0  0  0  0  0  0  0
   13.4717   43.3122    5.5233 N   0  0  0  0  0  0  0  0  0  0  0  0
   13.7038   41.6771    7.3209 N   0  0  0  0  0  0  0  0  0  0  0  0
   14.6053   41.3022    8.2131 N   0  0  0  0  0  0  0  0  0  0  0  0
   15.8344   43.1203    7.0474 S   0  0  0  0  0  0  0  0  0  0  0  0
   15.0562   44.8880    4.8189 O   0  0  0  0  0  0  0  0  0  0  0  0
   13.0145   47.4984    0.9962 O   0  0  0  0  0  0  0  0  0  0  0  0
    9.5855   44.3158    2.2894 O   0  0  0  0  0  0  0  0  0  0  0  0
  1  2  1  0
  2  3  1  0
  3  4  1  0
  5 21  1  0
  6 21  1  0
  6 18  1  0
  7  8  1  0
  9 10  2  0
 10 23  1  0
 11 23  1  0
 12 13  2  0
 13 24  1  0
 14 24  1  0
 15  8  2  0
 16 17  1  0
 18  7  1  0
 20 19  1  0
 20  4  1  0
 20  5  1  0
  4 16  2  0
  5 17  2  0
  6 19  2  0
  7 22  2  0
  8  9  1  0
 10 12  1  0
 13 15  1  0
M  END
>  <rmsd>  (1) 
0.208206341

$$$$
