MolPort-020-295-146 MCULE-5196958159 PubChem-110267240
     RDKit          3D

 28 31  0  0  0  0  0  0  0  0999 V2000
   11.1694   45.6842    1.5436 C   0  0  0  0  0  0  0  0  0  0  0  0
   13.3667   45.7588    2.8041 C   0  0  0  0  0  0  0  0  0  0  0  0
   15.4477   45.9007    3.9199 C   0  0  0  0  0  0  0  0  0  0  0  0
   13.8504   44.3240    4.6719 C   0  0  0  0  0  0  0  0  0  0  0  0
   12.9673   44.7401    3.6763 C   0  0  0  0  0  0  0  0  0  0  0  0
   14.2271   42.7368    6.6408 C   0  0  0  0  0  0  0  0  0  0  0  0
   16.2172   42.6773    7.9217 C   0  0  0  0  0  0  0  0  0  0  0  0
   15.6906   41.6596    8.7136 C   0  0  0  0  0  0  0  0  0  0  0  0
   14.4003   41.1967    8.4328 C   0  0  0  0  0  0  0  0  0  0  0  0
   13.7761   40.1050    9.2421 C   0  0  2  0  0  0  0  0  0  0  0  0
   13.6314   40.5161   10.7016 C   0  0  0  0  0  0  0  0  0  0  0  0
   12.9929   39.3807   11.4844 C   0  0  0  0  0  0  0  0  0  0  0  0
   13.8307   38.1073   11.3300 C   0  0  0  0  0  0  0  0  0  0  0  0
   14.5859   38.8065    9.1325 C   0  0  0  0  0  0  0  0  0  0  0  0
   12.7170   37.3069    9.3583 C   0  0  0  0  0  0  0  0  0  0  0  0
   12.8569   36.1802    8.3768 C   0  0  0  0  0  0  0  0  0  0  0  0
   11.7144   35.7071    7.7262 C   0  0  0  0  0  0  0  0  0  0  0  0
   12.9982   34.0966    6.5438 C   0  0  0  0  0  0  0  0  0  0  0  0
   14.1659   34.5356    7.1704 C   0  0  0  0  0  0  0  0  0  0  0  0
   14.0919   35.5819    8.0909 C   0  0  0  0  0  0  0  0  0  0  0  0
   12.5015   46.2243    1.7656 N   0  0  0  0  0  0  0  0  0  0  0  0
   14.5977   46.3166    2.9450 N   0  0  0  0  0  0  0  0  0  0  0  0
   15.0729   44.9127    4.7734 N   0  0  0  0  0  0  0  0  0  0  0  0
   13.4485   43.2814    5.5685 N   0  0  0  0  0  0  0  0  0  0  0  0
   15.4811   43.1955    6.9049 N   0  0  0  0  0  0  0  0  0  0  0  0
   13.6996   41.7440    7.4050 N   0  0  0  0  0  0  0  0  0  0  0  0
   14.0045   37.7121    9.9248 N   0  0  0  0  0  0  0  0  0  0  0  0
   11.8067   34.6860    6.8320 N   0  0  0  0  0  0  0  0  0  0  0  0
  1 21  1  0
  3 22  2  0
  4 23  2  0
  4 24  1  0
  5  2  2  0
  6 26  2  0
  7 25  2  0
  8  9  2  0
 10  9  1  6
 10 11  1  0
 11 12  1  0
 12 13  1  0
 13 27  1  0
 14 27  1  0
 14 10  1  0
 15 27  1  0
 15 16  1  0
 17 28  2  0
 18 19  2  0
 20 16  2  0
 21  2  1  0
 24  6  1  0
  2 22  1  0
  3 23  1  0
  4  5  1  0
  6 25  1  0
  7  8  1  0
  9 26  1  0
 16 17  1  0
 18 28  1  0
 19 20  1  0
M  END
>  <rmsd>  (1) 
0.244699806

$$$$
