MolPort-027-838-698 94993282 BDVCSFQDCLSZMF-UHFFFAOYSA-N CSSS00160854351 LN01937735 MCULE-8355571149 PubChem-75366575 ZINC000094993282 ZINC94993282
     RDKit          3D

 21 22  0  0  0  0  0  0  0  0999 V2000
   13.4500   39.6217   11.9686 C   0  0  0  0  0  0  0  0  0  0  0  0
   13.6329   38.9050   10.6431 C   0  0  0  0  0  0  0  0  0  0  0  0
   14.8406   40.6562    9.3779 C   0  0  0  0  0  0  0  0  0  0  0  0
   14.8389   41.6309    8.2825 C   0  0  0  0  0  0  0  0  0  0  0  0
   15.8737   42.4912    7.9670 C   0  0  0  0  0  0  0  0  0  0  0  0
   14.2540   42.7785    6.6281 C   0  0  0  0  0  0  0  0  0  0  0  0
   13.9198   44.3420    4.6674 C   0  0  0  0  0  0  0  0  0  0  0  0
   13.0142   44.8213    3.5895 C   0  0  0  0  0  0  0  0  0  0  0  0
   12.1101   45.9178    4.1260 C   0  0  0  0  0  0  0  0  0  0  0  0
   11.1877   46.4048    3.0613 C   0  0  0  0  0  0  0  0  0  0  0  0
   10.1908   45.5667    2.5443 C   0  0  0  0  0  0  0  0  0  0  0  0
    9.3204   46.0395    1.5573 C   0  0  0  0  0  0  0  0  0  0  0  0
    9.4412   47.3512    1.0889 C   0  0  0  0  0  0  0  0  0  0  0  0
   10.4309   48.1912    1.6086 C   0  0  0  0  0  0  0  0  0  0  0  0
   11.3017   47.7191    2.5956 C   0  0  0  0  0  0  0  0  0  0  0  0
   13.7195   39.8452    9.5788 O   0  0  0  0  0  0  0  0  0  0  0  0
   15.8511   40.5513   10.1258 O   0  0  0  0  0  0  0  0  0  0  0  0
   15.4650   43.1855    6.9317 O   0  0  0  0  0  0  0  0  0  0  0  0
   15.0536   44.8730    4.8076 O   0  0  0  0  0  0  0  0  0  0  0  0
   13.4774   43.3058    5.5493 N   0  0  0  0  0  0  0  0  0  0  0  0
   13.8041   41.8040    7.4386 N   0  0  0  0  0  0  0  0  0  0  0  0
  1  2  1  0
  2 16  1  0
  3 16  1  0
  3  4  1  0
  4 21  1  0
  5 18  1  0
  6 18  1  0
  6 20  1  0
  8  7  1  0
  8  9  1  0
  9 10  1  0
 11 12  2  0
 13 14  2  0
 15 10  2  0
 20  7  1  0
  3 17  2  0
  4  5  2  0
  6 21  2  0
  7 19  2  0
 10 11  1  0
 12 13  1  0
 14 15  1  0
M  END
>  <rmsd>  (1) 
0.174594134

$$$$
