MolPort-045-901-900 CSSS00160240507 MCULE-5455986199 PubChem-13064304
     RDKit          3D

 25 27  0  0  0  0  0  0  0  0999 V2000
   13.1210   46.2368    3.2373 C   0  0  0  0  0  0  0  0  0  0  0  0
   13.8396   44.4709    4.7978 C   0  0  0  0  0  0  0  0  0  0  0  0
   14.3025   42.7045    6.5858 C   0  0  0  0  0  0  0  0  0  0  0  0
   13.9217   41.4566    7.0923 C   0  0  0  0  0  0  0  0  0  0  0  0
   14.6630   40.8474    8.1134 C   0  0  0  0  0  0  0  0  0  0  0  0
   15.7832   41.4959    8.6368 C   0  0  0  0  0  0  0  0  0  0  0  0
   16.5533   40.8407    9.7236 C   0  0  0  0  0  0  0  0  0  0  0  0
   15.7555   40.8797   11.0179 C   0  0  0  0  0  0  0  0  0  0  0  0
   14.4940   40.0498   11.0786 C   0  0  0  0  0  0  0  0  0  0  0  0
   13.9545   39.9013   12.3629 C   0  0  0  0  0  0  0  0  0  0  0  0
   12.8058   39.1396   12.5828 C   0  0  0  0  0  0  0  0  0  0  0  0
   12.1741   38.5121   11.5132 C   0  0  0  0  0  0  0  0  0  0  0  0
   12.6867   38.6559   10.2238 C   0  0  0  0  0  0  0  0  0  0  0  0
   13.8439   39.4161    9.9768 C   0  0  0  0  0  0  0  0  0  0  0  0
   14.3609   38.4034    7.7326 C   0  0  0  0  0  0  0  0  0  0  0  0
   14.8857   38.5268    6.3365 C   0  0  0  0  0  0  0  0  0  0  0  0
   16.3953   38.3914    6.3436 C   0  0  0  0  0  0  0  0  0  0  0  0
   16.1690   42.7450    8.1413 C   0  0  0  0  0  0  0  0  0  0  0  0
   15.4308   43.3473    7.1182 C   0  0  0  0  0  0  0  0  0  0  0  0
   12.8451   45.1054    4.0516 O   0  0  0  0  0  0  0  0  0  0  0  0
   15.0267   44.8973    4.7726 O   0  0  0  0  0  0  0  0  0  0  0  0
   14.0504   37.2579    8.1547 O   0  0  0  0  0  0  0  0  0  0  0  0
   13.4970   43.3121    5.5667 N   0  0  0  0  0  0  0  0  0  0  0  0
   14.2950   39.5522    8.6109 N   0  0  0  0  0  0  0  0  0  0  0  0
   17.0284   38.7848    4.7300 Cl  0  0  0  0  0  0  0  0  0  0  0  0
  1 20  1  0
  2 20  1  0
  2 23  1  0
  4  5  2  0
  6 18  2  0
  7  6  1  0
  7  8  1  0
  8  9  1  0
 10 11  2  0
 12 13  2  0
 14 24  1  0
 14  9  2  0
 16 15  1  0
 16 17  1  0
 17 25  1  0
 19  3  2  0
 23  3  1  0
 24 15  1  0
 24  5  1  0
  2 21  2  0
  3  4  1  0
  5  6  1  0
  9 10  1  0
 11 12  1  0
 13 14  1  0
 15 22  2  0
 18 19  1  0
M  END
>  <rmsd>  (1) 
0.239604384

$$$$
