MolPort-020-292-519 MCULE-7945916672 PubChem-110264987
     RDKit          3D

 32 35  0  0  0  0  0  0  0  0999 V2000
   16.7861   46.5365    4.0490 C   0  0  0  0  0  0  0  0  0  0  0  0
   15.4454   45.9094    3.9169 C   0  0  0  0  0  0  0  0  0  0  0  0
   14.5709   46.3365    2.9197 C   0  0  0  0  0  0  0  0  0  0  0  0
   13.3229   45.7231    2.8288 C   0  0  0  0  0  0  0  0  0  0  0  0
   13.8495   44.3291    4.6676 C   0  0  0  0  0  0  0  0  0  0  0  0
   14.2140   42.7212    6.6410 C   0  0  0  0  0  0  0  0  0  0  0  0
   13.6447   41.7003    7.4059 C   0  0  0  0  0  0  0  0  0  0  0  0
   14.3687   41.1373    8.4600 C   0  0  0  0  0  0  0  0  0  0  0  0
   16.2032   42.5776    8.0077 C   0  0  0  0  0  0  0  0  0  0  0  0
   15.5078   43.1623    6.9481 C   0  0  0  0  0  0  0  0  0  0  0  0
   17.5758   43.0397    8.3396 C   0  0  0  0  0  0  0  0  0  0  0  0
   13.7546   40.0456    9.2719 C   0  0  2  0  0  0  0  0  0  0  0  0
   13.6314   40.4659   10.7374 C   0  0  0  0  0  0  0  0  0  0  0  0
   12.9984   39.3451   11.5588 C   0  0  0  0  0  0  0  0  0  0  0  0
   13.8289   38.0708   11.4347 C   0  0  0  0  0  0  0  0  0  0  0  0
   14.5748   38.7616    9.1532 C   0  0  0  0  0  0  0  0  0  0  0  0
   13.4861   36.5192    9.4543 C   0  0  0  0  0  0  0  0  0  0  0  0
   13.2562   35.2993   10.2638 C   0  0  0  0  0  0  0  0  0  0  0  0
   12.4514   34.2678    9.7622 C   0  0  0  0  0  0  0  0  0  0  0  0
   12.8293   32.9531   11.7037 C   0  0  0  0  0  0  0  0  0  0  0  0
   13.6483   33.9495   12.2369 C   0  0  0  0  0  0  0  0  0  0  0  0
   13.8626   35.1204   11.5116 C   0  0  0  0  0  0  0  0  0  0  0  0
   11.3965   32.0995    9.9020 C   0  0  0  0  0  0  0  0  0  0  0  0
   12.3605   46.1488    1.7798 C   0  0  0  0  0  0  0  0  0  0  0  0
   12.9861   44.7359    3.6995 N   0  0  0  0  0  0  0  0  0  0  0  0
   15.0722   44.9193    4.7684 N   0  0  0  0  0  0  0  0  0  0  0  0
   13.4509   43.2834    5.5642 N   0  0  0  0  0  0  0  0  0  0  0  0
   15.6254   41.5856    8.7361 N   0  0  0  0  0  0  0  0  0  0  0  0
   14.0059   37.7355   10.0231 N   0  0  0  0  0  0  0  0  0  0  0  0
   12.2482   33.1283   10.4784 N   0  0  0  0  0  0  0  0  0  0  0  0
   13.2230   36.4844    8.2204 O   0  0  0  0  0  0  0  0  0  0  0  0
   12.6365   31.8960   12.3631 O   0  0  0  0  0  0  0  0  0  0  0  0
  1  2  1  0
  2 26  2  0
  3  4  2  0
  5 25  2  0
  5 27  1  0
  7  8  2  0
  9 28  2  0
 10  6  2  0
 11  9  1  0
 12  8  1  6
 12 13  1  0
 13 14  1  0
 14 15  1  0
 15 29  1  0
 16 29  1  0
 16 12  1  0
 17 18  1  0
 19 30  1  0
 20 21  1  0
 22 18  1  0
 23 30  1  0
 24  4  1  0
 27  6  1  0
 29 17  1  0
 30 20  1  0
  2  3  1  0
  4 25  1  0
  5 26  1  0
  6  7  1  0
  8 28  1  0
  9 10  1  0
 17 31  2  0
 18 19  2  0
 20 32  2  0
 21 22  2  0
M  END
>  <rmsd>  (1) 
0.242858246

$$$$
