MolPort-006-609-949 ChemDiv-V017-8360 MCULE-6791322291 PubChem-46070033 ZINC000034735441 ZINC34735441
     RDKit          3D

 28 30  0  0  0  0  0  0  0  0999 V2000
   11.7714   43.9030    3.4010 C   0  0  0  0  0  0  0  0  0  0  0  0
   12.9831   44.8057    3.5620 C   0  0  0  0  0  0  0  0  0  0  0  0
   12.5236   46.2287    3.8206 C   0  0  0  0  0  0  0  0  0  0  0  0
   13.8993   44.3486    4.6599 C   0  0  0  0  0  0  0  0  0  0  0  0
   14.2569   42.7660    6.6538 C   0  0  0  0  0  0  0  0  0  0  0  0
   13.6871   41.7568    7.4368 C   0  0  0  0  0  0  0  0  0  0  0  0
   14.3909   41.1805    8.5081 C   0  0  0  0  0  0  0  0  0  0  0  0
   15.6847   41.6515    8.7911 C   0  0  0  0  0  0  0  0  0  0  0  0
   16.2627   42.6591    8.0162 C   0  0  0  0  0  0  0  0  0  0  0  0
   15.5517   43.2134    6.9500 C   0  0  0  0  0  0  0  0  0  0  0  0
   14.3968   39.8291   10.6223 C   0  0  0  0  0  0  0  0  0  0  0  0
   13.3086   39.5615   11.6488 C   0  0  0  0  0  0  0  0  0  0  0  0
   12.4833   38.3515   11.2214 C   0  0  0  0  0  0  0  0  0  0  0  0
   10.9473   37.5826    9.4032 C   0  0  0  0  0  0  0  0  0  0  0  0
   11.4832   36.3506    8.7531 C   0  0  0  0  0  0  0  0  0  0  0  0
   11.7250   36.3299    7.3749 C   0  0  0  0  0  0  0  0  0  0  0  0
   12.2433   35.1793    6.7727 C   0  0  0  0  0  0  0  0  0  0  0  0
   12.5212   34.0484    7.5479 C   0  0  0  0  0  0  0  0  0  0  0  0
   12.2842   34.0693    8.9258 C   0  0  0  0  0  0  0  0  0  0  0  0
   11.7667   35.2199    9.5288 C   0  0  0  0  0  0  0  0  0  0  0  0
   13.0615   32.8703    6.9302 C   0  0  0  0  0  0  0  0  0  0  0  0
   12.6727   39.3462    8.8965 C   0  0  0  0  0  0  0  0  0  0  0  0
   15.0337   44.8876    4.7657 O   0  0  0  0  0  0  0  0  0  0  0  0
   12.2491   39.4161    7.7097 O   0  0  0  0  0  0  0  0  0  0  0  0
   13.4920   43.3121    5.5694 N   0  0  0  0  0  0  0  0  0  0  0  0
   13.7950   40.1474    9.3268 N   0  0  0  0  0  0  0  0  0  0  0  0
   12.0369   38.4521    9.8298 N   0  0  0  0  0  0  0  0  0  0  0  0
   13.5004   31.9222    6.4314 N   0  0  0  0  0  0  0  0  0  0  0  0
  1  2  1  0
  2  3  1  0
  2  4  1  0
  4 25  1  0
  6  7  2  0
  7 26  1  0
  8  9  2  0
 10  5  2  0
 11 26  1  0
 11 12  1  0
 12 13  1  0
 13 27  1  0
 14 27  1  0
 14 15  1  0
 16 17  2  0
 18 19  2  0
 18 21  1  0
 20 15  2  0
 22 26  1  0
 25  5  1  0
 27 22  1  0
  4 23  2  0
  5  6  1  0
  7  8  1  0
  9 10  1  0
 15 16  1  0
 17 18  1  0
 19 20  1  0
 22 24  2  0
 21 28  3  0
M  END
>  <rmsd>  (1) 
0.246881798

$$$$
