Molport-020-292-445 MCULE-7249541953 PubChem-110264913
     RDKit          3D

 30 33  0  0  0  0  0  0  0  0999 V2000
   11.6167   44.1430    3.4958 C   0  0  0  0  0  0  0  0  0  0  0  0
   12.9665   44.7541    3.6555 C   0  0  0  0  0  0  0  0  0  0  0  0
   13.8489   44.3294    4.6629 C   0  0  0  0  0  0  0  0  0  0  0  0
   15.4730   45.9100    3.9290 C   0  0  0  0  0  0  0  0  0  0  0  0
   14.6211   46.3551    2.9179 C   0  0  0  0  0  0  0  0  0  0  0  0
   13.3617   45.7709    2.7842 C   0  0  0  0  0  0  0  0  0  0  0  0
   14.2128   42.7249    6.6443 C   0  0  0  0  0  0  0  0  0  0  0  0
   13.6421   41.7055    7.4102 C   0  0  0  0  0  0  0  0  0  0  0  0
   14.3640   41.1454    8.4674 C   0  0  0  0  0  0  0  0  0  0  0  0
   16.1985   42.5860    8.0161 C   0  0  0  0  0  0  0  0  0  0  0  0
   15.5053   43.1677    6.9532 C   0  0  0  0  0  0  0  0  0  0  0  0
   17.5699   43.0498    8.3502 C   0  0  0  0  0  0  0  0  0  0  0  0
   13.7481   40.0558    9.2807 C   0  0  2  0  0  0  0  0  0  0  0  0
   13.6156   40.4813   10.7365 C   0  0  0  0  0  0  0  0  0  0  0  0
   13.0040   39.3460   11.5406 C   0  0  0  0  0  0  0  0  0  0  0  0
   13.8631   38.0868   11.3930 C   0  0  0  0  0  0  0  0  0  0  0  0
   14.5793   38.7703    9.1782 C   0  0  0  0  0  0  0  0  0  0  0  0
   12.7465   37.2459    9.4305 C   0  0  0  0  0  0  0  0  0  0  0  0
   12.5160   35.7949    9.7148 C   0  0  0  0  0  0  0  0  0  0  0  0
   11.2296   33.9438   10.8161 C   0  0  0  0  0  0  0  0  0  0  0  0
   10.0226   33.7088   11.7216 C   0  0  0  0  0  0  0  0  0  0  0  0
    8.8115   34.4584   11.1720 C   0  0  0  0  0  0  0  0  0  0  0  0
    9.0688   35.9622   10.9873 C   0  0  0  0  0  0  0  0  0  0  0  0
   10.5371   36.3614   11.1592 C   0  0  0  0  0  0  0  0  0  0  0  0
   15.0734   44.9187    4.7696 N   0  0  0  0  0  0  0  0  0  0  0  0
   13.4514   43.2836    5.5644 N   0  0  0  0  0  0  0  0  0  0  0  0
   15.6197   41.5954    8.7455 N   0  0  0  0  0  0  0  0  0  0  0  0
   14.0267   37.6763    9.9891 N   0  0  0  0  0  0  0  0  0  0  0  0
   11.4176   35.3712   10.5365 N   0  0  0  0  0  0  0  0  0  0  0  0
   13.2974   34.9428    9.2121 O   0  0  0  0  0  0  0  0  0  0  0  0
  1  2  1  0
  3 25  2  0
  3 26  1  0
  4  5  2  0
  6  2  2  0
  8  9  2  0
 10 27  2  0
 11  7  2  0
 12 10  1  0
 13  9  1  6
 13 14  1  0
 14 15  1  0
 15 16  1  0
 16 28  1  0
 17 28  1  0
 17 13  1  0
 18 28  1  0
 18 19  1  0
 19 29  1  0
 20 29  1  0
 20 21  1  0
 21 22  1  0
 22 23  1  0
 23 24  1  0
 24 29  1  0
 26  7  1  0
  2  3  1  0
  4 25  1  0
  5  6  1  0
  7  8  1  0
  9 27  1  0
 10 11  1  0
 19 30  2  0
M  END
>  <rmsd>  (1) 
0.245702997

$$$$
