MolPort-003-134-642 4517711 CSSS03437056321 MCULE-7624361103 PubChem-7267002 ZINC000004517711
     RDKit          3D

 25 27  0  0  0  0  0  0  0  0999 V2000
   13.1220   39.6158   11.8993 C   0  0  0  0  0  0  0  0  0  0  0  0
   13.2196   38.8984   10.5655 C   0  0  0  0  0  0  0  0  0  0  0  0
   14.7365   40.4264    9.3232 C   0  0  0  0  0  0  0  0  0  0  0  0
   14.9017   41.3792    8.3131 C   0  0  0  0  0  0  0  0  0  0  0  0
   14.3717   42.7231    6.6069 C   0  0  0  0  0  0  0  0  0  0  0  0
   13.8887   44.3219    4.6669 C   0  0  0  0  0  0  0  0  0  0  0  0
   12.9253   44.7649    3.6364 C   0  0  0  0  0  0  0  0  0  0  0  0
   12.0308   43.8892    2.9633 C   0  0  0  0  0  0  0  0  0  0  0  0
   11.1312   44.4175    2.0275 C   0  0  0  0  0  0  0  0  0  0  0  0
   11.1122   45.7823    1.7408 C   0  0  0  0  0  0  0  0  0  0  0  0
   12.0027   46.6395    2.3833 C   0  0  0  0  0  0  0  0  0  0  0  0
   12.9023   46.1325    3.3212 C   0  0  0  0  0  0  0  0  0  0  0  0
   11.1843   41.3378    1.8409 C   0  0  0  0  0  0  0  0  0  0  0  0
   16.1370   41.9744    8.1039 C   0  0  0  0  0  0  0  0  0  0  0  0
   17.2541   41.6600    8.8719 C   0  0  0  0  0  0  0  0  0  0  0  0
   17.1038   40.7050    9.8882 C   0  0  0  0  0  0  0  0  0  0  0  0
   15.8568   40.0919   10.1131 C   0  0  0  0  0  0  0  0  0  0  0  0
   13.4853   39.8292    9.5216 O   0  0  0  0  0  0  0  0  0  0  0  0
   15.0062   44.8993    4.7526 O   0  0  0  0  0  0  0  0  0  0  0  0
   11.3496   41.7781    4.4707 O   0  0  0  0  0  0  0  0  0  0  0  0
   13.4513   41.6227    3.2012 O   0  0  0  0  0  0  0  0  0  0  0  0
   13.9137   41.7925    7.4780 N   0  0  0  0  0  0  0  0  0  0  0  0
   13.5262   43.3029    5.6068 N   0  0  0  0  0  0  0  0  0  0  0  0
   12.0383   42.1347    3.1838 S   0  0  0  0  0  0  0  0  0  0  0  0
   16.0201   43.0623    6.8330 S   0  0  0  0  0  0  0  0  0  0  0  0
  1  2  1  0
  2 18  1  0
  3 18  1  0
  4 22  1  0
  5 23  1  0
  5 25  1  0
  6  7  1  0
  8  9  2  0
 10 11  2  0
 12  7  2  0
 14 25  1  0
 14  4  2  0
 15 16  2  0
 17  3  2  0
 23  6  1  0
 24  8  1  0
 24 13  1  0
  3  4  1  0
  5 22  2  0
  6 19  2  0
  7  8  1  0
  9 10  1  0
 11 12  1  0
 14 15  1  0
 16 17  1  0
 24 20  2  0
 24 21  2  0
M  END
>  <rmsd>  (1) 
0.228799075

$$$$
