MolPort-003-112-255 8959290 CSSS03436950445 MCULE-6540110749 PubChem-40887186 VZHRHASBLZJDLJ-UHFFFAOYSA-N ZINC000008959290 ZINC08959290
     RDKit          3D

 23 24  0  0  0  0  0  0  0  0999 V2000
   13.2558   39.6132   12.5997 C   0  0  0  0  0  0  0  0  0  0  0  0
   13.9011   39.5289   11.2332 C   0  0  0  0  0  0  0  0  0  0  0  0
   13.2172   38.4421   10.4260 C   0  0  0  0  0  0  0  0  0  0  0  0
   15.3780   39.2100   11.3944 C   0  0  0  0  0  0  0  0  0  0  0  0
   16.1601   39.5072   10.1176 C   0  0  0  0  0  0  0  0  0  0  0  0
   15.6529   41.5368    8.7377 C   0  0  0  0  0  0  0  0  0  0  0  0
   16.2618   42.5499    7.9515 C   0  0  0  0  0  0  0  0  0  0  0  0
   18.5480   42.3331    8.9386 C   0  0  0  0  0  0  0  0  0  0  0  0
   18.2559   42.5134   10.4209 C   0  0  0  0  0  0  0  0  0  0  0  0
   19.4485   41.9865   11.1962 C   0  0  0  0  0  0  0  0  0  0  0  0
   18.0852   43.9897   10.7458 C   0  0  0  0  0  0  0  0  0  0  0  0
   17.0288   41.7473   10.8263 C   0  0  0  0  0  0  0  0  0  0  0  0
   15.5365   43.1390    6.9102 C   0  0  0  0  0  0  0  0  0  0  0  0
   14.2328   42.7282    6.6080 C   0  0  0  0  0  0  0  0  0  0  0  0
   13.9066   44.3709    4.6681 C   0  0  0  0  0  0  0  0  0  0  0  0
   12.9863   44.8558    3.6073 C   0  0  0  0  0  0  0  0  0  0  0  0
   13.6515   41.7067    7.3573 C   0  0  0  0  0  0  0  0  0  0  0  0
   14.3529   41.1206    8.4104 C   0  0  0  0  0  0  0  0  0  0  0  0
   16.2987   40.9459    9.8817 N   0  0  0  0  0  0  0  0  0  0  0  0
   13.4784   43.3171    5.5398 N   0  0  0  0  0  0  0  0  0  0  0  0
   17.5780   42.9898    8.1323 O   0  0  0  0  0  0  0  0  0  0  0  0
   16.6572   41.7748   12.0319 O   0  0  0  0  0  0  0  0  0  0  0  0
   15.0460   44.8945    4.7834 O   0  0  0  0  0  0  0  0  0  0  0  0
  1  2  1  0
  2  3  1  0
  2  4  1  0
  4  5  1  0
  5 19  1  0
  7 21  1  0
  7 13  2  0
  8 21  1  0
  8  9  1  0
  9 10  1  0
  9 11  1  0
  9 12  1  0
 12 19  1  0
 14 20  1  0
 14 17  2  0
 16 15  1  0
 18  6  2  0
 19  6  1  0
 20 15  1  0
  6  7  1  0
 12 22  2  0
 13 14  1  0
 15 23  2  0
 17 18  1  0
M  END
>  <rmsd>  (1) 
0.23906444

$$$$
