MolPort-008-317-398 36357030 CSSS00160790402 LN00864406 MCULE-2146435263 PubChem-45491985 ZINC000036357030
     RDKit          3D

 31 35  0  0  0  0  0  0  0  0999 V2000
   11.3723   40.2680    9.9506 C   0  0  0  0  0  0  0  0  0  0  0  0
   12.3319   39.6916    8.9635 C   0  0  0  0  0  0  0  0  0  0  0  0
   14.4054   39.5613   10.4283 C   0  0  0  0  0  0  0  0  0  0  0  0
   13.5186   38.6670   11.2913 C   0  0  0  0  0  0  0  0  0  0  0  0
   12.5318   39.4937   12.1115 C   0  0  0  0  0  0  0  0  0  0  0  0
   10.4473   40.8318   11.7816 C   0  0  0  0  0  0  0  0  0  0  0  0
    9.7194   41.3245   10.7375 C   0  0  0  0  0  0  0  0  0  0  0  0
    8.5642   42.0769   10.9339 C   0  0  0  0  0  0  0  0  0  0  0  0
    8.1644   42.3163   12.2620 C   0  0  0  0  0  0  0  0  0  0  0  0
    8.9182   41.8065   13.3428 C   0  0  0  0  0  0  0  0  0  0  0  0
   10.0817   41.0501   13.1100 C   0  0  0  0  0  0  0  0  0  0  0  0
   14.3141   41.1629    8.4868 C   0  0  0  0  0  0  0  0  0  0  0  0
   15.6154   41.6034    8.7799 C   0  0  0  0  0  0  0  0  0  0  0  0
   16.2165   42.6046    8.0138 C   0  0  0  0  0  0  0  0  0  0  0  0
   15.5230   43.1772    6.9460 C   0  0  0  0  0  0  0  0  0  0  0  0
   14.2233   42.7530    6.6366 C   0  0  0  0  0  0  0  0  0  0  0  0
   13.6296   41.7493    7.4083 C   0  0  0  0  0  0  0  0  0  0  0  0
   13.9151   44.3499    4.6556 C   0  0  0  0  0  0  0  0  0  0  0  0
   13.0154   44.7910    3.5526 C   0  0  0  0  0  0  0  0  0  0  0  0
   13.7914   43.3941    1.6488 C   0  0  0  0  0  0  0  0  0  0  0  0
   14.9875   44.1169    1.5058 C   0  0  0  0  0  0  0  0  0  0  0  0
   15.9224   43.7476    0.5344 C   0  0  0  0  0  0  0  0  0  0  0  0
   15.6681   42.6559   -0.3002 C   0  0  0  0  0  0  0  0  0  0  0  0
   14.4789   41.9342   -0.1637 C   0  0  0  0  0  0  0  0  0  0  0  0
   13.5438   42.3035    0.8080 C   0  0  0  0  0  0  0  0  0  0  0  0
   13.6913   40.1313    9.2784 N   0  0  0  0  0  0  0  0  0  0  0  0
   11.4989   40.1523   11.3029 N   0  0  0  0  0  0  0  0  0  0  0  0
   10.2830   40.9826    9.5652 N   0  0  0  0  0  0  0  0  0  0  0  0
   13.4796   43.3153    5.5472 N   0  0  0  0  0  0  0  0  0  0  0  0
   12.8345   43.7386    2.6100 O   0  0  0  0  0  0  0  0  0  0  0  0
   15.0462   44.8888    4.7815 O   0  0  0  0  0  0  0  0  0  0  0  0
  2  1  1  0
  2 26  1  0
  3 26  1  0
  3  4  1  0
  4  5  1  0
  5 27  1  0
  7  8  2  0
  7 28  1  0
  9 10  2  0
 11  6  2  0
 13 14  2  0
 15 16  2  0
 16 29  1  0
 17 12  2  0
 19 18  1  0
 19 30  1  0
 20 30  1  0
 21 22  2  0
 23 24  2  0
 25 20  2  0
 26 12  1  0
 27  6  1  0
 27  1  1  0
 29 18  1  0
  1 28  2  0
  6  7  1  0
  8  9  1  0
 10 11  1  0
 12 13  1  0
 14 15  1  0
 16 17  1  0
 18 31  2  0
 20 21  1  0
 22 23  1  0
 24 25  1  0
M  END
>  <rmsd>  (1) 
0.23363927

$$$$
