Molport-053-137-707 MCULE-7939376285
     RDKit          3D

 21 23  0  0  0  0  0  0  0  0999 V2000
   14.2274   42.7408    6.6718 C   0  0  0  0  0  0  0  0  0  0  0  0
   16.2211   42.6845    7.9467 C   0  0  0  0  0  0  0  0  0  0  0  0
   15.6938   41.6730    8.7466 C   0  0  0  0  0  0  0  0  0  0  0  0
   14.4009   41.2138    8.4741 C   0  0  0  0  0  0  0  0  0  0  0  0
   13.7820   40.1219    9.2860 C   0  0  2  0  0  0  0  0  0  0  0  0
   13.6812   40.5052   10.7636 C   0  0  0  0  0  0  0  0  0  0  0  0
   13.0712   39.3648   11.5831 C   0  0  0  0  0  0  0  0  0  0  0  0
   13.4965   37.9825   11.0701 C   0  0  0  0  0  0  0  0  0  0  0  0
   15.1266   36.7105    9.9736 C   0  0  0  0  0  0  0  0  0  0  0  0
   16.5084   36.4010   10.5139 C   0  0  0  0  0  0  0  0  0  0  0  0
   14.5222   38.7873    9.0754 C   0  0  0  0  0  0  0  0  0  0  0  0
   13.8793   44.2981    4.6882 C   0  0  0  0  0  0  0  0  0  0  0  0
   14.1111   45.9787    2.9057 C   0  0  0  0  0  0  0  0  0  0  0  0
   15.2039   45.8556    3.7658 C   0  0  0  0  0  0  0  0  0  0  0  0
   15.4837   43.1980    6.9284 N   0  0  0  0  0  0  0  0  0  0  0  0
   14.7554   38.0672   10.3322 N   0  0  0  0  0  0  0  0  0  0  0  0
   13.6994   41.7540    7.4433 N   0  0  0  0  0  0  0  0  0  0  0  0
   13.4542   43.2709    5.5900 N   0  0  0  0  0  0  0  0  0  0  0  0
   15.0713   44.9253    4.7506 N   0  0  0  0  0  0  0  0  0  0  0  0
   16.8738   35.1086   10.1406 O   0  0  0  0  0  0  0  0  0  0  0  0
   12.9494   44.8713    3.4217 S   0  0  0  0  0  0  0  0  0  0  0  0
  1 18  1  0
  1 17  2  0
  2 15  2  0
  3  4  2  0
  5  4  1  6
  5  6  1  0
  6  7  1  0
  7  8  1  0
  8 16  1  0
  9 16  1  0
  9 10  1  0
 10 20  1  0
 11 16  1  0
 11  5  1  0
 12 21  1  0
 13 21  1  0
 14 19  1  0
 18 12  1  0
  1 15  1  0
  2  3  1  0
  4 17  1  0
 12 19  2  0
 13 14  2  0
M  END
>  <rmsd>  (1) 
0.249145329

$$$$
