MolPort-020-295-258 MCULE-5000291440 PubChem-110267346
     RDKit          3D

 26 29  0  0  0  0  0  0  0  0999 V2000
   15.0203   47.4307    1.9974 C   0  0  0  0  0  0  0  0  0  0  0  0
   14.6019   46.3471    2.9239 C   0  0  0  0  0  0  0  0  0  0  0  0
   15.4640   45.9070    3.9297 C   0  0  0  0  0  0  0  0  0  0  0  0
   13.8490   44.3247    4.6714 C   0  0  0  0  0  0  0  0  0  0  0  0
   12.9619   44.7416    3.6748 C   0  0  0  0  0  0  0  0  0  0  0  0
   13.3432   45.7586    2.7978 C   0  0  0  0  0  0  0  0  0  0  0  0
   14.2302   42.7314    6.6345 C   0  0  0  0  0  0  0  0  0  0  0  0
   16.2263   42.6622    7.9055 C   0  0  0  0  0  0  0  0  0  0  0  0
   15.7001   41.6447    8.6979 C   0  0  0  0  0  0  0  0  0  0  0  0
   14.4069   41.1871    8.4224 C   0  0  0  0  0  0  0  0  0  0  0  0
   13.7837   40.0953    9.2322 C   0  0  2  0  0  0  0  0  0  0  0  0
   13.6459   40.5052   10.7009 C   0  0  0  0  0  0  0  0  0  0  0  0
   12.9895   39.3861   11.5067 C   0  0  0  0  0  0  0  0  0  0  0  0
   13.8093   38.1049   11.3845 C   0  0  0  0  0  0  0  0  0  0  0  0
   14.5792   38.7954    9.1045 C   0  0  0  0  0  0  0  0  0  0  0  0
   13.5767   36.5065    9.4546 C   0  0  0  0  0  0  0  0  0  0  0  0
   13.7379   36.1950    7.9909 C   0  0  0  0  0  0  0  0  0  0  0  0
   14.3685   34.8311    7.7802 C   0  0  0  0  0  0  0  0  0  0  0  0
   13.0746   34.3269    7.1710 C   0  0  0  0  0  0  0  0  0  0  0  0
   12.4408   35.6871    7.3899 C   0  0  0  0  0  0  0  0  0  0  0  0
   15.0734   44.9149    4.7742 N   0  0  0  0  0  0  0  0  0  0  0  0
   13.4486   43.2805    5.5667 N   0  0  0  0  0  0  0  0  0  0  0  0
   15.4870   43.1852    6.8936 N   0  0  0  0  0  0  0  0  0  0  0  0
   13.7031   41.7388    7.3992 N   0  0  0  0  0  0  0  0  0  0  0  0
   13.9923   37.7784    9.9730 N   0  0  0  0  0  0  0  0  0  0  0  0
   13.0684   35.6490   10.2299 O   0  0  0  0  0  0  0  0  0  0  0  0
  1  2  1  0
  3 21  2  0
  4  5  2  0
  4 22  1  0
  6  2  2  0
  7 24  2  0
  8 23  2  0
  9 10  2  0
 11 10  1  6
 11 12  1  0
 12 13  1  0
 13 14  1  0
 14 25  1  0
 15 25  1  0
 15 11  1  0
 17 16  1  0
 17 18  1  0
 18 19  1  0
 19 20  1  0
 20 17  1  0
 22  7  1  0
 25 16  1  0
  2  3  1  0
  4 21  1  0
  5  6  1  0
  7 23  1  0
  8  9  1  0
 10 24  1  0
 16 26  2  0
M  END
>  <rmsd>  (1) 
0.240645319

$$$$
