MolPort-020-278-609 CHEMBL3448474 MCULE-6381065529 PubChem-110255481
     RDKit          3D

 23 25  0  0  0  0  0  0  0  0999 V2000
   14.3698   41.1686    8.4358 C   0  0  0  0  0  0  0  0  0  0  0  0
   14.2300   42.7238    6.6521 C   0  0  0  0  0  0  0  0  0  0  0  0
   13.8468   44.3227    4.6726 C   0  0  0  0  0  0  0  0  0  0  0  0
   13.3001   45.7049    2.8307 C   0  0  0  0  0  0  0  0  0  0  0  0
   14.5456   46.3247    2.9094 C   0  0  0  0  0  0  0  0  0  0  0  0
   15.4295   45.9070    3.9022 C   0  0  0  0  0  0  0  0  0  0  0  0
   15.5219   43.1733    6.9456 C   0  0  0  0  0  0  0  0  0  0  0  0
   16.2112   42.5867    8.0047 C   0  0  0  0  0  0  0  0  0  0  0  0
   17.5849   43.0426    8.3406 C   0  0  0  0  0  0  0  0  0  0  0  0
   13.7323   40.0808    9.2346 C   0  0  1  0  0  0  0  0  0  0  0  0
   14.5476   38.7861    9.1294 C   0  0  0  0  0  0  0  0  0  0  0  0
   13.7970   38.0905   11.3301 C   0  0  0  0  0  0  0  0  0  0  0  0
   12.9571   39.3630   11.4806 C   0  0  0  0  0  0  0  0  0  0  0  0
   13.5934   40.4959   10.6925 C   0  0  0  0  0  0  0  0  0  0  0  0
   12.6901   37.2756    9.3639 C   0  0  0  0  0  0  0  0  0  0  0  0
   12.9074   36.1855    8.3325 C   0  0  0  0  0  0  0  0  0  0  0  0
   13.6855   41.7316    7.4051 N   0  0  0  0  0  0  0  0  0  0  0  0
   13.4591   43.2794    5.5771 N   0  0  0  0  0  0  0  0  0  0  0  0
   12.9745   44.7203    3.7087 N   0  0  0  0  0  0  0  0  0  0  0  0
   15.0673   44.9192    4.7616 N   0  0  0  0  0  0  0  0  0  0  0  0
   15.6274   41.5984    8.7294 N   0  0  0  0  0  0  0  0  0  0  0  0
   13.9720   37.6915    9.9260 N   0  0  0  0  0  0  0  0  0  0  0  0
   11.6791   35.8009    7.7979 O   0  0  0  0  0  0  0  0  0  0  0  0
  1 21  2  0
  2 17  2  0
  2 18  1  0
  3 20  2  0
  4 19  2  0
  5  6  2  0
  7  8  2  0
  9  8  1  0
 10  1  1  6
 10 11  1  0
 11 22  1  0
 12 22  1  0
 12 13  1  0
 13 14  1  0
 14 10  1  0
 15 22  1  0
 15 16  1  0
 16 23  1  0
 18  3  1  0
  1 17  1  0
  2  7  1  0
  3 19  1  0
  4  5  1  0
  6 20  1  0
  8 21  1  0
M  END
>  <rmsd>  (1) 
0.244078666

$$$$
