MolPort-001-895-901 6783020 CSSS00160246305 PubChem-1950138 ZINC000006783020 ZINC06783020
     RDKit          3D

 21 22  0  0  0  0  0  0  0  0999 V2000
   13.8330   36.9824   12.5894 C   0  0  0  0  0  0  0  0  0  0  0  0
   13.7115   38.4821   12.4230 C   0  0  0  0  0  0  0  0  0  0  0  0
   13.4388   38.8084   10.9669 C   0  0  0  0  0  0  0  0  0  0  0  0
   13.3225   40.3125   10.7724 C   0  0  0  0  0  0  0  0  0  0  0  0
   14.6857   40.9899   10.8473 C   0  0  0  0  0  0  0  0  0  0  0  0
   15.5302   40.6868    9.6163 C   0  0  0  0  0  0  0  0  0  0  0  0
   15.1683   41.5784    8.4755 C   0  0  0  0  0  0  0  0  0  0  0  0
   14.2496   42.7666    6.6122 C   0  0  0  0  0  0  0  0  0  0  0  0
   13.9067   44.3597    4.6649 C   0  0  0  0  0  0  0  0  0  0  0  0
   13.2704   45.8345    2.6652 C   0  0  0  0  0  0  0  0  0  0  0  0
   14.4804   46.5453    2.6331 C   0  0  0  0  0  0  0  0  0  0  0  0
   14.6901   47.5415    1.6751 C   0  0  0  0  0  0  0  0  0  0  0  0
   13.6915   47.8342    0.7425 C   0  0  0  0  0  0  0  0  0  0  0  0
   12.4843   47.1307    0.7685 C   0  0  0  0  0  0  0  0  0  0  0  0
   12.2760   46.1346    1.7272 C   0  0  0  0  0  0  0  0  0  0  0  0
   16.0106   42.5044    7.9669 N   0  0  0  0  0  0  0  0  0  0  0  0
   15.4993   43.1691    6.9321 N   0  0  0  0  0  0  0  0  0  0  0  0
   13.4749   43.3137    5.5407 N   0  0  0  0  0  0  0  0  0  0  0  0
   13.0183   44.8058    3.6324 N   0  0  0  0  0  0  0  0  0  0  0  0
   15.0481   44.8772    4.8015 O   0  0  0  0  0  0  0  0  0  0  0  0
   13.7123   41.5351    7.6234 S   0  0  0  0  0  0  0  0  0  0  0  0
  1  2  1  0
  2  3  1  0
  3  4  1  0
  4  5  1  0
  5  6  1  0
  6  7  1  0
  7 21  1  0
  8 18  1  0
  8 21  1  0
  9 19  1  0
 11 12  2  0
 13 14  2  0
 15 10  2  0
 16 17  1  0
 18  9  1  0
 19 10  1  0
  7 16  2  0
  8 17  2  0
  9 20  2  0
 10 11  1  0
 12 13  1  0
 14 15  1  0
M  END
>  <rmsd>  (1) 
0.196749046

$$$$
