MolPort-039-210-480 CSSS03437028746 MCULE-7076928754 PubChem-121017031
     RDKit          3D

 27 29  0  0  0  0  0  0  0  0999 V2000
    8.8498   47.5425   -0.7517 F   0  0  0  0  0  0  0  0  0  0  0  0
   11.0801   47.2451   -0.7099 F   0  0  0  0  0  0  0  0  0  0  0  0
   10.0972   48.6802    0.7362 F   0  0  0  0  0  0  0  0  0  0  0  0
    9.9598   47.4767    0.0680 C   0  0  0  0  0  0  0  0  0  0  0  0
   10.7244   46.0694    1.9841 C   0  0  0  0  0  0  0  0  0  0  0  0
   11.9392   46.7609    2.1242 C   0  0  0  0  0  0  0  0  0  0  0  0
   12.8528   46.3882    3.1139 C   0  0  0  0  0  0  0  0  0  0  0  0
   12.5621   45.3212    3.9700 C   0  0  0  0  0  0  0  0  0  0  0  0
   11.3522   44.6326    3.8361 C   0  0  0  0  0  0  0  0  0  0  0  0
   10.4385   45.0054    2.8461 C   0  0  0  0  0  0  0  0  0  0  0  0
   14.2162   42.5409    6.6517 C   0  0  0  0  0  0  0  0  0  0  0  0
   14.0551   41.2310    7.0398 C   0  0  0  0  0  0  0  0  0  0  0  0
   15.1605   39.7739    8.7201 C   0  0  0  0  0  0  0  0  0  0  0  0
   14.5435   39.8643   10.1068 C   0  0  1  0  0  0  0  0  0  0  0  0
   13.0070   39.8636   10.0133 C   0  0  0  0  0  0  0  0  0  0  0  0
   12.3769   38.9484   11.0663 C   0  0  0  0  0  0  0  0  0  0  0  0
   13.1079   39.0452   12.4078 C   0  0  0  0  0  0  0  0  0  0  0  0
   14.6328   39.1076   12.2217 C   0  0  0  0  0  0  0  0  0  0  0  0
   15.2403   43.0866    7.4026 C   0  0  0  0  0  0  0  0  0  0  0  0
    9.7855   46.4147    1.0035 O   0  0  0  0  0  0  0  0  0  0  0  0
   13.5007   45.7357    6.4227 O   0  0  0  0  0  0  0  0  0  0  0  0
   15.1046   45.0211    4.6968 O   0  0  0  0  0  0  0  0  0  0  0  0
   15.0051   38.7985   10.9002 O   0  0  0  0  0  0  0  0  0  0  0  0
   13.7040   44.8605    5.2184 S   0  0  0  0  0  0  0  0  0  0  0  0
   13.4453   43.2030    5.6492 N   0  0  0  0  0  0  0  0  0  0  0  0
   14.9753   41.0221    7.9976 N   0  0  0  0  0  0  0  0  0  0  0  0
   15.6844   42.1169    8.2259 N   0  0  0  0  0  0  0  0  0  0  0  0
  4  1  1  0
  4  2  1  0
  4  3  1  0
  4 20  1  0
  5 20  1  0
  6  7  2  0
  8  9  2  0
 10  5  2  0
 12 26  1  0
 13 26  1  0
 14 13  1  6
 14 15  1  0
 14 23  1  0
 15 16  1  0
 16 17  1  0
 17 18  1  0
 18 23  1  0
 19 11  1  0
 24  8  1  0
 24 25  1  0
 25 11  1  0
 26 27  1  0
  5  6  1  0
  7  8  1  0
  9 10  1  0
 11 12  2  0
 19 27  2  0
 24 21  2  0
 24 22  2  0
M  END
>  <rmsd>  (1) 
0.227036342

$$$$
