MolPort-003-020-522 9390687 CSSS03437190948 LN01391664 MCULE-6427518754 PubChem-4550575 ZINC000009390687
     RDKit          3D

 30 33  0  0  0  0  0  0  0  0999 V2000
   14.2478   42.7239    6.6084 C   0  0  0  0  0  0  0  0  0  0  0  0
   13.8583   44.4608    4.7936 C   0  0  0  0  0  0  0  0  0  0  0  0
   12.8582   45.1189    3.9074 C   0  0  0  0  0  0  0  0  0  0  0  0
   12.7708   44.3993    2.5679 C   0  0  0  0  0  0  0  0  0  0  0  0
   14.3808   45.7527    1.2376 C   0  0  0  0  0  0  0  0  0  0  0  0
   15.6225   45.8108    0.5952 C   0  0  0  0  0  0  0  0  0  0  0  0
   16.0516   46.9976   -0.0066 C   0  0  0  0  0  0  0  0  0  0  0  0
   15.2388   48.1340    0.0299 C   0  0  0  0  0  0  0  0  0  0  0  0
   13.9962   48.0841    0.6676 C   0  0  0  0  0  0  0  0  0  0  0  0
   13.5672   46.8976    1.2693 C   0  0  0  0  0  0  0  0  0  0  0  0
   15.2514   41.1820    8.2936 C   0  0  0  0  0  0  0  0  0  0  0  0
   15.5438   42.5216    8.5389 C   0  0  0  0  0  0  0  0  0  0  0  0
   16.3477   42.9794    9.7117 C   0  0  0  0  0  0  0  0  0  0  0  0
   14.9753   43.3955    7.5951 C   0  0  0  0  0  0  0  0  0  0  0  0
   15.0433   44.8309    7.7172 C   0  0  0  0  0  0  0  0  0  0  0  0
   15.6424   40.0218    9.1502 C   0  0  0  0  0  0  0  0  0  0  0  0
   14.5765   39.7270   10.1502 C   0  0  0  0  0  0  0  0  0  0  0  0
   14.5994   40.3629   11.4124 C   0  0  0  0  0  0  0  0  0  0  0  0
   13.5881   40.1122   12.3575 C   0  0  0  0  0  0  0  0  0  0  0  0
   12.5774   39.2252   11.9962 C   0  0  0  0  0  0  0  0  0  0  0  0
   12.5511   38.6165   10.7830 C   0  0  0  0  0  0  0  0  0  0  0  0
   10.7251   37.8996   11.9416 C   0  0  0  0  0  0  0  0  0  0  0  0
   13.5335   38.8395    9.8219 C   0  0  0  0  0  0  0  0  0  0  0  0
   13.4792   43.3070    5.5493 N   0  0  0  0  0  0  0  0  0  0  0  0
   15.0978   45.9825    7.8178 N   0  0  0  0  0  0  0  0  0  0  0  0
   15.0466   44.8789    4.8060 O   0  0  0  0  0  0  0  0  0  0  0  0
   13.9804   44.5488    1.8281 O   0  0  0  0  0  0  0  0  0  0  0  0
   11.4412   37.7995   10.7025 O   0  0  0  0  0  0  0  0  0  0  0  0
   11.4856   38.8198   12.7375 O   0  0  0  0  0  0  0  0  0  0  0  0
   14.2692   41.0756    6.9324 S   0  0  0  0  0  0  0  0  0  0  0  0
  1 24  1  0
  1 30  1  0
  3  2  1  0
  3  4  1  0
  4 27  1  0
  5 27  1  0
  6  7  2  0
  8  9  2  0
 10  5  2  0
 11 30  1  0
 12 14  1  0
 13 12  1  0
 14 15  1  0
 16 11  1  0
 16 17  1  0
 18 19  2  0
 20 21  2  0
 20 29  1  0
 21 28  1  0
 22 28  1  0
 22 29  1  0
 23 17  2  0
 24  2  1  0
  2 26  2  0
  5  6  1  0
  7  8  1  0
  9 10  1  0
 11 12  2  0
 14  1  2  0
 17 18  1  0
 19 20  1  0
 21 23  1  0
 15 25  3  0
M  END
>  <rmsd>  (1) 
0.247089133

$$$$
