MolPort-035-395-044 96125881 LN01331276 MCULE-9613971028 PubChem-14488320 ZINC000096125881 ZINC96125881
     RDKit          3D

 19 19  0  0  0  0  0  0  0  0999 V2000
   12.6356   39.2889   11.6169 C   0  0  0  0  0  0  0  0  0  0  0  0
   13.7948   38.9560   10.7012 C   0  0  0  0  0  0  0  0  0  0  0  0
   14.9933   40.7080    9.4532 C   0  0  0  0  0  0  0  0  0  0  0  0
   14.9965   41.6849    8.3502 C   0  0  0  0  0  0  0  0  0  0  0  0
   14.3476   42.8108    6.6776 C   0  0  0  0  0  0  0  0  0  0  0  0
   13.8846   44.3249    4.6806 C   0  0  0  0  0  0  0  0  0  0  0  0
   13.1909   45.6980    2.7007 C   0  0  0  0  0  0  0  0  0  0  0  0
   11.9609   45.8027    1.8243 C   0  0  0  0  0  0  0  0  0  0  0  0
   14.3745   45.3262    1.8244 C   0  0  0  0  0  0  0  0  0  0  0  0
   13.4349   47.0498    3.3490 C   0  0  0  0  0  0  0  0  0  0  0  0
   15.6266   43.2384    6.9821 C   0  0  0  0  0  0  0  0  0  0  0  0
   17.3087   42.6352    8.7008 C   0  0  0  0  0  0  0  0  0  0  0  0
   13.8630   39.9136    9.6551 O   0  0  0  0  0  0  0  0  0  0  0  0
   15.9973   40.5896   10.2072 O   0  0  0  0  0  0  0  0  0  0  0  0
   15.0139   44.8835    4.7449 O   0  0  0  0  0  0  0  0  0  0  0  0
   12.9612   44.6948    3.6933 O   0  0  0  0  0  0  0  0  0  0  0  0
   13.9434   41.8426    7.5231 N   0  0  0  0  0  0  0  0  0  0  0  0
   13.5227   43.3016    5.6144 N   0  0  0  0  0  0  0  0  0  0  0  0
   16.0184   42.5142    8.0425 N   0  0  0  0  0  0  0  0  0  0  0  0
  1  2  1  0
  2 13  1  0
  3 13  1  0
  3  4  1  0
  5 17  1  0
  5 18  1  0
  6 16  1  0
  7 16  1  0
  7  8  1  0
  7  9  1  0
  7 10  1  0
 11 19  1  0
 12 19  1  0
 18  6  1  0
 19  4  1  0
  3 14  2  0
  4 17  2  0
  5 11  2  0
  6 15  2  0
M  END
>  <rmsd>  (1) 
0.229568526

$$$$
