MolPort-039-117-155 CSC047896421 CSSS00047896421 MCULE-9383620367 PubChem-118783737
     RDKit          3D

 27 30  0  0  0  0  0  0  0  0999 V2000
   12.8225   40.4764    0.3434 C   0  0  0  0  0  0  0  0  0  0  0  0
   12.3087   41.2822    1.4820 C   0  0  0  0  0  0  0  0  0  0  0  0
   11.8558   42.8617    2.7569 C   0  0  0  0  0  0  0  0  0  0  0  0
   11.7392   44.2142    3.3808 C   0  0  2  0  0  0  0  0  0  0  0  0
   10.8424   45.1092    2.5218 C   0  0  0  0  0  0  0  0  0  0  0  0
   11.0263   46.5677    2.9296 C   0  0  0  0  0  0  0  0  0  0  0  0
   12.4716   47.0466    2.7264 C   0  0  0  0  0  0  0  0  0  0  0  0
   13.4983   45.9079    2.7089 C   0  0  0  0  0  0  0  0  0  0  0  0
   13.9186   44.3629    4.6417 C   0  0  0  0  0  0  0  0  0  0  0  0
   14.1908   42.7491    6.6207 C   0  0  0  0  0  0  0  0  0  0  0  0
   13.5831   41.7342    7.3677 C   0  0  0  0  0  0  0  0  0  0  0  0
   14.2487   41.1440    8.4470 C   0  0  0  0  0  0  0  0  0  0  0  0
   14.1781   39.5004   10.3070 C   0  0  0  0  0  0  0  0  0  0  0  0
   14.0379   40.3956   11.5297 C   0  0  0  0  0  0  0  0  0  0  0  0
   13.0784   39.6979   12.4695 C   0  0  0  0  0  0  0  0  0  0  0  0
   13.1434   38.2371   12.0956 C   0  0  0  0  0  0  0  0  0  0  0  0
   13.4175   38.2229   10.6092 C   0  0  0  0  0  0  0  0  0  0  0  0
   15.5425   41.5765    8.7787 C   0  0  0  0  0  0  0  0  0  0  0  0
   16.1570   42.5887    8.0380 C   0  0  0  0  0  0  0  0  0  0  0  0
   15.4835   43.1731    6.9626 C   0  0  0  0  0  0  0  0  0  0  0  0
   11.6220   40.7577    2.5140 N   0  0  0  0  0  0  0  0  0  0  0  0
   12.4825   42.6147    1.5895 N   0  0  0  0  0  0  0  0  0  0  0  0
   13.0680   44.8106    3.5752 N   0  0  0  0  0  0  0  0  0  0  0  0
   13.4683   43.3228    5.5232 N   0  0  0  0  0  0  0  0  0  0  0  0
   11.3591   41.7700    3.2826 O   0  0  0  0  0  0  0  0  0  0  0  0
   15.0559   44.8855    4.7970 O   0  0  0  0  0  0  0  0  0  0  0  0
   13.6054   40.1312    9.1665 O   0  0  0  0  0  0  0  0  0  0  0  0
  1  2  1  0
  2 22  1  0
  3 25  1  0
  4  3  1  6
  4  5  1  0
  4 23  1  0
  5  6  1  0
  6  7  1  0
  7  8  1  0
  8 23  1  0
  9 24  1  0
 11 12  2  0
 12 27  1  0
 13 27  1  0
 13 14  1  0
 14 15  1  0
 15 16  1  0
 16 17  1  0
 17 13  1  0
 18 19  2  0
 20 10  2  0
 21 25  1  0
 23  9  1  0
 24 10  1  0
  2 21  2  0
  3 22  2  0
  9 26  2  0
 10 11  1  0
 12 18  1  0
 19 20  1  0
M  END
>  <rmsd>  (1) 
0.248597309

$$$$
