MolPort-003-082-981 4341995 CSSS03437176986 PubChem-7200178 ZINC000004341995
     RDKit          3D

 27 29  0  0  0  0  0  0  0  0999 V2000
   13.7282   38.6816   11.3359 C   0  0  0  0  0  0  0  0  0  0  0  0
   13.1537   40.0556   11.6096 C   0  0  0  0  0  0  0  0  0  0  0  0
   10.7107   40.5134   11.2669 C   0  0  0  0  0  0  0  0  0  0  0  0
   10.8440   41.2158   10.0389 C   0  0  0  0  0  0  0  0  0  0  0  0
   12.4314   42.0405    8.1877 C   0  0  0  0  0  0  0  0  0  0  0  0
   13.8217   42.0636    7.7127 C   0  0  0  0  0  0  0  0  0  0  0  0
   14.2966   42.6631    6.5486 C   0  0  0  0  0  0  0  0  0  0  0  0
   13.9466   44.2968    4.6206 C   0  0  0  0  0  0  0  0  0  0  0  0
   13.0907   44.6397    3.4807 C   0  0  0  0  0  0  0  0  0  0  0  0
   13.4388   45.5628    2.5936 C   0  0  0  0  0  0  0  0  0  0  0  0
   12.5373   45.8755    1.4545 C   0  0  0  0  0  0  0  0  0  0  0  0
   15.6508   42.3944    6.5221 C   0  0  0  0  0  0  0  0  0  0  0  0
   16.6437   42.6672    5.5821 C   0  0  0  0  0  0  0  0  0  0  0  0
   17.9462   42.2156    5.8592 C   0  0  0  0  0  0  0  0  0  0  0  0
   18.2209   41.5008    7.0451 C   0  0  0  0  0  0  0  0  0  0  0  0
   17.1950   41.2201    7.9651 C   0  0  0  0  0  0  0  0  0  0  0  0
   15.9145   41.6786    7.6645 C   0  0  0  0  0  0  0  0  0  0  0  0
    9.6962   41.7523    9.4333 C   0  0  0  0  0  0  0  0  0  0  0  0
    8.4388   41.6029   10.0182 C   0  0  0  0  0  0  0  0  0  0  0  0
    8.3103   40.9102   11.2200 C   0  0  0  0  0  0  0  0  0  0  0  0
    9.4395   40.3702   11.8362 C   0  0  0  0  0  0  0  0  0  0  0  0
   11.7835   39.9358   11.9654 O   0  0  0  0  0  0  0  0  0  0  0  0
   11.5263   42.6110    7.5218 O   0  0  0  0  0  0  0  0  0  0  0  0
   15.0374   44.9018    4.8049 O   0  0  0  0  0  0  0  0  0  0  0  0
   14.8196   41.4924    8.3640 O   0  0  0  0  0  0  0  0  0  0  0  0
   12.1291   41.3636    9.4153 N   0  0  0  0  0  0  0  0  0  0  0  0
   13.4950   43.3063    5.5482 N   0  0  0  0  0  0  0  0  0  0  0  0
  1  2  1  0
  2 22  1  0
  3 22  1  0
  4 26  1  0
  4 18  2  0
  5  6  1  0
  6 25  1  0
  7 27  1  0
  7 12  1  0
  8  9  1  0
 11 10  1  0
 13 14  2  0
 15 16  2  0
 17 25  1  0
 17 12  2  0
 19 20  2  0
 21  3  2  0
 26  5  1  0
 27  8  1  0
  3  4  1  0
  5 23  2  0
  6  7  2  0
  8 24  2  0
  9 10  2  0
 12 13  1  0
 14 15  1  0
 16 17  1  0
 18 19  1  0
 20 21  1  0
M  END
>  <rmsd>  (1) 
0.202487409

$$$$
