Molport-046-951-091 MCULE-8395810544 MCULE-9977033632 PubChem-110089563
     RDKit          3D

 20 22  0  0  0  0  0  0  0  0999 V2000
   16.7792   46.5348    4.0271 C   0  0  0  0  0  0  0  0  0  0  0  0
   15.4374   45.9094    3.8996 C   0  0  0  0  0  0  0  0  0  0  0  0
   13.8438   44.3205    4.6742 C   0  0  0  0  0  0  0  0  0  0  0  0
   12.9414   44.7244    3.6864 C   0  0  0  0  0  0  0  0  0  0  0  0
   13.3042   45.7374    2.7972 C   0  0  0  0  0  0  0  0  0  0  0  0
   14.5601   46.3368    2.9011 C   0  0  0  0  0  0  0  0  0  0  0  0
   14.2356   42.7267    6.6553 C   0  0  0  0  0  0  0  0  0  0  0  0
   15.5303   43.1800    6.9426 C   0  0  0  0  0  0  0  0  0  0  0  0
   16.2428   42.6101    7.9974 C   0  0  0  0  0  0  0  0  0  0  0  0
   15.6630   41.5951    8.7574 C   0  0  0  0  0  0  0  0  0  0  0  0
   14.3668   41.1612    8.4477 C   0  0  0  0  0  0  0  0  0  0  0  0
   13.7057   40.0756    9.2362 C   0  0  2  0  0  0  0  0  0  0  0  0
   13.5398   40.4834   10.7002 C   0  0  0  0  0  0  0  0  0  0  0  0
   12.9431   39.3328   11.5041 C   0  0  0  0  0  0  0  0  0  0  0  0
   13.7847   38.0754   11.2992 C   0  0  0  0  0  0  0  0  0  0  0  0
   14.4924   38.7664    9.1395 C   0  0  0  0  0  0  0  0  0  0  0  0
   15.0647   44.9206    4.7561 N   0  0  0  0  0  0  0  0  0  0  0  0
   13.4600   43.2788    5.5820 N   0  0  0  0  0  0  0  0  0  0  0  0
   13.6936   41.7344    7.4133 N   0  0  0  0  0  0  0  0  0  0  0  0
   13.8052   37.7121    9.8832 N   0  0  0  0  0  0  0  0  0  0  0  0
  1  2  1  0
  3 17  2  0
  3 18  1  0
  4  5  2  0
  6  2  2  0
  7 19  2  0
  8  9  2  0
 10 11  2  0
 12 11  1  6
 12 13  1  0
 13 14  1  0
 14 15  1  0
 15 20  1  0
 16 20  1  0
 16 12  1  0
 18  7  1  0
  2 17  1  0
  3  4  1  0
  5  6  1  0
  7  8  1  0
  9 10  1  0
 11 19  1  0
M  END
>  <rmsd>  (1) 
0.246228248

$$$$
