MolPort-047-071-752 PubChem-132766475
     RDKit          3D

 31 34  0  0  0  0  0  0  0  0999 V2000
   16.8064   46.5200    4.0748 C   0  0  0  0  0  0  0  0  0  0  0  0
   15.4604   45.9074    3.9292 C   0  0  0  0  0  0  0  0  0  0  0  0
   14.5961   46.3517    2.9268 C   0  0  0  0  0  0  0  0  0  0  0  0
   13.3359   45.7643    2.8057 C   0  0  0  0  0  0  0  0  0  0  0  0
   12.9561   44.7460    3.6819 C   0  0  0  0  0  0  0  0  0  0  0  0
   13.8462   44.3256    4.6738 C   0  0  0  0  0  0  0  0  0  0  0  0
   14.2343   42.7337    6.6349 C   0  0  0  0  0  0  0  0  0  0  0  0
   13.6978   41.7130    7.4193 C   0  0  0  0  0  0  0  0  0  0  0  0
   14.4710   41.1878    8.4545 C   0  0  0  0  0  0  0  0  0  0  0  0
   16.2307   42.6697    7.9065 C   0  0  0  0  0  0  0  0  0  0  0  0
   17.5985   43.1875    8.1682 C   0  0  0  0  0  0  0  0  0  0  0  0
   13.9161   40.0944    9.3055 C   0  0  2  0  0  0  0  0  0  0  0  0
   13.8113   40.5419   10.7670 C   0  0  0  0  0  0  0  0  0  0  0  0
   13.4013   39.4120   11.7250 C   0  0  0  0  0  0  0  0  0  0  0  0
   13.2021   38.0702   11.0206 C   0  0  0  0  0  0  0  0  0  0  0  0
   14.7645   38.8268    9.1815 C   0  0  0  0  0  0  0  0  0  0  0  0
   15.1265   36.6010   10.2698 C   0  0  0  0  0  0  0  0  0  0  0  0
   14.6152   35.3573   10.8760 C   0  0  0  0  0  0  0  0  0  0  0  0
   13.3380   35.1512   11.1808 C   0  0  0  0  0  0  0  0  0  0  0  0
   12.8798   33.8966   11.7839 C   0  0  0  0  0  0  0  0  0  0  0  0
   13.6477   32.7919   12.1142 C   0  0  0  0  0  0  0  0  0  0  0  0
   10.4375   31.6513   13.1434 C   0  0  0  0  0  0  0  0  0  0  0  0
   11.5777   33.6062   12.1293 C   0  0  0  0  0  0  0  0  0  0  0  0
   13.4486   43.2801    5.5689 N   0  0  0  0  0  0  0  0  0  0  0  0
   15.7217   41.6751    8.6790 N   0  0  0  0  0  0  0  0  0  0  0  0
   15.4896   43.1912    6.8945 N   0  0  0  0  0  0  0  0  0  0  0  0
   14.3341   37.7970   10.1335 N   0  0  0  0  0  0  0  0  0  0  0  0
   12.8222   31.8680   12.6427 N   0  0  0  0  0  0  0  0  0  0  0  0
   11.5972   32.3661   12.6448 N   0  0  0  0  0  0  0  0  0  0  0  0
   15.0715   44.9140    4.7731 N   0  0  0  0  0  0  0  0  0  0  0  0
   16.3133   36.5953    9.8466 O   0  0  0  0  0  0  0  0  0  0  0  0
  1  2  1  0
  2 30  2  0
  3  4  2  0
  5  6  2  0
  6 24  1  0
  7 26  2  0
  8  9  2  0
 10 25  2  0
 11 10  1  0
 12  9  1  6
 12 13  1  0
 13 14  1  0
 14 15  1  0
 15 27  1  0
 16 27  1  0
 16 12  1  0
 17 18  1  0
 19 20  1  0
 20 21  1  0
 22 29  1  0
 24  7  1  0
 27 17  1  0
 29 28  1  0
 29 23  1  0
  2  3  1  0
  4  5  1  0
  6 30  1  0
  7  8  1  0
  9 25  1  0
 10 26  1  0
 17 31  2  0
 18 19  2  0
 21 28  2  0
 23 20  2  0
M  END
>  <rmsd>  (1) 
0.248519942

$$$$
