MolPort-002-716-149 4580359 CSSS00132972401 ChemDiv-8013-0823 MCULE-3996002319 PubChem-135403603 ZINC000004580359 ZINC04580359
     RDKit          3D

 24 25  0  0  0  0  0  0  0  0999 V2000
    9.2956   41.3901    5.7392 C   0  0  0  0  0  0  0  0  0  0  0  0
   10.2601   41.3664    6.8689 C   0  0  0  0  0  0  0  0  0  0  0  0
   12.6804   41.0426    7.5792 C   0  0  0  0  0  0  0  0  0  0  0  0
   11.3108   38.3562    9.6002 C   0  0  0  0  0  0  0  0  0  0  0  0
   11.0336   39.0530   10.8906 C   0  0  0  0  0  0  0  0  0  0  0  0
   12.0784   39.3743   11.7710 C   0  0  0  0  0  0  0  0  0  0  0  0
   11.8027   40.0542   12.9615 C   0  0  0  0  0  0  0  0  0  0  0  0
   10.4897   40.4192   13.2731 C   0  0  0  0  0  0  0  0  0  0  0  0
    9.4497   40.1069   12.3933 C   0  0  0  0  0  0  0  0  0  0  0  0
    9.7218   39.4274   11.2024 C   0  0  0  0  0  0  0  0  0  0  0  0
   13.9429   41.7948    7.5120 C   0  0  0  0  0  0  0  0  0  0  0  0
   14.2988   42.7872    6.6315 C   0  0  0  0  0  0  0  0  0  0  0  0
   13.9025   44.3492    4.6727 C   0  0  0  0  0  0  0  0  0  0  0  0
   12.9698   44.8021    3.6085 C   0  0  0  0  0  0  0  0  0  0  0  0
    9.8357   41.4690    8.0504 O   0  0  0  0  0  0  0  0  0  0  0  0
   11.4407   39.3033    8.5522 O   0  0  0  0  0  0  0  0  0  0  0  0
   15.8946   42.4717    7.9626 O   0  0  0  0  0  0  0  0  0  0  0  0
   15.0375   44.8858    4.7721 O   0  0  0  0  0  0  0  0  0  0  0  0
   11.6621   41.2822    6.5964 N   0  0  0  0  0  0  0  0  0  0  0  0
   12.5445   40.1242    8.4875 N   0  0  0  0  0  0  0  0  0  0  0  0
   14.9832   41.6201    8.3469 N   0  0  0  0  0  0  0  0  0  0  0  0
   15.5400   43.1986    6.9390 N   0  0  0  0  0  0  0  0  0  0  0  0
   13.4957   43.3101    5.5677 N   0  0  0  0  0  0  0  0  0  0  0  0
   13.3582   39.0321   11.4794 F   0  0  0  0  0  0  0  0  0  0  0  0
  1  2  1  0
  2 19  1  0
  3 11  1  0
  4 16  1  0
  4  5  1  0
  6 24  1  0
  6  7  2  0
  8  9  2  0
 10  5  2  0
 12 23  1  0
 12 11  1  0
 14 13  1  0
 17 22  1  0
 19  3  1  0
 20 16  1  0
 21 17  1  0
 23 13  1  0
  2 15  2  0
  3 20  2  0
  5  6  1  0
  7  8  1  0
  9 10  1  0
 11 21  2  0
 12 22  2  0
 13 18  2  0
M  END
>  <rmsd>  (1) 
0.227055639

$$$$
