Molport-053-317-044 PubChem-110111891
     RDKit          3D

 26 29  0  0  0  0  0  0  0  0999 V2000
   15.6596   35.8288    7.4180 C   0  0  0  0  0  0  0  0  0  0  0  0
   14.9535   34.9995    8.4339 C   0  0  0  0  0  0  0  0  0  0  0  0
   13.8694   35.4503    9.1748 C   0  0  0  0  0  0  0  0  0  0  0  0
   14.5850   33.1381    9.6656 C   0  0  0  0  0  0  0  0  0  0  0  0
   13.2694   36.8157    9.1448 C   0  0  0  0  0  0  0  0  0  0  0  0
   13.0625   38.1644   11.0574 C   0  0  0  0  0  0  0  0  0  0  0  0
   13.5914   39.4071   11.7675 C   0  0  0  0  0  0  0  0  0  0  0  0
   13.7539   40.5728   10.7880 C   0  0  0  0  0  0  0  0  0  0  0  0
   13.8234   40.1113    9.3279 C   0  0  2  0  0  0  0  0  0  0  0  0
   14.5727   38.7781    9.2019 C   0  0  0  0  0  0  0  0  0  0  0  0
   14.4359   41.1614    8.4577 C   0  0  0  0  0  0  0  0  0  0  0  0
   13.6753   41.7272    7.4320 C   0  0  0  0  0  0  0  0  0  0  0  0
   14.2398   42.7071    6.6119 C   0  0  0  0  0  0  0  0  0  0  0  0
   16.2904   42.5616    7.8090 C   0  0  0  0  0  0  0  0  0  0  0  0
   15.7580   41.5825    8.6484 C   0  0  0  0  0  0  0  0  0  0  0  0
   13.8497   44.3260    4.6734 C   0  0  0  0  0  0  0  0  0  0  0  0
   15.4444   45.9223    3.9408 C   0  0  0  0  0  0  0  0  0  0  0  0
   14.5591   46.3534    2.9518 C   0  0  0  0  0  0  0  0  0  0  0  0
   12.9664   44.7598    3.6821 C   0  0  0  0  0  0  0  0  0  0  0  0
   13.4078   34.2142   10.2091 S   0  0  0  0  0  0  0  0  0  0  0  0
   15.3387   33.7239    8.7056 N   0  0  0  0  0  0  0  0  0  0  0  0
   14.0081   37.6977   10.0339 N   0  0  0  0  0  0  0  0  0  0  0  0
   15.5285   43.0980    6.8181 N   0  0  0  0  0  0  0  0  0  0  0  0
   13.4471   43.2794    5.5646 N   0  0  0  0  0  0  0  0  0  0  0  0
   15.0711   44.9186    4.7782 N   0  0  0  0  0  0  0  0  0  0  0  0
   13.3397   45.7626    2.8436 N   0  0  0  0  0  0  0  0  0  0  0  0
  1  2  1  0
  2 21  1  0
  3 20  1  0
  4 20  1  0
  5  3  1  0
  5 22  1  0
  6 22  1  0
  6  7  1  0
  7  8  1  0
  8  9  1  0
  9 10  1  0
  9 11  1  6
 10 22  1  0
 12 13  2  0
 13 24  1  0
 14 23  2  0
 15 11  2  0
 17 25  2  0
 18 26  2  0
 19 16  2  0
 24 16  1  0
  2  3  2  0
  4 21  2  0
 11 12  1  0
 13 23  1  0
 14 15  1  0
 16 25  1  0
 17 18  1  0
 19 26  1  0
M  END
>  <rmsd>  (1) 
0.248619586

$$$$
