MolPort-004-989-144 CSSS09880947379 MCULE-5344949372 PubChem-45163881
     RDKit          3D

 34 38  0  0  0  0  0  0  0  0999 V2000
   12.6481   38.0430    6.6373 C   0  0  0  0  0  0  0  0  0  0  0  0
   13.3824   40.3930    6.5891 C   0  0  0  0  0  0  0  0  0  0  0  0
   14.2093   41.4807    7.1564 C   0  0  0  0  0  0  0  0  0  0  0  0
   14.2810   42.7871    6.6634 C   0  0  0  0  0  0  0  0  0  0  0  0
   15.1321   43.4760    7.5100 C   0  0  0  0  0  0  0  0  0  0  0  0
   15.5075   44.8141    7.5831 C   0  0  0  0  0  0  0  0  0  0  0  0
   16.3643   45.1969    8.6294 C   0  0  0  0  0  0  0  0  0  0  0  0
   16.7885   44.2261    9.5701 C   0  0  0  0  0  0  0  0  0  0  0  0
   15.5568   42.5743    8.4471 C   0  0  0  0  0  0  0  0  0  0  0  0
   15.1932   40.1921    9.1038 C   0  0  0  0  0  0  0  0  0  0  0  0
   14.3067   40.2952   10.3358 C   0  0  2  0  0  0  0  0  0  0  0  0
   14.6104   39.1576   11.2760 C   0  0  0  0  0  0  0  0  0  0  0  0
   13.2771   38.8517   11.8641 C   0  0  0  0  0  0  0  0  0  0  0  0
   12.3259   39.2824   10.7772 C   0  0  0  0  0  0  0  0  0  0  0  0
   17.6605   47.1294    9.7434 C   0  0  2  0  0  0  0  0  0  0  0  0
   19.0195   46.4700    9.7299 C   0  0  0  0  0  0  0  0  0  0  0  0
   19.6988   46.8784   11.0156 C   0  0  0  0  0  0  0  0  0  0  0  0
   17.0736   46.9684   11.1309 C   0  0  0  0  0  0  0  0  0  0  0  0
   13.8535   44.4414    4.7654 C   0  0  0  0  0  0  0  0  0  0  0  0
   12.8396   45.0520    3.8881 C   0  0  0  0  0  0  0  0  0  0  0  0
   11.5321   44.5449    3.8567 C   0  0  0  0  0  0  0  0  0  0  0  0
   10.5686   45.1244    3.0257 C   0  0  0  0  0  0  0  0  0  0  0  0
   10.9052   46.2163    2.2213 C   0  0  0  0  0  0  0  0  0  0  0  0
   12.2053   46.7288    2.2474 C   0  0  0  0  0  0  0  0  0  0  0  0
   13.1690   46.1486    3.0773 C   0  0  0  0  0  0  0  0  0  0  0  0
   13.4368   39.1112    7.1393 O   0  0  0  0  0  0  0  0  0  0  0  0
   12.6293   40.6245    5.6037 O   0  0  0  0  0  0  0  0  0  0  0  0
   12.9472   40.2531    9.9693 O   0  0  0  0  0  0  0  0  0  0  0  0
   15.0342   44.8839    4.7623 O   0  0  0  0  0  0  0  0  0  0  0  0
   16.3734   42.9285    9.4715 N   0  0  0  0  0  0  0  0  0  0  0  0
   15.0144   41.3590    8.2466 N   0  0  0  0  0  0  0  0  0  0  0  0
   16.7802   46.5666    8.7214 N   0  0  0  0  0  0  0  0  0  0  0  0
   13.5067   43.3121    5.5764 N   0  0  0  0  0  0  0  0  0  0  0  0
   18.4419   46.9325   12.3309 S   0  0  0  0  0  0  0  0  0  0  0  0
  1 26  1  0
  2 26  1  0
  2  3  1  0
  4  5  1  0
  4 33  1  0
  6  7  2  0
  7 32  1  0
  8 30  2  0
  9 31  1  0
  9  5  2  0
 10 31  1  0
 11 10  1  6
 11 12  1  0
 11 28  1  0
 12 13  1  0
 13 14  1  0
 14 28  1  0
 15 32  1  6
 15 16  1  0
 16 17  1  0
 17 34  1  0
 18 34  1  0
 18 15  1  0
 19 20  1  0
 21 22  2  0
 23 24  2  0
 25 20  2  0
 31  3  1  0
 33 19  1  0
  2 27  2  0
  3  4  2  0
  5  6  1  0
  7  8  1  0
  9 30  1  0
 19 29  2  0
 20 21  1  0
 22 23  1  0
 24 25  1  0
M  END
>  <rmsd>  (1) 
0.182124659

$$$$
