Molport-020-279-139 MCULE-6787132384 PubChem-110255894
     RDKit          3D

 24 26  0  0  0  0  0  0  0  0999 V2000
   13.2278   35.3224    6.0302 C   0  0  0  0  0  0  0  0  0  0  0  0
   14.0710   36.0406    8.0791 C   0  0  0  0  0  0  0  0  0  0  0  0
   13.7629   36.4029    9.4956 C   0  0  0  0  0  0  0  0  0  0  0  0
   13.7279   38.0689   11.3762 C   0  0  0  0  0  0  0  0  0  0  0  0
   12.9219   39.3600   11.4844 C   0  0  0  0  0  0  0  0  0  0  0  0
   13.6060   40.4736   10.6970 C   0  0  0  0  0  0  0  0  0  0  0  0
   13.7539   40.0672    9.2300 C   0  0  2  0  0  0  0  0  0  0  0  0
   14.5467   38.7657    9.1087 C   0  0  0  0  0  0  0  0  0  0  0  0
   14.3916   41.1584    8.4309 C   0  0  0  0  0  0  0  0  0  0  0  0
   15.6869   41.6095    8.7141 C   0  0  0  0  0  0  0  0  0  0  0  0
   15.5342   43.1664    6.9385 C   0  0  0  0  0  0  0  0  0  0  0  0
   14.2383   42.7206    6.6488 C   0  0  0  0  0  0  0  0  0  0  0  0
   13.8432   44.3240    4.6770 C   0  0  0  0  0  0  0  0  0  0  0  0
   12.9385   44.7345    3.6940 C   0  0  0  0  0  0  0  0  0  0  0  0
   13.3004   45.7512    2.8086 C   0  0  0  0  0  0  0  0  0  0  0  0
   14.5579   46.3474    2.9114 C   0  0  0  0  0  0  0  0  0  0  0  0
   15.4373   45.9134    3.9048 C   0  0  0  0  0  0  0  0  0  0  0  0
   12.8556   35.6306    7.3984 N   0  0  0  0  0  0  0  0  0  0  0  0
   13.9553   37.7436    9.9697 N   0  0  0  0  0  0  0  0  0  0  0  0
   16.2276   42.6026    7.9617 N   0  0  0  0  0  0  0  0  0  0  0  0
   13.7026   41.7262    7.4058 N   0  0  0  0  0  0  0  0  0  0  0  0
   13.4600   43.2788    5.5808 N   0  0  0  0  0  0  0  0  0  0  0  0
   15.0657   44.9212    4.7580 N   0  0  0  0  0  0  0  0  0  0  0  0
   13.3311   35.5113   10.2753 O   0  0  0  0  0  0  0  0  0  0  0  0
  1 18  1  0
  2 18  1  0
  2  3  1  0
  3 19  1  0
  4 19  1  0
  4  5  1  0
  5  6  1  0
  6  7  1  0
  7  8  1  0
  7  9  1  6
  8 19  1  0
  9 21  2  0
 10 20  2  0
 11 12  2  0
 12 22  1  0
 13 23  2  0
 14 15  2  0
 16 17  2  0
 22 13  1  0
  3 24  2  0
  9 10  1  0
 11 20  1  0
 12 21  1  0
 13 14  1  0
 15 16  1  0
 17 23  1  0
M  END
>  <rmsd>  (1) 
0.241063505

$$$$
