Molport-020-280-055 MCULE-5859070276 PubChem-110256434
     RDKit          3D

 27 29  0  0  0  0  0  0  0  0999 V2000
   16.8052   46.5195    4.0731 C   0  0  0  0  0  0  0  0  0  0  0  0
   15.4590   45.9070    3.9287 C   0  0  0  0  0  0  0  0  0  0  0  0
   13.8454   44.3251    4.6745 C   0  0  0  0  0  0  0  0  0  0  0  0
   12.9545   44.7458    3.6835 C   0  0  0  0  0  0  0  0  0  0  0  0
   13.3334   45.7643    2.8072 C   0  0  0  0  0  0  0  0  0  0  0  0
   14.5936   46.3516    2.9273 C   0  0  0  0  0  0  0  0  0  0  0  0
   14.2352   42.7333    6.6353 C   0  0  0  0  0  0  0  0  0  0  0  0
   16.2316   42.6709    7.9067 C   0  0  0  0  0  0  0  0  0  0  0  0
   14.4734   41.1874    8.4547 C   0  0  0  0  0  0  0  0  0  0  0  0
   13.6998   41.7119    7.4195 C   0  0  0  0  0  0  0  0  0  0  0  0
   13.9197   40.0930    9.3052 C   0  0  2  0  0  0  0  0  0  0  0  0
   13.8201   40.5375   10.7680 C   0  0  0  0  0  0  0  0  0  0  0  0
   13.3718   39.4150   11.7185 C   0  0  0  0  0  0  0  0  0  0  0  0
   13.2073   38.0636   11.0221 C   0  0  0  0  0  0  0  0  0  0  0  0
   14.7687   38.8261    9.1789 C   0  0  0  0  0  0  0  0  0  0  0  0
   15.1052   36.5909   10.2701 C   0  0  0  0  0  0  0  0  0  0  0  0
   14.7005   35.5266   11.2405 C   0  0  0  0  0  0  0  0  0  0  0  0
   13.6625   34.6045   10.6228 C   0  0  0  0  0  0  0  0  0  0  0  0
   13.1819   33.1475    9.0378 C   0  0  0  0  0  0  0  0  0  0  0  0
   17.5991   43.1898    8.1682 C   0  0  0  0  0  0  0  0  0  0  0  0
   15.0710   44.9134    4.7726 N   0  0  0  0  0  0  0  0  0  0  0  0
   13.4487   43.2793    5.5696 N   0  0  0  0  0  0  0  0  0  0  0  0
   15.4899   43.1919    6.8949 N   0  0  0  0  0  0  0  0  0  0  0  0
   15.7237   41.6757    8.6791 N   0  0  0  0  0  0  0  0  0  0  0  0
   14.3530   37.8081   10.1487 N   0  0  0  0  0  0  0  0  0  0  0  0
   16.1100   36.3915    9.5357 O   0  0  0  0  0  0  0  0  0  0  0  0
   14.2506   33.8149    9.6339 O   0  0  0  0  0  0  0  0  0  0  0  0
  1  2  1  0
  3 21  2  0
  3 22  1  0
  4  5  2  0
  6  2  2  0
  8 23  2  0
  9 24  2  0
 10  7  2  0
 11  9  1  6
 11 12  1  0
 12 13  1  0
 13 14  1  0
 14 25  1  0
 15 25  1  0
 15 11  1  0
 17 16  1  0
 17 18  1  0
 18 27  1  0
 19 27  1  0
 20  8  1  0
 22  7  1  0
 25 16  1  0
  2 21  1  0
  3  4  1  0
  5  6  1  0
  7 23  1  0
  8 24  1  0
  9 10  1  0
 16 26  2  0
M  END
>  <rmsd>  (1) 
0.248445794

$$$$
