MolPort-004-987-956 CSSS00159522349 MCULE-1732611746 PubChem-45163321
     RDKit          3D

 35 39  0  0  0  0  0  0  0  0999 V2000
   12.7084   38.0233    6.5808 C   0  0  0  0  0  0  0  0  0  0  0  0
   13.4214   40.3798    6.5502 C   0  0  0  0  0  0  0  0  0  0  0  0
   14.2241   41.4754    7.1371 C   0  0  0  0  0  0  0  0  0  0  0  0
   14.2786   42.7877    6.6582 C   0  0  0  0  0  0  0  0  0  0  0  0
   15.1154   43.4804    7.5151 C   0  0  0  0  0  0  0  0  0  0  0  0
   15.4708   44.8229    7.6023 C   0  0  0  0  0  0  0  0  0  0  0  0
   16.3185   45.2059    8.6554 C   0  0  0  0  0  0  0  0  0  0  0  0
   16.7552   44.2333    9.5881 C   0  0  0  0  0  0  0  0  0  0  0  0
   15.5494   42.5756    8.4452 C   0  0  0  0  0  0  0  0  0  0  0  0
   15.2236   40.1791    9.0713 C   0  0  0  0  0  0  0  0  0  0  0  0
   14.3389   40.2497   10.3065 C   0  0  2  0  0  0  0  0  0  0  0  0
   14.6389   39.0774   11.2087 C   0  0  0  0  0  0  0  0  0  0  0  0
   13.2907   38.6422   11.6975 C   0  0  0  0  0  0  0  0  0  0  0  0
   12.3351   39.6064   11.0361 C   0  0  0  0  0  0  0  0  0  0  0  0
   17.5980   47.0549    9.8214 C   0  0  0  0  0  0  0  0  0  0  0  0
   17.7860   48.5243    9.6836 C   0  0  0  0  0  0  0  0  0  0  0  0
   18.7203   49.1427    8.8869 C   0  0  0  0  0  0  0  0  0  0  0  0
   17.5338   50.6840    9.8154 C   0  0  0  0  0  0  0  0  0  0  0  0
   17.0086   49.4916   10.2803 C   0  0  0  0  0  0  0  0  0  0  0  0
   13.8558   44.4388    4.7600 C   0  0  0  0  0  0  0  0  0  0  0  0
   12.8502   45.0424    3.8684 C   0  0  0  0  0  0  0  0  0  0  0  0
   13.2013   46.0993    3.0146 C   0  0  0  0  0  0  0  0  0  0  0  0
   12.2473   46.6698    2.1669 C   0  0  0  0  0  0  0  0  0  0  0  0
   10.9359   46.1878    2.1665 C   0  0  0  0  0  0  0  0  0  0  0  0
   10.5781   45.1349    3.0128 C   0  0  0  0  0  0  0  0  0  0  0  0
   11.5318   44.5642    3.8606 C   0  0  0  0  0  0  0  0  0  0  0  0
   13.4713   39.0995    7.1041 O   0  0  0  0  0  0  0  0  0  0  0  0
   12.6934   40.6035    5.5447 O   0  0  0  0  0  0  0  0  0  0  0  0
   12.9855   40.1906    9.9401 O   0  0  0  0  0  0  0  0  0  0  0  0
   18.5368   50.4363    9.0015 O   0  0  0  0  0  0  0  0  0  0  0  0
   15.0359   44.8835    4.7674 O   0  0  0  0  0  0  0  0  0  0  0  0
   16.3590   42.9310    9.4751 N   0  0  0  0  0  0  0  0  0  0  0  0
   15.0254   41.3547    8.2303 N   0  0  0  0  0  0  0  0  0  0  0  0
   16.7148   46.5738    8.7697 N   0  0  0  0  0  0  0  0  0  0  0  0
   13.5033   43.3128    5.5729 N   0  0  0  0  0  0  0  0  0  0  0  0
  1 27  1  0
  2 27  1  0
  2  3  1  0
  4  5  1  0
  4 35  1  0
  6  7  2  0
  7 34  1  0
  8 32  2  0
  9 33  1  0
  9  5  2  0
 10 33  1  0
 11 10  1  6
 11 12  1  0
 11 29  1  0
 12 13  1  0
 13 14  1  0
 14 29  1  0
 15 34  1  0
 15 16  1  0
 17 30  1  0
 18 30  1  0
 19 16  1  0
 20 21  1  0
 22 23  2  0
 24 25  2  0
 26 21  2  0
 33  3  1  0
 35 20  1  0
  2 28  2  0
  3  4  2  0
  5  6  1  0
  7  8  1  0
  9 32  1  0
 16 17  2  0
 18 19  2  0
 20 31  2  0
 21 22  1  0
 23 24  1  0
 25 26  1  0
M  END
>  <rmsd>  (1) 
0.179839909

$$$$
