MolPort-003-121-662 9058316 CSSS03437103792 MCULE-8574513420 PubChem-16939933 ZINC000009058316 ZINC09058316
     RDKit          3D

 30 33  0  0  0  0  0  0  0  0999 V2000
   13.3560   39.5218   11.3316 C   0  0  0  0  0  0  0  0  0  0  0  0
   10.9103   40.0487   11.1363 C   0  0  0  0  0  0  0  0  0  0  0  0
   11.0032   40.8357    9.9566 C   0  0  0  0  0  0  0  0  0  0  0  0
   12.5317   41.8283    8.1389 C   0  0  0  0  0  0  0  0  0  0  0  0
   13.9133   41.9405    7.6518 C   0  0  0  0  0  0  0  0  0  0  0  0
   14.3436   42.6317    6.5190 C   0  0  0  0  0  0  0  0  0  0  0  0
   13.9172   44.3160    4.6444 C   0  0  0  0  0  0  0  0  0  0  0  0
   13.0302   44.7251    3.5308 C   0  0  0  0  0  0  0  0  0  0  0  0
   11.7744   44.1195    3.3039 C   0  0  0  0  0  0  0  0  0  0  0  0
   10.9746   44.5419    2.2370 C   0  0  0  0  0  0  0  0  0  0  0  0
   11.4091   45.5622    1.3892 C   0  0  0  0  0  0  0  0  0  0  0  0
   12.6483   46.1661    1.6043 C   0  0  0  0  0  0  0  0  0  0  0  0
   13.4522   45.7494    2.6678 C   0  0  0  0  0  0  0  0  0  0  0  0
   15.7035   42.4198    6.4728 C   0  0  0  0  0  0  0  0  0  0  0  0
   17.9272   42.4153    5.7330 C   0  0  0  0  0  0  0  0  0  0  0  0
   18.3013   41.6396    6.8538 C   0  0  0  0  0  0  0  0  0  0  0  0
   17.3290   41.2409    7.7885 C   0  0  0  0  0  0  0  0  0  0  0  0
   16.0206   41.6500    7.5561 C   0  0  0  0  0  0  0  0  0  0  0  0
    9.8322   41.3903    9.4147 C   0  0  0  0  0  0  0  0  0  0  0  0
    8.5917   41.1791   10.0161 C   0  0  0  0  0  0  0  0  0  0  0  0
    8.5034   40.4074   11.1724 C   0  0  0  0  0  0  0  0  0  0  0  0
    9.6557   39.8483   11.7253 C   0  0  0  0  0  0  0  0  0  0  0  0
   12.0074   39.4430   11.7702 O   0  0  0  0  0  0  0  0  0  0  0  0
   11.5951   42.3991    7.5180 O   0  0  0  0  0  0  0  0  0  0  0  0
   15.0218   44.9024    4.8051 O   0  0  0  0  0  0  0  0  0  0  0  0
   14.9457   41.3724    8.2566 O   0  0  0  0  0  0  0  0  0  0  0  0
   12.2727   41.0638    9.3246 N   0  0  0  0  0  0  0  0  0  0  0  0
   13.5057   43.3003    5.5670 N   0  0  0  0  0  0  0  0  0  0  0  0
   16.6258   42.7923    5.5510 N   0  0  0  0  0  0  0  0  0  0  0  0
   11.3122   43.1237    4.1002 F   0  0  0  0  0  0  0  0  0  0  0  0
  1 23  1  0
  2 23  1  0
  3 27  1  0
  3 19  2  0
  4  5  1  0
  5 26  1  0
  6 28  1  0
  6 14  1  0
  7  8  1  0
  9 30  1  0
  9 10  2  0
 11 12  2  0
 13  8  2  0
 15 29  2  0
 16 17  2  0
 18 26  1  0
 18 14  2  0
 20 21  2  0
 22  2  2  0
 27  4  1  0
 28  7  1  0
  2  3  1  0
  4 24  2  0
  5  6  2  0
  7 25  2  0
  8  9  1  0
 10 11  1  0
 12 13  1  0
 14 29  1  0
 15 16  1  0
 17 18  1  0
 19 20  1  0
 21 22  1  0
M  END
>  <rmsd>  (1) 
0.249255925

$$$$
