MolPort-039-210-489 CSSS03436966926 MCULE-6897107569 PubChem-119099798
     RDKit          3D

 27 29  0  0  0  0  0  0  0  0999 V2000
   14.6653   51.1660    2.5416 F   0  0  0  0  0  0  0  0  0  0  0  0
   12.9925   50.9875    1.0424 F   0  0  0  0  0  0  0  0  0  0  0  0
   12.5596   51.6929    3.1348 F   0  0  0  0  0  0  0  0  0  0  0  0
   13.3335   50.8330    2.3737 C   0  0  0  0  0  0  0  0  0  0  0  0
   13.1177   49.4051    2.7847 C   0  0  0  0  0  0  0  0  0  0  0  0
   13.8153   48.3809    2.1289 C   0  0  0  0  0  0  0  0  0  0  0  0
   13.6253   47.0469    2.5002 C   0  0  0  0  0  0  0  0  0  0  0  0
   12.7334   46.7264    3.5287 C   0  0  0  0  0  0  0  0  0  0  0  0
   12.5451   45.3057    3.9372 C   0  0  0  0  0  0  0  0  0  0  0  0
   14.2139   42.5366    6.6482 C   0  0  0  0  0  0  0  0  0  0  0  0
   14.0492   41.2279    7.0391 C   0  0  0  0  0  0  0  0  0  0  0  0
   15.1562   39.7689    8.7166 C   0  0  0  0  0  0  0  0  0  0  0  0
   14.5479   39.8646   10.1068 C   0  0  1  0  0  0  0  0  0  0  0  0
   13.0109   39.8712   10.0224 C   0  0  0  0  0  0  0  0  0  0  0  0
   12.3826   38.9609   11.0808 C   0  0  0  0  0  0  0  0  0  0  0  0
   13.1221   39.0565   12.4177 C   0  0  0  0  0  0  0  0  0  0  0  0
   14.6462   39.1108   12.2225 C   0  0  0  0  0  0  0  0  0  0  0  0
   15.2436   43.0792    7.3936 C   0  0  0  0  0  0  0  0  0  0  0  0
   12.0375   47.7434    4.1898 C   0  0  0  0  0  0  0  0  0  0  0  0
   12.2276   49.0773    3.8184 C   0  0  0  0  0  0  0  0  0  0  0  0
   13.7060   44.8548    5.2136 S   0  0  0  0  0  0  0  0  0  0  0  0
   13.4948   45.7316    6.4160 O   0  0  0  0  0  0  0  0  0  0  0  0
   15.1079   45.0228    4.6985 O   0  0  0  0  0  0  0  0  0  0  0  0
   15.0091   38.7979   10.8993 O   0  0  0  0  0  0  0  0  0  0  0  0
   13.4413   43.2004    5.6478 N   0  0  0  0  0  0  0  0  0  0  0  0
   14.9728   41.0168    7.9931 N   0  0  0  0  0  0  0  0  0  0  0  0
   15.6875   42.1090    8.2165 N   0  0  0  0  0  0  0  0  0  0  0  0
  4  1  1  0
  4  2  1  0
  4  3  1  0
  4  5  1  0
  6  7  2  0
  8 19  2  0
  9  8  1  0
  9 21  1  0
 11 26  1  0
 12 26  1  0
 13 12  1  6
 13 14  1  0
 13 24  1  0
 14 15  1  0
 15 16  1  0
 16 17  1  0
 17 24  1  0
 18 10  1  0
 20  5  2  0
 21 25  1  0
 25 10  1  0
 26 27  1  0
  5  6  1  0
  7  8  1  0
 10 11  2  0
 18 27  2  0
 19 20  1  0
 21 22  2  0
 21 23  2  0
M  END
>  <rmsd>  (1) 
0.230309665

$$$$
