Molport-047-878-745
     RDKit          3D

 22 23  0  0  0  0  0  0  0  0999 V2000
   13.3048   39.5800   11.9506 C   0  0  0  0  0  0  0  0  0  0  0  0
   13.5846   38.8775   10.6271 C   0  0  0  0  0  0  0  0  0  0  0  0
   14.8704   40.6141    9.3920 C   0  0  0  0  0  0  0  0  0  0  0  0
   14.8956   41.6056    8.3043 C   0  0  0  0  0  0  0  0  0  0  0  0
   15.9215   42.4704    7.9633 C   0  0  0  0  0  0  0  0  0  0  0  0
   14.2960   42.7867    6.6307 C   0  0  0  0  0  0  0  0  0  0  0  0
   13.9078   44.3407    4.6681 C   0  0  0  0  0  0  0  0  0  0  0  0
   13.3773   45.7447    2.6847 C   0  0  0  0  0  0  0  0  0  0  0  0
   14.3846   45.2018    1.7079 C   0  0  0  0  0  0  0  0  0  0  0  0
   14.0160   44.1828    0.8147 C   0  0  0  0  0  0  0  0  0  0  0  0
   14.9523   43.6603   -0.0830 C   0  0  0  0  0  0  0  0  0  0  0  0
   16.2618   44.1485   -0.0924 C   0  0  0  0  0  0  0  0  0  0  0  0
   16.6375   45.1592    0.7969 C   0  0  0  0  0  0  0  0  0  0  0  0
   15.7041   45.6846    1.6961 C   0  0  0  0  0  0  0  0  0  0  0  0
   13.7268   39.8276    9.5729 O   0  0  0  0  0  0  0  0  0  0  0  0
   15.8698   40.4715   10.1474 O   0  0  0  0  0  0  0  0  0  0  0  0
   15.0430   44.8771    4.7919 O   0  0  0  0  0  0  0  0  0  0  0  0
   13.0381   44.7538    3.6528 O   0  0  0  0  0  0  0  0  0  0  0  0
   17.6295   42.6430    8.8042 Br  0  0  0  0  0  0  0  0  0  0  0  0
   15.5463   43.2178    6.9064 N   0  0  0  0  0  0  0  0  0  0  0  0
   13.4874   43.3044    5.5647 N   0  0  0  0  0  0  0  0  0  0  0  0
   13.8731   41.8121    7.4579 N   0  0  0  0  0  0  0  0  0  0  0  0
  1  2  1  0
  2 15  1  0
  3 15  1  0
  3  4  1  0
  5 19  1  0
  5 20  1  0
  6 21  1  0
  6 22  1  0
  7 18  1  0
  8 18  1  0
  8  9  1  0
 10 11  2  0
 12 13  2  0
 14  9  2  0
 21  7  1  0
 22  4  1  0
  3 16  2  0
  4  5  2  0
  6 20  2  0
  7 17  2  0
  9 10  1  0
 11 12  1  0
 13 14  1  0
M  END
>  <rmsd>  (1) 
0.167667404

$$$$
