MolPort-027-837-239 91301373 LN01360265 MCULE-5625054034 PubChem-66832013 ZINC000091301373 ZINC91301373
     RDKit          3D

 18 18  0  0  0  0  0  0  0  0999 V2000
   13.5971   39.6424   12.0658 C   0  0  0  0  0  0  0  0  0  0  0  0
   13.7822   38.9049   10.7522 C   0  0  0  0  0  0  0  0  0  0  0  0
   14.8800   40.6798    9.4210 C   0  0  0  0  0  0  0  0  0  0  0  0
   14.8138   41.6300    8.3066 C   0  0  0  0  0  0  0  0  0  0  0  0
   14.1948   42.7747    6.6089 C   0  0  0  0  0  0  0  0  0  0  0  0
   13.9296   44.3562    4.6533 C   0  0  0  0  0  0  0  0  0  0  0  0
   13.4566   45.8303    2.6813 C   0  0  0  0  0  0  0  0  0  0  0  0
   13.6959   47.1455    3.4025 C   0  0  0  0  0  0  0  0  0  0  0  0
   14.6950   45.4440    1.8910 C   0  0  0  0  0  0  0  0  0  0  0  0
   12.3094   46.0184    1.7113 C   0  0  0  0  0  0  0  0  0  0  0  0
   13.7419   41.7707    7.4399 C   0  0  0  0  0  0  0  0  0  0  0  0
   13.8016   39.8237    9.6660 O   0  0  0  0  0  0  0  0  0  0  0  0
   15.9109   40.6373   10.1466 O   0  0  0  0  0  0  0  0  0  0  0  0
   15.3948   43.1635    6.9645 O   0  0  0  0  0  0  0  0  0  0  0  0
   15.0700   44.8647    4.8346 O   0  0  0  0  0  0  0  0  0  0  0  0
   13.1068   44.8005    3.6093 O   0  0  0  0  0  0  0  0  0  0  0  0
   15.8046   42.4889    7.9948 N   0  0  0  0  0  0  0  0  0  0  0  0
   13.4548   43.3152    5.5114 N   0  0  0  0  0  0  0  0  0  0  0  0
  1  2  1  0
  2 12  1  0
  3 12  1  0
  3  4  1  0
  5 14  1  0
  5 18  1  0
  6 16  1  0
  7 16  1  0
  7  8  1  0
  7  9  1  0
  7 10  1  0
 11  4  1  0
 17 14  1  0
 18  6  1  0
  3 13  2  0
  4 17  2  0
  5 11  2  0
  6 15  2  0
M  END
>  <rmsd>  (1) 
0.232781097

$$$$
