MolPort-020-292-568 MCULE-3374357361 PubChem-110265036
     RDKit          3D

 33 37  0  0  0  0  0  0  0  0999 V2000
   17.5251   43.1218    8.4195 C   0  0  0  0  0  0  0  0  0  0  0  0
   16.1669   42.6357    8.0635 C   0  0  0  0  0  0  0  0  0  0  0  0
   15.4819   43.2055    6.9888 C   0  0  0  0  0  0  0  0  0  0  0  0
   14.2031   42.7395    6.6572 C   0  0  0  0  0  0  0  0  0  0  0  0
   13.6373   41.7106    7.4139 C   0  0  0  0  0  0  0  0  0  0  0  0
   14.3500   41.1644    8.4845 C   0  0  0  0  0  0  0  0  0  0  0  0
   13.7439   40.0569    9.2799 C   0  0  2  0  0  0  0  0  0  0  0  0
   13.6348   40.4401   10.7575 C   0  0  0  0  0  0  0  0  0  0  0  0
   13.0145   39.2969   11.5593 C   0  0  0  0  0  0  0  0  0  0  0  0
   13.8496   38.0312   11.3913 C   0  0  0  0  0  0  0  0  0  0  0  0
   14.5564   38.7733    9.1162 C   0  0  0  0  0  0  0  0  0  0  0  0
   13.7025   36.4106    9.4762 C   0  0  0  0  0  0  0  0  0  0  0  0
   13.3962   36.1486    8.0499 C   0  0  0  0  0  0  0  0  0  0  0  0
   13.4718   34.8399    7.5518 C   0  0  0  0  0  0  0  0  0  0  0  0
   13.1580   34.5633    6.2183 C   0  0  0  0  0  0  0  0  0  0  0  0
   12.7765   35.6083    5.3531 C   0  0  0  0  0  0  0  0  0  0  0  0
   12.6824   36.9140    5.8549 C   0  0  0  0  0  0  0  0  0  0  0  0
   12.9872   37.1790    7.1917 C   0  0  0  0  0  0  0  0  0  0  0  0
   12.7060   33.9855    3.4315 C   0  0  0  0  0  0  0  0  0  0  0  0
   12.4152   32.9198    4.4822 C   0  0  0  0  0  0  0  0  0  0  0  0
   13.2946   33.1576    5.7081 C   0  0  0  0  0  0  0  0  0  0  0  0
   11.8345   36.3093    3.1166 C   0  0  0  0  0  0  0  0  0  0  0  0
   13.8526   44.3255    4.6631 C   0  0  0  0  0  0  0  0  0  0  0  0
   15.4507   45.9018    3.9083 C   0  0  0  0  0  0  0  0  0  0  0  0
   14.5803   46.3209    2.9042 C   0  0  0  0  0  0  0  0  0  0  0  0
   13.3335   45.7056    2.8118 C   0  0  0  0  0  0  0  0  0  0  0  0
   15.5936   41.6345    8.7824 N   0  0  0  0  0  0  0  0  0  0  0  0
   13.9925   37.7309    9.9696 N   0  0  0  0  0  0  0  0  0  0  0  0
   12.4477   35.3135    3.9817 N   0  0  0  0  0  0  0  0  0  0  0  0
   13.4507   43.2852    5.5644 N   0  0  0  0  0  0  0  0  0  0  0  0
   15.0745   44.9170    4.7651 N   0  0  0  0  0  0  0  0  0  0  0  0
   12.9934   44.7243    3.6879 N   0  0  0  0  0  0  0  0  0  0  0  0
   13.6983   35.4420   10.2852 O   0  0  0  0  0  0  0  0  0  0  0  0
  1  2  1  0
  2 27  2  0
  3  4  2  0
  4 30  1  0
  5  6  2  0
  7  6  1  6
  7  8  1  0
  8  9  1  0
  9 10  1  0
 10 28  1  0
 11 28  1  0
 11  7  1  0
 12 13  1  0
 14 15  2  0
 16 17  2  0
 16 29  1  0
 18 13  2  0
 19 29  1  0
 19 20  1  0
 20 21  1  0
 21 15  1  0
 22 29  1  0
 23 32  2  0
 24 31  2  0
 25 26  2  0
 28 12  1  0
 30 23  1  0
  2  3  1  0
  4  5  1  0
  6 27  1  0
 12 33  2  0
 13 14  1  0
 15 16  1  0
 17 18  1  0
 23 31  1  0
 24 25  1  0
 26 32  1  0
M  END
>  <rmsd>  (1) 
0.247697189

$$$$
