MolPort-016-720-375 MCULE-9130697247 PubChem-46977361
     RDKit          3D

 25 27  0  0  0  0  0  0  0  0999 V2000
   13.0232   39.4830   11.8224 C   0  0  0  0  0  0  0  0  0  0  0  0
   13.2932   38.7989   10.4948 C   0  0  0  0  0  0  0  0  0  0  0  0
   14.7406   40.4881    9.3852 C   0  0  0  0  0  0  0  0  0  0  0  0
   14.8865   41.4678    8.3981 C   0  0  0  0  0  0  0  0  0  0  0  0
   16.0684   42.1859    8.2902 C   0  0  0  0  0  0  0  0  0  0  0  0
   17.1490   41.9723    9.1406 C   0  0  0  0  0  0  0  0  0  0  0  0
   17.0179   40.9913   10.1346 C   0  0  0  0  0  0  0  0  0  0  0  0
   15.8250   40.2541   10.2570 C   0  0  0  0  0  0  0  0  0  0  0  0
   14.3570   42.7784    6.6654 C   0  0  0  0  0  0  0  0  0  0  0  0
   13.8792   44.3375    4.6918 C   0  0  0  0  0  0  0  0  0  0  0  0
   12.8977   44.7707    3.6555 C   0  0  2  0  0  0  0  0  0  0  0  0
   11.6427   45.3299    4.3105 C   0  0  0  0  0  0  0  0  0  0  0  0
   10.6521   45.7411    3.2339 C   0  0  0  0  0  0  0  0  0  0  0  0
   10.3354   44.5409    2.3367 C   0  0  0  0  0  0  0  0  0  0  0  0
   12.5359   43.5974    2.7363 C   0  0  0  0  0  0  0  0  0  0  0  0
   12.1256   44.9089    0.7689 C   0  0  0  0  0  0  0  0  0  0  0  0
   11.6369   44.6606   -0.6244 C   0  0  0  0  0  0  0  0  0  0  0  0
   13.5437   39.7671    9.4816 O   0  0  0  0  0  0  0  0  0  0  0  0
   15.0078   44.8938    4.7330 O   0  0  0  0  0  0  0  0  0  0  0  0
   10.8328   43.7234   -0.8748 O   0  0  0  0  0  0  0  0  0  0  0  0
   15.9396   43.2785    7.0246 S   0  0  0  0  0  0  0  0  0  0  0  0
   13.9283   41.7953    7.4929 N   0  0  0  0  0  0  0  0  0  0  0  0
   13.5287   43.3020    5.6204 N   0  0  0  0  0  0  0  0  0  0  0  0
   11.5399   43.9638    1.7195 N   0  0  0  0  0  0  0  0  0  0  0  0
   12.0917   45.4965   -1.6812 N   0  0  0  0  0  0  0  0  0  0  0  0
  1  2  1  0
  2 18  1  0
  3 18  1  0
  4  5  2  0
  4 22  1  0
  5 21  1  0
  6  7  2  0
  8  3  2  0
  9 21  1  0
  9 23  1  0
 11 10  1  1
 11 12  1  0
 12 13  1  0
 13 14  1  0
 14 24  1  0
 15 24  1  0
 15 11  1  0
 16 24  1  0
 16 17  1  0
 17 25  1  0
 23 10  1  0
  3  4  1  0
  5  6  1  0
  7  8  1  0
  9 22  2  0
 10 19  2  0
 17 20  2  0
M  END
>  <rmsd>  (1) 
0.249036819

$$$$
