MolPort-002-626-017 2595778 LN00639015 PubChem-2047979 ZINC000002595778 ZINC02595778
     RDKit          3D

 22 24  0  0  0  0  0  0  0  0999 V2000
   12.7737   39.6648   11.7347 C   0  0  0  0  0  0  0  0  0  0  0  0
   13.7748   38.9491   10.8473 C   0  0  0  0  0  0  0  0  0  0  0  0
   13.9144   39.6688    9.5181 C   0  0  0  0  0  0  0  0  0  0  0  0
   14.7409   40.9332    9.6838 C   0  0  0  0  0  0  0  0  0  0  0  0
   14.3488   42.7016    6.6007 C   0  0  0  0  0  0  0  0  0  0  0  0
   13.9362   44.2702    4.6307 C   0  0  0  0  0  0  0  0  0  0  0  0
   13.0468   44.5849    3.4830 C   0  0  0  0  0  0  0  0  0  0  0  0
   15.7203   42.5007    6.5628 C   0  0  0  0  0  0  0  0  0  0  0  0
   16.7154   42.7714    5.6300 C   0  0  0  0  0  0  0  0  0  0  0  0
   18.0193   42.3528    5.9468 C   0  0  0  0  0  0  0  0  0  0  0  0
   19.0685   42.6052    5.0612 C   0  0  0  0  0  0  0  0  0  0  0  0
   20.3639   42.1869    5.3746 C   0  0  0  0  0  0  0  0  0  0  0  0
   20.6175   41.5134    6.5731 C   0  0  0  0  0  0  0  0  0  0  0  0
   19.5810   41.2485    7.4741 C   0  0  0  0  0  0  0  0  0  0  0  0
   19.8936   40.5255    8.7398 C   0  0  0  0  0  0  0  0  0  0  0  0
   18.2721   41.6634    7.1749 C   0  0  0  0  0  0  0  0  0  0  0  0
   15.9955   41.8295    7.7173 C   0  0  0  0  0  0  0  0  0  0  0  0
   14.8644   41.6193    8.4074 N   0  0  0  0  0  0  0  0  0  0  0  0
   13.8477   42.1426    7.7300 N   0  0  0  0  0  0  0  0  0  0  0  0
   13.5205   43.2994    5.5956 N   0  0  0  0  0  0  0  0  0  0  0  0
   17.2425   41.4053    8.0402 N   0  0  0  0  0  0  0  0  0  0  0  0
   15.0161   44.9022    4.7678 O   0  0  0  0  0  0  0  0  0  0  0  0
  1  2  1  0
  2  3  1  0
  3  4  1  0
  4 18  1  0
  5 20  1  0
  5  8  1  0
  7  6  1  0
  9 10  2  0
 11 12  2  0
 13 14  2  0
 15 14  1  0
 16 21  2  0
 16 10  1  0
 17 18  1  0
 17  8  2  0
 18 19  1  0
 20  6  1  0
  5 19  2  0
  6 22  2  0
  8  9  1  0
 10 11  1  0
 12 13  1  0
 14 16  1  0
 17 21  1  0
M  END
>  <rmsd>  (1) 
0.162369996

$$$$
