MolPort-001-758-260 15021238 LN00192691 MCULE-4614069524 PubChem-26369933 ZINC000015021238 ZINC15021238
     RDKit          3D

 18 18  0  0  0  0  0  0  0  0999 V2000
   12.6445   39.3013   11.6065 C   0  0  0  0  0  0  0  0  0  0  0  0
   13.8005   38.9724   10.6852 C   0  0  0  0  0  0  0  0  0  0  0  0
   14.9822   40.7267    9.4263 C   0  0  0  0  0  0  0  0  0  0  0  0
   14.9804   41.6966    8.3282 C   0  0  0  0  0  0  0  0  0  0  0  0
   16.0078   42.5560    7.9909 C   0  0  0  0  0  0  0  0  0  0  0  0
   14.3572   42.8194    6.6741 C   0  0  0  0  0  0  0  0  0  0  0  0
   13.8850   44.3231    4.6827 C   0  0  0  0  0  0  0  0  0  0  0  0
   13.1939   45.6972    2.7025 C   0  0  0  0  0  0  0  0  0  0  0  0
   13.4377   47.0487    3.3517 C   0  0  0  0  0  0  0  0  0  0  0  0
   14.3785   45.3255    1.8274 C   0  0  0  0  0  0  0  0  0  0  0  0
   11.9650   45.8028    1.8247 C   0  0  0  0  0  0  0  0  0  0  0  0
   13.8575   39.9272    9.6360 O   0  0  0  0  0  0  0  0  0  0  0  0
   15.9941   40.6205   10.1722 O   0  0  0  0  0  0  0  0  0  0  0  0
   15.0146   44.8810    4.7490 O   0  0  0  0  0  0  0  0  0  0  0  0
   12.9628   44.6937    3.6945 O   0  0  0  0  0  0  0  0  0  0  0  0
   13.9802   41.8791    7.5044 O   0  0  0  0  0  0  0  0  0  0  0  0
   15.6019   43.2768    6.9253 N   0  0  0  0  0  0  0  0  0  0  0  0
   13.5226   43.3002    5.6155 N   0  0  0  0  0  0  0  0  0  0  0  0
  1  2  1  0
  2 12  1  0
  3 12  1  0
  3  4  1  0
  4 16  1  0
  5 17  1  0
  6 18  1  0
  6 16  1  0
  7 15  1  0
  8 15  1  0
  8  9  1  0
  8 10  1  0
  8 11  1  0
 18  7  1  0
  3 13  2  0
  4  5  2  0
  6 17  2  0
  7 14  2  0
M  END
>  <rmsd>  (1) 
0.230053365

$$$$
