MolPort-020-292-530 MCULE-2658701292 PubChem-110264998
     RDKit          3D

 32 36  0  0  0  0  0  0  0  0999 V2000
   17.5612   43.0445    8.3590 C   0  0  0  0  0  0  0  0  0  0  0  0
   16.1871   42.5875    8.0263 C   0  0  0  0  0  0  0  0  0  0  0  0
   15.4992   43.1666    6.9585 C   0  0  0  0  0  0  0  0  0  0  0  0
   14.2046   42.7291    6.6497 C   0  0  0  0  0  0  0  0  0  0  0  0
   13.6267   41.7180    7.4213 C   0  0  0  0  0  0  0  0  0  0  0  0
   14.3423   41.1624    8.4850 C   0  0  0  0  0  0  0  0  0  0  0  0
   13.7222   40.0735    9.2955 C   0  0  2  0  0  0  0  0  0  0  0  0
   13.6692   40.4538   10.7766 C   0  0  0  0  0  0  0  0  0  0  0  0
   13.0310   39.3298   11.5915 C   0  0  0  0  0  0  0  0  0  0  0  0
   13.8075   38.0310   11.3908 C   0  0  0  0  0  0  0  0  0  0  0  0
   14.4870   38.7649    9.1083 C   0  0  0  0  0  0  0  0  0  0  0  0
   13.4177   36.4800    9.4508 C   0  0  0  0  0  0  0  0  0  0  0  0
   13.2782   36.2131    8.0023 C   0  0  0  0  0  0  0  0  0  0  0  0
   12.8756   34.9938    7.4629 C   0  0  0  0  0  0  0  0  0  0  0  0
   12.5329   34.2960    5.1566 C   0  0  0  0  0  0  0  0  0  0  0  0
   12.5916   34.7408    3.8281 C   0  0  0  0  0  0  0  0  0  0  0  0
   12.9791   36.0669    3.5560 C   0  0  0  0  0  0  0  0  0  0  0  0
   13.3050   36.9434    4.6037 C   0  0  0  0  0  0  0  0  0  0  0  0
   13.2278   36.4439    5.9018 C   0  0  0  0  0  0  0  0  0  0  0  0
   13.8553   44.3218    4.6613 C   0  0  0  0  0  0  0  0  0  0  0  0
   12.9746   44.7255    3.6540 C   0  0  0  0  0  0  0  0  0  0  0  0
   13.3581   45.7361    2.7705 C   0  0  0  0  0  0  0  0  0  0  0  0
   14.6130   46.3330    2.8994 C   0  0  0  0  0  0  0  0  0  0  0  0
   15.4683   45.9057    3.9168 C   0  0  0  0  0  0  0  0  0  0  0  0
   15.6013   41.6046    8.7606 N   0  0  0  0  0  0  0  0  0  0  0  0
   13.9009   37.7365    9.9632 N   0  0  0  0  0  0  0  0  0  0  0  0
   12.8572   35.1760    6.1355 N   0  0  0  0  0  0  0  0  0  0  0  0
   13.4969   37.1292    7.0258 N   0  0  0  0  0  0  0  0  0  0  0  0
   13.4498   43.2836    5.5633 N   0  0  0  0  0  0  0  0  0  0  0  0
   15.0758   44.9195    4.7678 N   0  0  0  0  0  0  0  0  0  0  0  0
   13.0884   35.5714   10.2617 O   0  0  0  0  0  0  0  0  0  0  0  0
   12.1863   33.6545    2.5173 Cl  0  0  0  0  0  0  0  0  0  0  0  0
  1  2  1  0
  2 25  2  0
  3  4  2  0
  4 29  1  0
  5  6  2  0
  7  6  1  6
  7  8  1  0
  8  9  1  0
  9 10  1  0
 10 26  1  0
 11 26  1  0
 11  7  1  0
 12 13  1  0
 13 28  1  0
 14 27  1  0
 16 17  1  0
 16 32  1  0
 18 19  1  0
 19 27  1  0
 20 30  2  0
 21 22  2  0
 23 24  2  0
 26 12  1  0
 27 15  1  0
 29 20  1  0
  2  3  1  0
  4  5  1  0
  6 25  1  0
 12 31  2  0
 13 14  2  0
 15 16  2  0
 17 18  2  0
 19 28  2  0
 20 21  1  0
 22 23  1  0
 24 30  1  0
M  END
>  <rmsd>  (1) 
0.245055735

$$$$
