MolPort-019-824-987 67983260 CSSS00159572308 MCULE-6825799324 PubChem-56723134 ZINC000067983260 ZINC67983260
     RDKit          3D

 25 27  0  0  0  0  0  0  0  0999 V2000
   10.7922   44.2715    4.1672 C   0  0  0  0  0  0  0  0  0  0  0  0
   11.8289   45.3199    3.8106 C   0  0  0  0  0  0  0  0  0  0  0  0
   13.1391   44.6604    3.4098 C   0  0  0  0  0  0  0  0  0  0  0  0
   13.9526   44.2990    4.6076 C   0  0  0  0  0  0  0  0  0  0  0  0
   14.2433   42.7031    6.5711 C   0  0  0  0  0  0  0  0  0  0  0  0
   15.5696   42.2673    6.3660 C   0  0  0  0  0  0  0  0  0  0  0  0
   17.4957   41.9794    4.8340 C   0  0  0  0  0  0  0  0  0  0  0  0
   16.2666   41.6673    7.4277 C   0  0  0  0  0  0  0  0  0  0  0  0
   15.6556   41.4652    8.6725 C   0  0  0  0  0  0  0  0  0  0  0  0
   14.3300   41.8806    8.8522 C   0  0  0  0  0  0  0  0  0  0  0  0
   13.6293   42.4843    7.8076 C   0  0  0  0  0  0  0  0  0  0  0  0
   17.7292   40.9964    9.9277 C   0  0  0  0  0  0  0  0  0  0  0  0
   18.0577   40.4053   11.1334 C   0  0  0  0  0  0  0  0  0  0  0  0
   15.9504   40.2086   10.8420 C   0  0  0  0  0  0  0  0  0  0  0  0
   14.5607   39.7768   11.0735 C   0  0  0  0  0  0  0  0  0  0  0  0
   12.7216   39.3740   12.0808 C   0  0  0  0  0  0  0  0  0  0  0  0
   12.6431   38.8371   10.8069 C   0  0  0  0  0  0  0  0  0  0  0  0
   14.1886   38.6077    8.8766 C   0  0  0  0  0  0  0  0  0  0  0  0
   15.0481   44.8875    4.8078 O   0  0  0  0  0  0  0  0  0  0  0  0
   16.1674   42.4041    5.1078 O   0  0  0  0  0  0  0  0  0  0  0  0
   13.4709   43.3152    5.5306 N   0  0  0  0  0  0  0  0  0  0  0  0
   16.3999   40.8732    9.7532 N   0  0  0  0  0  0  0  0  0  0  0  0
   16.9391   39.9171   11.7071 N   0  0  0  0  0  0  0  0  0  0  0  0
   13.9310   39.9518   12.2496 N   0  0  0  0  0  0  0  0  0  0  0  0
   13.8051   39.0991   10.1898 N   0  0  0  0  0  0  0  0  0  0  0  0
  1  2  1  0
  2  3  1  0
  3  4  1  0
  4 21  1  0
  6 20  1  0
  6  8  2  0
  7 20  1  0
  9 10  2  0
  9 22  1  0
 11  5  2  0
 13 23  1  0
 14 15  1  0
 14 22  1  0
 16 24  1  0
 17 25  1  0
 18 25  1  0
 21  5  1  0
 22 12  1  0
 25 15  1  0
  4 19  2  0
  5  6  1  0
  8  9  1  0
 10 11  1  0
 12 13  2  0
 14 23  2  0
 15 24  2  0
 16 17  2  0
M  END
>  <rmsd>  (1) 
0.246714339

$$$$
