MolPort-047-015-614 MCULE-5605398052 PubChem-155985355
     RDKit          3D

 20 22  0  0  0  0  0  0  0  0999 V2000
   14.2004   42.7198    6.6453 C   0  0  0  0  0  0  0  0  0  0  0  0
   13.6418   41.7018    7.4177 C   0  0  0  0  0  0  0  0  0  0  0  0
   14.3923   41.1692    8.4657 C   0  0  0  0  0  0  0  0  0  0  0  0
   13.8149   40.0790    9.3055 C   0  0  2  0  0  0  0  0  0  0  0  0
   13.6588   40.5355   10.7570 C   0  0  0  0  0  0  0  0  0  0  0  0
   13.1472   39.3944   11.6405 C   0  0  0  0  0  0  0  0  0  0  0  0
   13.7316   38.0340   11.2379 C   0  0  0  0  0  0  0  0  0  0  0  0
   15.4881   36.8709   10.2232 C   0  0  0  0  0  0  0  0  0  0  0  0
   14.6537   38.7930    9.1809 C   0  0  0  0  0  0  0  0  0  0  0  0
   16.1726   42.6387    7.9524 C   0  0  0  0  0  0  0  0  0  0  0  0
   17.5393   43.1458    8.2401 C   0  0  0  0  0  0  0  0  0  0  0  0
   13.8806   44.3191    4.6924 C   0  0  0  0  0  0  0  0  0  0  0  0
   14.1384   46.0446    2.9577 C   0  0  0  0  0  0  0  0  0  0  0  0
   15.2295   45.8797    3.8125 C   0  0  0  0  0  0  0  0  0  0  0  0
   14.9718   38.2017   10.4838 N   0  0  0  0  0  0  0  0  0  0  0  0
   15.6423   41.6467    8.7137 N   0  0  0  0  0  0  0  0  0  0  0  0
   15.4540   43.1677    6.9281 N   0  0  0  0  0  0  0  0  0  0  0  0
   13.4403   43.2749    5.5667 N   0  0  0  0  0  0  0  0  0  0  0  0
   15.0826   44.9243    4.7704 N   0  0  0  0  0  0  0  0  0  0  0  0
   12.9606   44.9404    3.4422 S   0  0  0  0  0  0  0  0  0  0  0  0
  1 18  1  0
  1 17  2  0
  2  3  2  0
  4  3  1  6
  4  5  1  0
  5  6  1  0
  6  7  1  0
  7 15  1  0
  8 15  1  0
  9 15  1  0
  9  4  1  0
 10 16  2  0
 11 10  1  0
 12 20  1  0
 13 20  1  0
 14 19  1  0
 18 12  1  0
  1  2  1  0
  3 16  1  0
 10 17  1  0
 12 19  2  0
 13 14  2  0
M  END
>  <rmsd>  (1) 
0.244918689

$$$$
