MolPort-016-717-567 19716929 MCULE-9371447986 PubChem-46974417 ZINC000019716929
     RDKit          3D

 28 31  0  0  0  0  0  0  0  0999 V2000
   13.0263   39.4862   11.8161 C   0  0  0  0  0  0  0  0  0  0  0  0
   13.3021   38.8030   10.4892 C   0  0  0  0  0  0  0  0  0  0  0  0
   14.7460   40.4972    9.3828 C   0  0  0  0  0  0  0  0  0  0  0  0
   15.8294   40.2671   10.2571 C   0  0  0  0  0  0  0  0  0  0  0  0
   17.0199   41.0086   10.1375 C   0  0  0  0  0  0  0  0  0  0  0  0
   17.1498   41.9900    9.1437 C   0  0  0  0  0  0  0  0  0  0  0  0
   16.0703   42.1999    8.2910 C   0  0  0  0  0  0  0  0  0  0  0  0
   14.3603   42.7863    6.6623 C   0  0  0  0  0  0  0  0  0  0  0  0
   13.8714   44.3417    4.6832 C   0  0  0  0  0  0  0  0  0  0  0  0
   12.9115   44.7909    3.6407 C   0  0  0  0  0  0  0  0  0  0  0  0
   13.0923   47.3299    0.9844 C   0  0  0  0  0  0  0  0  0  0  0  0
   12.8797   48.6742    1.6553 C   0  0  0  0  0  0  0  0  0  0  0  0
   11.2891   45.7936    1.6177 C   0  0  0  0  0  0  0  0  0  0  0  0
   10.7925   44.7788    2.4439 C   0  0  0  0  0  0  0  0  0  0  0  0
    9.4962   44.2727    2.2587 C   0  0  0  0  0  0  0  0  0  0  0  0
    9.0071   43.2610    3.0861 C   0  0  0  0  0  0  0  0  0  0  0  0
    9.8086   42.7469    4.1051 C   0  0  0  0  0  0  0  0  0  0  0  0
   11.0990   43.2442    4.2970 C   0  0  0  0  0  0  0  0  0  0  0  0
   11.6105   44.2622    3.4754 C   0  0  0  0  0  0  0  0  0  0  0  0
   14.8907   41.4775    8.3962 C   0  0  0  0  0  0  0  0  0  0  0  0
   13.5516   39.7721    9.4764 O   0  0  0  0  0  0  0  0  0  0  0  0
   15.0051   44.8903    4.7370 O   0  0  0  0  0  0  0  0  0  0  0  0
   10.5727   46.2688    0.6916 O   0  0  0  0  0  0  0  0  0  0  0  0
   15.9403   43.2920    7.0252 S   0  0  0  0  0  0  0  0  0  0  0  0
   13.5311   43.3065    5.6160 N   0  0  0  0  0  0  0  0  0  0  0  0
   13.3211   45.7770    2.7965 N   0  0  0  0  0  0  0  0  0  0  0  0
   12.5536   46.2645    1.8201 N   0  0  0  0  0  0  0  0  0  0  0  0
   13.9334   41.8017    7.4890 N   0  0  0  0  0  0  0  0  0  0  0  0
  1  2  1  0
  2 21  1  0
  3 21  1  0
  4  5  2  0
  6  7  2  0
  7 24  1  0
  8 24  1  0
  8 25  1  0
  9 10  1  0
 11 27  1  0
 11 12  1  0
 13 14  1  0
 15 16  2  0
 17 18  2  0
 19 10  1  0
 19 14  2  0
 20 28  1  0
 20  3  2  0
 25  9  1  0
 27 26  1  0
 27 13  1  0
  3  4  1  0
  5  6  1  0
  8 28  2  0
  9 22  2  0
 10 26  2  0
 13 23  2  0
 14 15  1  0
 16 17  1  0
 18 19  1  0
 20  7  1  0
M  END
>  <rmsd>  (1) 
0.248865321

$$$$
