MolPort-003-165-650 10220831 CSSS03437101502 MCULE-8781211404 PubChem-16831273 ZINC000010220831 ZINC10220831
     RDKit          3D

 31 33  0  0  0  0  0  0  0  0999 V2000
   11.5296   40.8972   18.1100 C   0  0  0  0  0  0  0  0  0  0  0  0
   13.1586   40.8047   16.2508 C   0  0  0  0  0  0  0  0  0  0  0  0
   14.4505   41.0742   15.7964 C   0  0  0  0  0  0  0  0  0  0  0  0
   14.8458   40.7659   14.4829 C   0  0  0  0  0  0  0  0  0  0  0  0
   13.9012   40.1759   13.6068 C   0  0  0  0  0  0  0  0  0  0  0  0
   13.3476   39.2861   11.3584 C   0  0  0  0  0  0  0  0  0  0  0  0
   12.6034   39.9059   14.0718 C   0  0  0  0  0  0  0  0  0  0  0  0
   12.2348   40.2152   15.3802 C   0  0  0  0  0  0  0  0  0  0  0  0
   16.2391   41.0743   14.0609 C   0  0  0  0  0  0  0  0  0  0  0  0
   18.4279   40.2885   11.2107 C   0  0  0  0  0  0  0  0  0  0  0  0
   17.8431   41.0674   10.0833 C   0  0  0  0  0  0  0  0  0  0  0  0
   15.7843   41.4309    8.6001 C   0  0  0  0  0  0  0  0  0  0  0  0
   14.4830   41.0063    8.3137 C   0  0  0  0  0  0  0  0  0  0  0  0
   13.7388   41.6333    7.3102 C   0  0  0  0  0  0  0  0  0  0  0  0
   14.2860   42.6928    6.5797 C   0  0  0  0  0  0  0  0  0  0  0  0
   13.8826   44.3928    4.7046 C   0  0  0  0  0  0  0  0  0  0  0  0
   12.9142   44.9206    3.7090 C   0  0  0  0  0  0  0  0  0  0  0  0
   15.5909   43.1201    6.8658 C   0  0  0  0  0  0  0  0  0  0  0  0
   16.3349   42.4935    7.8690 C   0  0  0  0  0  0  0  0  0  0  0  0
   18.8161   41.6266   13.2316 C   0  0  0  0  0  0  0  0  0  0  0  0
   18.3631   42.1531   14.4376 C   0  0  0  0  0  0  0  0  0  0  0  0
   17.0663   41.8743   14.8568 C   0  0  0  0  0  0  0  0  0  0  0  0
   12.8217   41.1317   17.5670 O   0  0  0  0  0  0  0  0  0  0  0  0
   14.2517   39.8727   12.2851 O   0  0  0  0  0  0  0  0  0  0  0  0
   18.5089   42.0037    9.5678 O   0  0  0  0  0  0  0  0  0  0  0  0
   15.0317   44.9025    4.7781 O   0  0  0  0  0  0  0  0  0  0  0  0
   19.9891   41.8793   12.8453 O   0  0  0  0  0  0  0  0  0  0  0  0
   16.7402   40.5821   12.8949 N   0  0  0  0  0  0  0  0  0  0  0  0
   17.9844   40.8421   12.4842 N   0  0  0  0  0  0  0  0  0  0  0  0
   16.5150   40.7637    9.6376 N   0  0  0  0  0  0  0  0  0  0  0  0
   13.4904   43.3116    5.5594 N   0  0  0  0  0  0  0  0  0  0  0  0
  1 23  1  0
  2 23  1  0
  3  4  2  0
  4  9  1  0
  5 24  1  0
  5  7  2  0
  6 24  1  0
  8  2  2  0
 10 29  1  0
 10 11  1  0
 11 30  1  0
 13 14  2  0
 15 31  1  0
 15 18  2  0
 17 16  1  0
 19 12  2  0
 20 21  1  0
 22  9  1  0
 29 28  1  0
 29 20  1  0
 30 12  1  0
 31 16  1  0
  2  3  1  0
  4  5  1  0
  7  8  1  0
  9 28  2  0
 11 25  2  0
 12 13  1  0
 14 15  1  0
 16 26  2  0
 18 19  1  0
 20 27  2  0
 21 22  2  0
M  END
>  <rmsd>  (1) 
0.241251692

$$$$
