MolPort-020-275-241 MCULE-5892033950 PubChem-110252918
     RDKit          3D

 26 28  0  0  0  0  0  0  0  0999 V2000
   16.7938   46.5262    4.0370 C   0  0  0  0  0  0  0  0  0  0  0  0
   15.4528   45.9011    3.8992 C   0  0  0  0  0  0  0  0  0  0  0  0
   13.8491   44.3188    4.6676 C   0  0  0  0  0  0  0  0  0  0  0  0
   12.9566   44.7189    3.6690 C   0  0  0  0  0  0  0  0  0  0  0  0
   13.3301   45.7265    2.7773 C   0  0  0  0  0  0  0  0  0  0  0  0
   14.5861   46.3244    2.8899 C   0  0  0  0  0  0  0  0  0  0  0  0
   14.2203   42.7454    6.6670 C   0  0  0  0  0  0  0  0  0  0  0  0
   14.3610   41.2003    8.4651 C   0  0  0  0  0  0  0  0  0  0  0  0
   15.6414   41.6763    8.7734 C   0  0  0  0  0  0  0  0  0  0  0  0
   15.4993   43.2195    6.9850 C   0  0  0  0  0  0  0  0  0  0  0  0
   13.7331   40.0905    9.2464 C   0  0  2  0  0  0  0  0  0  0  0  0
   13.6250   40.4451   10.7322 C   0  0  0  0  0  0  0  0  0  0  0  0
   12.9681   39.3032   11.5061 C   0  0  0  0  0  0  0  0  0  0  0  0
   13.7656   38.0156   11.3179 C   0  0  0  0  0  0  0  0  0  0  0  0
   14.5103   38.7881    9.0578 C   0  0  0  0  0  0  0  0  0  0  0  0
   13.4667   36.5071    9.3252 C   0  0  0  0  0  0  0  0  0  0  0  0
   13.5183   36.2728    7.8491 C   0  0  0  0  0  0  0  0  0  0  0  0
   12.2561   37.8382    6.6532 C   0  0  0  0  0  0  0  0  0  0  0  0
   12.0618   35.5700    6.1728 C   0  0  0  0  0  0  0  0  0  0  0  0
   15.0703   44.9174    4.7574 N   0  0  0  0  0  0  0  0  0  0  0  0
   13.4568   43.2814    5.5769 N   0  0  0  0  0  0  0  0  0  0  0  0
   13.6865   41.7455    7.4182 N   0  0  0  0  0  0  0  0  0  0  0  0
   16.1797   42.6757    8.0277 N   0  0  0  0  0  0  0  0  0  0  0  0
   13.9204   37.7452    9.8914 N   0  0  0  0  0  0  0  0  0  0  0  0
   12.2123   36.5189    7.2599 N   0  0  0  0  0  0  0  0  0  0  0  0
   12.9913   35.6074   10.0685 O   0  0  0  0  0  0  0  0  0  0  0  0
  1  2  1  0
  3 20  2  0
  3 21  1  0
  4  5  2  0
  6  2  2  0
  8 22  2  0
  9 23  2  0
 10  7  2  0
 11  8  1  6
 11 12  1  0
 12 13  1  0
 13 14  1  0
 14 24  1  0
 15 24  1  0
 15 11  1  0
 17 16  1  0
 17 25  1  0
 18 25  1  0
 19 25  1  0
 21  7  1  0
 24 16  1  0
  2 20  1  0
  3  4  1  0
  5  6  1  0
  7 22  1  0
  8  9  1  0
 10 23  1  0
 16 26  2  0
M  END
>  <rmsd>  (1) 
0.245518237

$$$$
