Molport-020-293-031 MCULE-3541316291 PubChem-110265498
     RDKit          3D

 26 28  0  0  0  0  0  0  0  0999 V2000
   16.7690   46.5382    4.0109 C   0  0  0  0  0  0  0  0  0  0  0  0
   15.4275   45.9105    3.8917 C   0  0  0  0  0  0  0  0  0  0  0  0
   13.8409   44.3199    4.6770 C   0  0  0  0  0  0  0  0  0  0  0  0
   12.9324   44.7213    3.6939 C   0  0  0  0  0  0  0  0  0  0  0  0
   13.2883   45.7342    2.8016 C   0  0  0  0  0  0  0  0  0  0  0  0
   14.5439   46.3356    2.8979 C   0  0  0  0  0  0  0  0  0  0  0  0
   14.2465   42.7289    6.6575 C   0  0  0  0  0  0  0  0  0  0  0  0
   15.5416   43.1854    6.9377 C   0  0  0  0  0  0  0  0  0  0  0  0
   16.2612   42.6173    7.9890 C   0  0  0  0  0  0  0  0  0  0  0  0
   15.6878   41.6013    8.7523 C   0  0  0  0  0  0  0  0  0  0  0  0
   14.3908   41.1650    8.4500 C   0  0  0  0  0  0  0  0  0  0  0  0
   13.7376   40.0761    9.2395 C   0  0  2  0  0  0  0  0  0  0  0  0
   13.5860   40.4701   10.7018 C   0  0  0  0  0  0  0  0  0  0  0  0
   12.8921   39.3462   11.4514 C   0  0  0  0  0  0  0  0  0  0  0  0
   13.6928   38.0504   11.3070 C   0  0  0  0  0  0  0  0  0  0  0  0
   14.5199   38.7643    9.1188 C   0  0  0  0  0  0  0  0  0  0  0  0
   11.5965   36.0344    6.9604 C   0  0  0  0  0  0  0  0  0  0  0  0
   13.7809   35.5121    7.5897 C   0  0  0  0  0  0  0  0  0  0  0  0
   15.0613   44.9220    4.7513 N   0  0  0  0  0  0  0  0  0  0  0  0
   13.4640   43.2785    5.5878 N   0  0  0  0  0  0  0  0  0  0  0  0
   13.7109   41.7357    7.4187 N   0  0  0  0  0  0  0  0  0  0  0  0
   13.9231   37.6736    9.9036 N   0  0  0  0  0  0  0  0  0  0  0  0
   12.8126   36.5932    7.5257 N   0  0  0  0  0  0  0  0  0  0  0  0
   12.4634   37.0841    9.1537 S   0  0  0  0  0  0  0  0  0  0  0  0
   11.9432   35.9115    9.9404 O   0  0  0  0  0  0  0  0  0  0  0  0
   11.4133   38.1610    9.1296 O   0  0  0  0  0  0  0  0  0  0  0  0
  1  2  1  0
  3 19  2  0
  3 20  1  0
  4  5  2  0
  6  2  2  0
  7 21  2  0
  8  9  2  0
 10 11  2  0
 12 11  1  6
 12 13  1  0
 13 14  1  0
 14 15  1  0
 15 22  1  0
 16 22  1  0
 16 12  1  0
 17 23  1  0
 18 23  1  0
 20  7  1  0
 24 22  1  0
 24 23  1  0
  2 19  1  0
  3  4  1  0
  5  6  1  0
  7  8  1  0
  9 10  1  0
 11 21  1  0
 24 25  2  0
 24 26  2  0
M  END
>  <rmsd>  (1) 
0.249615058

$$$$
