Molport-051-942-616 CSSS20572399210
     RDKit          3D

 24 26  0  0  0  0  0  0  0  0999 V2000
   12.9222   44.8721    3.6744 C   0  0  0  0  0  0  0  0  0  0  0  0
   13.8851   44.3762    4.6916 C   0  0  0  0  0  0  0  0  0  0  0  0
   14.3089   42.7332    6.5938 C   0  0  0  0  0  0  0  0  0  0  0  0
   16.3006   42.5982    7.8032 C   0  0  0  0  0  0  0  0  0  0  0  0
   16.8475   41.2463    9.3212 C   0  0  0  0  0  0  0  0  0  0  0  0
   14.5363   41.1455    8.3427 C   0  0  0  0  0  0  0  0  0  0  0  0
   13.8038   40.2998   10.5966 C   0  0  0  0  0  0  0  0  0  0  0  0
   13.2921   39.1647   11.4070 C   0  0  0  0  0  0  0  0  0  0  0  0
   16.9092   40.0905   10.2323 C   0  0  0  0  0  0  0  0  0  0  0  0
   17.2058   40.3207   11.5818 C   0  0  0  0  0  0  0  0  0  0  0  0
   17.2850   39.2553   12.4817 C   0  0  0  0  0  0  0  0  0  0  0  0
   17.0821   37.9481   12.0355 C   0  0  0  0  0  0  0  0  0  0  0  0
   16.8118   37.7045   10.6869 C   0  0  0  0  0  0  0  0  0  0  0  0
   16.7306   38.7651    9.7789 C   0  0  0  0  0  0  0  0  0  0  0  0
   16.5021   38.4483    8.3390 C   0  0  0  0  0  0  0  0  0  0  0  0
   15.0283   44.8988    4.7673 O   0  0  0  0  0  0  0  0  0  0  0  0
   14.0951   41.3873   11.1617 O   0  0  0  0  0  0  0  0  0  0  0  0
   13.4954   43.3123    5.5671 N   0  0  0  0  0  0  0  0  0  0  0  0
   15.5749   43.1901    6.8272 N   0  0  0  0  0  0  0  0  0  0  0  0
   17.5631   42.9124    8.1370 N   0  0  0  0  0  0  0  0  0  0  0  0
   17.9064   42.0587    9.0964 N   0  0  0  0  0  0  0  0  0  0  0  0
   15.8115   41.5855    8.5233 N   0  0  0  0  0  0  0  0  0  0  0  0
   13.9407   40.1519    9.1815 N   0  0  0  0  0  0  0  0  0  0  0  0
   13.7960   41.7195    7.3547 N   0  0  0  0  0  0  0  0  0  0  0  0
  1  2  1  0
  2 18  1  0
  3 24  1  0
  4 19  1  0
  5 22  1  0
  5  9  1  0
  6 23  1  0
  8  7  1  0
 10 11  2  0
 12 13  2  0
 14  9  2  0
 15 14  1  0
 18  3  1  0
 20 21  1  0
 22  6  1  0
 22  4  1  0
 23  7  1  0
  2 16  2  0
  3 19  2  0
  4 20  2  0
  5 21  2  0
  6 24  2  0
  7 17  2  0
  9 10  1  0
 11 12  1  0
 13 14  1  0
M  END
>  <rmsd>  (1) 
0.242612869

$$$$
