MolPort-007-723-734 9405089 ChemDiv-E157-8413 MCULE-2668155408 PubChem-22518212 ZINC000009405089 ZINC09405089
     RDKit          3D

 27 29  0  0  0  0  0  0  0  0999 V2000
   13.5442   39.3454   11.2927 C   0  0  0  0  0  0  0  0  0  0  0  0
   13.9067   41.8178   11.5882 C   0  0  0  0  0  0  0  0  0  0  0  0
   12.8452   41.8782   12.5077 C   0  0  0  0  0  0  0  0  0  0  0  0
   12.4911   43.0890   13.1091 C   0  0  0  0  0  0  0  0  0  0  0  0
   13.1948   44.2545   12.7986 C   0  0  0  0  0  0  0  0  0  0  0  0
   14.2529   44.2095   11.8884 C   0  0  0  0  0  0  0  0  0  0  0  0
   14.6060   42.9983   11.2874 C   0  0  0  0  0  0  0  0  0  0  0  0
   15.1606   41.5123    8.4254 C   0  0  0  0  0  0  0  0  0  0  0  0
   14.2442   42.7397    6.5944 C   0  0  0  0  0  0  0  0  0  0  0  0
   13.9030   44.3749    4.6788 C   0  0  0  0  0  0  0  0  0  0  0  0
   13.0009   44.8862    3.6318 C   0  0  0  0  0  0  0  0  0  0  0  0
   11.7124   44.3523    3.4840 C   0  0  0  0  0  0  0  0  0  0  0  0
   10.8546   44.8390    2.4932 C   0  0  0  0  0  0  0  0  0  0  0  0
   11.2793   45.8627    1.6424 C   0  0  0  0  0  0  0  0  0  0  0  0
   10.3685   46.3780    0.5873 C   0  0  0  0  0  0  0  0  0  0  0  0
   12.5619   46.3987    1.7808 C   0  0  0  0  0  0  0  0  0  0  0  0
   13.4195   45.9126    2.7720 C   0  0  0  0  0  0  0  0  0  0  0  0
   14.2650   40.5679   10.9645 N   0  0  0  0  0  0  0  0  0  0  0  0
   15.9984   42.4615    7.9541 N   0  0  0  0  0  0  0  0  0  0  0  0
   15.4889   43.1457    6.9318 N   0  0  0  0  0  0  0  0  0  0  0  0
   13.4688   43.3109    5.5363 N   0  0  0  0  0  0  0  0  0  0  0  0
   12.7519   45.7710   13.5513 Cl  0  0  0  0  0  0  0  0  0  0  0  0
   15.5369   40.4714    9.7830 S   0  0  0  0  0  0  0  0  0  0  0  0
   13.7065   41.4834    7.5759 S   0  0  0  0  0  0  0  0  0  0  0  0
   15.6788   39.0591    9.2877 O   0  0  0  0  0  0  0  0  0  0  0  0
   16.8337   40.8980   10.4121 O   0  0  0  0  0  0  0  0  0  0  0  0
   15.0529   44.8755    4.8156 O   0  0  0  0  0  0  0  0  0  0  0  0
  1 18  1  0
  3  4  2  0
  5 22  1  0
  5  6  2  0
  7  2  2  0
  8 24  1  0
  9 21  1  0
  9 24  1  0
 10 11  1  0
 12 13  2  0
 14 16  2  0
 15 14  1  0
 17 11  2  0
 18  2  1  0
 19 20  1  0
 21 10  1  0
 23 18  1  0
 23  8  1  0
  2  3  1  0
  4  5  1  0
  6  7  1  0
  8 19  2  0
  9 20  2  0
 10 27  2  0
 11 12  1  0
 13 14  1  0
 16 17  1  0
 23 25  2  0
 23 26  2  0
M  END
>  <rmsd>  (1) 
0.196167588

$$$$
