MolPort-047-015-575 MCULE-1091549304 PubChem-110095393
     RDKit          3D

 24 26  0  0  0  0  0  0  0  0999 V2000
   17.5835   43.0038    8.3407 C   0  0  0  0  0  0  0  0  0  0  0  0
   16.2072   42.5555    8.0054 C   0  0  0  0  0  0  0  0  0  0  0  0
   15.5185   43.1497    6.9503 C   0  0  0  0  0  0  0  0  0  0  0  0
   14.2242   42.7066    6.6579 C   0  0  0  0  0  0  0  0  0  0  0  0
   14.3603   41.1434    8.4343 C   0  0  0  0  0  0  0  0  0  0  0  0
   13.7202   40.0549    9.2297 C   0  0  2  0  0  0  0  0  0  0  0  0
   13.5862   40.4650   10.6976 C   0  0  0  0  0  0  0  0  0  0  0  0
   12.9284   39.3473   11.5044 C   0  0  0  0  0  0  0  0  0  0  0  0
   13.7482   38.0662   11.3841 C   0  0  0  0  0  0  0  0  0  0  0  0
   14.5185   38.7573    9.1038 C   0  0  0  0  0  0  0  0  0  0  0  0
   13.5328   36.4615    9.4581 C   0  0  0  0  0  0  0  0  0  0  0  0
   13.7070   36.1267    8.0153 C   0  0  0  0  0  0  0  0  0  0  0  0
   13.8686   44.3172    4.6986 C   0  0  0  0  0  0  0  0  0  0  0  0
   15.1863   45.8836    3.7858 C   0  0  0  0  0  0  0  0  0  0  0  0
   14.0691   46.0231    2.9677 C   0  0  0  0  0  0  0  0  0  0  0  0
   13.9135   46.9797    1.8372 C   0  0  0  0  0  0  0  0  0  0  0  0
   16.4231   46.6998    3.6385 C   0  0  0  0  0  0  0  0  0  0  0  0
   13.6762   41.7136    7.4073 N   0  0  0  0  0  0  0  0  0  0  0  0
   15.6203   41.5666    8.7271 N   0  0  0  0  0  0  0  0  0  0  0  0
   13.9346   37.7392    9.9731 N   0  0  0  0  0  0  0  0  0  0  0  0
   13.4565   43.2716    5.5869 N   0  0  0  0  0  0  0  0  0  0  0  0
   15.0719   44.9323    4.7495 N   0  0  0  0  0  0  0  0  0  0  0  0
   13.0237   35.6006   10.2242 O   0  0  0  0  0  0  0  0  0  0  0  0
   12.8996   44.9219    3.4643 S   0  0  0  0  0  0  0  0  0  0  0  0
  1  2  1  0
  2 19  2  0
  3  4  2  0
  4 21  1  0
  5 18  2  0
  6  5  1  6
  6  7  1  0
  7  8  1  0
  8  9  1  0
  9 20  1  0
 10 20  1  0
 10  6  1  0
 12 11  1  0
 13 24  1  0
 14 22  1  0
 15 24  1  0
 16 15  1  0
 17 14  1  0
 20 11  1  0
 21 13  1  0
  2  3  1  0
  4 18  1  0
  5 19  1  0
 11 23  2  0
 13 22  2  0
 14 15  2  0
M  END
>  <rmsd>  (1) 
0.240327671

$$$$
