MolPort-007-713-555 ChemDiv-E002-0466 MCULE-7840637079 PubChem-22509996 ZINC000006768194
     RDKit          3D

 28 30  0  0  0  0  0  0  0  0999 V2000
   15.1295   41.6174    8.5305 C   0  0  0  0  0  0  0  0  0  0  0  0
   16.8891   40.6364    9.9940 C   0  0  0  0  0  0  0  0  0  0  0  0
   17.2308   41.6396   11.0800 C   0  0  0  0  0  0  0  0  0  0  0  0
   14.4951   40.0318   10.3961 C   0  0  0  0  0  0  0  0  0  0  0  0
   14.8228   38.7991   10.9849 C   0  0  0  0  0  0  0  0  0  0  0  0
   13.8833   38.1062   11.7536 C   0  0  0  0  0  0  0  0  0  0  0  0
   12.6083   38.6423   11.9488 C   0  0  0  0  0  0  0  0  0  0  0  0
   12.2738   39.8726   11.3783 C   0  0  0  0  0  0  0  0  0  0  0  0
   13.2136   40.5652   10.6099 C   0  0  0  0  0  0  0  0  0  0  0  0
   14.2322   42.7793    6.6351 C   0  0  0  0  0  0  0  0  0  0  0  0
   13.9125   44.3457    4.6623 C   0  0  0  0  0  0  0  0  0  0  0  0
   13.2866   45.7909    2.6266 C   0  0  0  0  0  0  0  0  0  0  0  0
   14.5038   46.4916    2.6206 C   0  0  0  0  0  0  0  0  0  0  0  0
   14.7593   47.4796    1.6700 C   0  0  0  0  0  0  0  0  0  0  0  0
   13.7984   47.7826    0.7082 C   0  0  0  0  0  0  0  0  0  0  0  0
   12.5838   47.0968    0.6989 C   0  0  0  0  0  0  0  0  0  0  0  0
   12.3074   46.0985    1.6478 C   0  0  0  0  0  0  0  0  0  0  0  0
   10.9938   45.4107    1.5770 C   0  0  0  0  0  0  0  0  0  0  0  0
    9.4103   43.7355    2.4470 C   0  0  0  0  0  0  0  0  0  0  0  0
   15.4801   40.7536    9.6288 N   0  0  0  0  0  0  0  0  0  0  0  0
   15.9786   42.5361    8.0133 N   0  0  0  0  0  0  0  0  0  0  0  0
   15.4779   43.1865    6.9644 N   0  0  0  0  0  0  0  0  0  0  0  0
   13.4713   43.3104    5.5460 N   0  0  0  0  0  0  0  0  0  0  0  0
   13.0364   44.7749    3.6121 N   0  0  0  0  0  0  0  0  0  0  0  0
   15.0505   44.8679    4.8079 O   0  0  0  0  0  0  0  0  0  0  0  0
   10.6591   44.4094    2.4917 O   0  0  0  0  0  0  0  0  0  0  0  0
   10.1689   45.7357    0.6778 O   0  0  0  0  0  0  0  0  0  0  0  0
   13.6844   41.5590    7.6534 S   0  0  0  0  0  0  0  0  0  0  0  0
  1 20  1  0
  1 28  1  0
  2 20  1  0
  2  3  1  0
  5  6  2  0
  7  8  2  0
  9  4  2  0
 10 23  1  0
 10 28  1  0
 11 24  1  0
 13 14  2  0
 15 16  2  0
 17 18  1  0
 17 12  2  0
 18 26  1  0
 19 26  1  0
 20  4  1  0
 21 22  1  0
 23 11  1  0
 24 12  1  0
  1 21  2  0
  4  5  1  0
  6  7  1  0
  8  9  1  0
 10 22  2  0
 11 25  2  0
 12 13  1  0
 14 15  1  0
 16 17  1  0
 18 27  2  0
M  END
>  <rmsd>  (1) 
0.211814538

$$$$
