Molport-051-662-103 MCULE-9837835430
     RDKit          3D

 29 32  0  0  0  0  0  0  0  0999 V2000
   12.2638   46.4377    1.9828 C   0  0  0  0  0  0  0  0  0  0  0  0
   12.6590   47.5473    1.0639 C   0  0  0  0  0  0  0  0  0  0  0  0
   13.4822   46.1176   -2.0846 C   0  0  0  0  0  0  0  0  0  0  0  0
   14.7645   46.2619   -1.5735 C   0  0  0  0  0  0  0  0  0  0  0  0
   14.5909   46.8311   -0.3242 C   0  0  0  0  0  0  0  0  0  0  0  0
   13.1997   45.9485    2.8999 C   0  0  0  0  0  0  0  0  0  0  0  0
   12.8734   44.8906    3.7589 C   0  0  0  0  0  0  0  0  0  0  0  0
   11.5960   44.3210    3.6873 C   0  0  0  0  0  0  0  0  0  0  0  0
   10.6597   44.7998    2.7684 C   0  0  0  0  0  0  0  0  0  0  0  0
   10.9857   45.8587    1.9058 C   0  0  0  0  0  0  0  0  0  0  0  0
    8.7529   45.8047    0.8341 C   0  0  0  0  0  0  0  0  0  0  0  0
   13.8640   44.3805    4.7233 C   0  0  0  0  0  0  0  0  0  0  0  0
   14.3608   42.6874    6.5779 C   0  0  0  0  0  0  0  0  0  0  0  0
   16.1382   41.9430    8.1312 C   0  0  0  0  0  0  0  0  0  0  0  0
   14.9247   41.2597    8.2087 C   0  0  0  0  0  0  0  0  0  0  0  0
   14.6903   40.1718    9.1992 C   0  0  0  0  0  0  0  0  0  0  0  0
   14.6704   39.9774   11.5905 C   0  0  0  0  0  0  0  0  0  0  0  0
   14.1380   38.5417   11.6434 C   0  0  0  0  0  0  0  0  0  0  0  0
   12.6182   38.5567   11.6594 C   0  0  0  0  0  0  0  0  0  0  0  0
   12.1071   39.2964   10.4338 C   0  0  0  0  0  0  0  0  0  0  0  0
   12.6818   40.7159   10.4105 C   0  0  0  0  0  0  0  0  0  0  0  0
   13.2739   47.0082   -0.1383 N   0  0  0  0  0  0  0  0  0  0  0  0
   12.5946   46.5784   -1.1844 N   0  0  0  0  0  0  0  0  0  0  0  0
   13.5138   43.2978    5.5969 N   0  0  0  0  0  0  0  0  0  0  0  0
   14.1530   40.7291   10.4382 N   0  0  0  0  0  0  0  0  0  0  0  0
   13.9445   41.6732    7.3601 N   0  0  0  0  0  0  0  0  0  0  0  0
   10.0605   46.3434    0.9731 O   0  0  0  0  0  0  0  0  0  0  0  0
   15.0125   44.8983    4.7718 O   0  0  0  0  0  0  0  0  0  0  0  0
   15.9518   43.1031    6.9238 S   0  0  0  0  0  0  0  0  0  0  0  0
  2  1  1  0
  2 22  1  0
  3  4  1  0
  5 22  1  0
  6  7  2  0
  7 12  1  0
  8  9  2  0
 10 27  1  0
 10  1  2  0
 11 27  1  0
 12 24  1  0
 13 29  1  0
 14 29  1  0
 15 26  1  0
 16 15  1  0
 16 25  1  0
 17 25  1  0
 17 18  1  0
 18 19  1  0
 19 20  1  0
 20 21  1  0
 21 25  1  0
 22 23  1  0
 24 13  1  0
  1  6  1  0
  3 23  2  0
  4  5  2  0
  7  8  1  0
  9 10  1  0
 12 28  2  0
 13 26  2  0
 14 15  2  0
M  END
>  <rmsd>  (1) 
0.240929678

$$$$
