MolPort-008-381-923 55412984 CSSS00159806312 MCULE-6001361176 PubChem-46999781 ZINC000055412984 ZINC55412984
     RDKit          3D

 24 25  0  0  0  0  0  0  0  0999 V2000
   11.5893   46.4348    5.1062 C   0  0  0  0  0  0  0  0  0  0  0  0
   12.5600   46.3467    3.9433 C   0  0  0  0  0  0  0  0  0  0  0  0
   12.9343   44.8981    3.6710 C   0  0  0  0  0  0  0  0  0  0  0  0
   13.8894   44.3862    4.6966 C   0  0  0  0  0  0  0  0  0  0  0  0
   14.2578   42.7048    6.5957 C   0  0  0  0  0  0  0  0  0  0  0  0
   13.6957   41.6529    7.3271 C   0  0  0  0  0  0  0  0  0  0  0  0
   14.4192   41.0385    8.3532 C   0  0  0  0  0  0  0  0  0  0  0  0
   15.7145   41.4713    8.6546 C   0  0  0  0  0  0  0  0  0  0  0  0
   16.4823   40.8298    9.7618 C   0  0  0  0  0  0  0  0  0  0  0  0
   16.1880   41.4919   11.0736 C   0  0  0  0  0  0  0  0  0  0  0  0
   15.2142   39.3533   12.0028 C   0  0  0  0  0  0  0  0  0  0  0  0
   14.0409   39.1503   11.0959 C   0  0  0  0  0  0  0  0  0  0  0  0
   12.8178   39.5244   11.4614 C   0  0  0  0  0  0  0  0  0  0  0  0
   15.4055   41.4248   13.4464 C   0  0  0  0  0  0  0  0  0  0  0  0
   16.3126   40.7763   14.4813 C   0  0  0  0  0  0  0  0  0  0  0  0
   15.4193   40.3430   15.6276 C   0  0  0  0  0  0  0  0  0  0  0  0
   14.1237   41.1050   15.4595 C   0  0  0  0  0  0  0  0  0  0  0  0
   13.9853   41.3315   13.9724 C   0  0  0  0  0  0  0  0  0  0  0  0
   16.2808   42.5256    7.9310 C   0  0  0  0  0  0  0  0  0  0  0  0
   15.5561   43.1389    6.9052 C   0  0  0  0  0  0  0  0  0  0  0  0
   15.0389   44.8949    4.7868 O   0  0  0  0  0  0  0  0  0  0  0  0
   16.5347   42.6933   11.2396 O   0  0  0  0  0  0  0  0  0  0  0  0
   13.4830   43.3106    5.5521 N   0  0  0  0  0  0  0  0  0  0  0  0
   15.5402   40.7755   12.1410 N   0  0  0  0  0  0  0  0  0  0  0  0
  1  2  1  0
  2  3  1  0
  3  4  1  0
  4 23  1  0
  6  7  2  0
  8 19  2  0
  9  8  1  0
  9 10  1  0
 10 24  1  0
 11 24  1  0
 11 12  1  0
 14 24  1  0
 14 15  1  0
 15 16  1  0
 16 17  1  0
 17 18  1  0
 18 14  1  0
 20  5  2  0
 23  5  1  0
  4 21  2  0
  5  6  1  0
  7  8  1  0
 10 22  2  0
 12 13  2  0
 19 20  1  0
M  END
>  <rmsd>  (1) 
0.233127415

$$$$
