MolPort-019-787-623 628436 CSSS00121608801 LN01241672 MCULE-6214710365 PubChem-982687 ZINC000000628436 ZINC00628436
     RDKit          3D

 25 27  0  0  0  0  0  0  0  0999 V2000
   11.7509   36.9252   13.6438 C   0  0  0  0  0  0  0  0  0  0  0  0
   12.4941   38.6692   12.0548 C   0  0  0  0  0  0  0  0  0  0  0  0
   12.1660   39.7940   11.2931 C   0  0  0  0  0  0  0  0  0  0  0  0
   13.1333   40.4138   10.4974 C   0  0  0  0  0  0  0  0  0  0  0  0
   14.4431   39.9143   10.4443 C   0  0  0  0  0  0  0  0  0  0  0  0
   14.7713   38.7921   11.2197 C   0  0  0  0  0  0  0  0  0  0  0  0
   13.8056   38.1711   12.0162 C   0  0  0  0  0  0  0  0  0  0  0  0
   15.4900   40.5734    9.6287 C   0  0  0  0  0  0  0  0  0  0  0  0
   15.1741   41.5086    8.5211 C   0  0  0  0  0  0  0  0  0  0  0  0
   16.0298   42.4727    7.9715 C   0  0  0  0  0  0  0  0  0  0  0  0
   17.3983   42.7634    8.4840 C   0  0  0  0  0  0  0  0  0  0  0  0
   14.2669   42.7628    6.6151 C   0  0  0  0  0  0  0  0  0  0  0  0
   13.9009   44.3596    4.6719 C   0  0  0  0  0  0  0  0  0  0  0  0
   12.9931   44.8355    3.6133 C   0  0  0  0  0  0  0  0  0  0  0  0
   11.7196   44.2670    3.4632 C   0  0  0  0  0  0  0  0  0  0  0  0
   10.8577   44.7180    2.4592 C   0  0  0  0  0  0  0  0  0  0  0  0
   11.2629   45.7410    1.5976 C   0  0  0  0  0  0  0  0  0  0  0  0
   12.5298   46.3131    1.7399 C   0  0  0  0  0  0  0  0  0  0  0  0
   13.3918   45.8622    2.7439 C   0  0  0  0  0  0  0  0  0  0  0  0
   11.5044   38.0703   12.8390 O   0  0  0  0  0  0  0  0  0  0  0  0
   16.6995   40.3216    9.8821 O   0  0  0  0  0  0  0  0  0  0  0  0
   15.0440   44.8780    4.7980 O   0  0  0  0  0  0  0  0  0  0  0  0
   15.5183   43.1679    6.9205 N   0  0  0  0  0  0  0  0  0  0  0  0
   13.4798   43.3098    5.5530 N   0  0  0  0  0  0  0  0  0  0  0  0
   13.7418   41.5327    7.6260 S   0  0  0  0  0  0  0  0  0  0  0  0
  1 20  1  0
  2 20  1  0
  3  4  2  0
  5  6  2  0
  5  8  1  0
  7  2  2  0
  8  9  1  0
  9 25  1  0
 10 23  1  0
 11 10  1  0
 12 24  1  0
 12 25  1  0
 13 14  1  0
 15 16  2  0
 17 18  2  0
 19 14  2  0
 24 13  1  0
  2  3  1  0
  4  5  1  0
  6  7  1  0
  8 21  2  0
  9 10  2  0
 12 23  2  0
 13 22  2  0
 14 15  1  0
 16 17  1  0
 18 19  1  0
M  END
>  <rmsd>  (1) 
0.187604696

$$$$
