Molport-046-951-095 MCULE-1290107612 MCULE-6166266746 PubChem-110089565
     RDKit          3D

 21 23  0  0  0  0  0  0  0  0999 V2000
   16.7600   46.5436    4.0074 C   0  0  0  0  0  0  0  0  0  0  0  0
   15.4220   45.9072    3.8940 C   0  0  0  0  0  0  0  0  0  0  0  0
   14.5342   46.3220    2.9034 C   0  0  0  0  0  0  0  0  0  0  0  0
   13.2892   45.7004    2.8302 C   0  0  0  0  0  0  0  0  0  0  0  0
   13.8440   44.3225    4.6729 C   0  0  0  0  0  0  0  0  0  0  0  0
   14.2366   42.7283    6.6541 C   0  0  0  0  0  0  0  0  0  0  0  0
   15.5313   43.1815    6.9416 C   0  0  0  0  0  0  0  0  0  0  0  0
   16.2436   42.6111    7.9965 C   0  0  0  0  0  0  0  0  0  0  0  0
   15.6636   41.5959    8.7561 C   0  0  0  0  0  0  0  0  0  0  0  0
   14.3675   41.1624    8.4461 C   0  0  0  0  0  0  0  0  0  0  0  0
   13.7061   40.0765    9.2342 C   0  0  2  0  0  0  0  0  0  0  0  0
   13.5400   40.4839   10.6983 C   0  0  0  0  0  0  0  0  0  0  0  0
   12.9432   39.3332   11.5017 C   0  0  0  0  0  0  0  0  0  0  0  0
   13.7848   38.0758   11.2967 C   0  0  0  0  0  0  0  0  0  0  0  0
   14.4928   38.7673    9.1372 C   0  0  0  0  0  0  0  0  0  0  0  0
   12.3130   46.1128    1.7885 C   0  0  0  0  0  0  0  0  0  0  0  0
   12.9679   44.7173    3.7111 N   0  0  0  0  0  0  0  0  0  0  0  0
   15.0640   44.9209    4.7565 N   0  0  0  0  0  0  0  0  0  0  0  0
   13.4611   43.2807    5.5808 N   0  0  0  0  0  0  0  0  0  0  0  0
   13.6944   41.7359    7.4117 N   0  0  0  0  0  0  0  0  0  0  0  0
   13.8053   37.7129    9.8806 N   0  0  0  0  0  0  0  0  0  0  0  0
  1  2  1  0
  2 18  2  0
  3  4  2  0
  5 17  2  0
  5 19  1  0
  6 20  2  0
  7  8  2  0
  9 10  2  0
 11 10  1  6
 11 12  1  0
 12 13  1  0
 13 14  1  0
 14 21  1  0
 15 21  1  0
 15 11  1  0
 16  4  1  0
 19  6  1  0
  2  3  1  0
  4 17  1  0
  5 18  1  0
  6  7  1  0
  8  9  1  0
 10 20  1  0
M  END
>  <rmsd>  (1) 
0.246018767

$$$$
