MolPort-007-897-027 32646904 ChemDiv-J016-0497 MCULE-8714937757 PubChem-39890410 ZINC000032646904 ZINC32646904
     RDKit          3D

 27 29  0  0  0  0  0  0  0  0999 V2000
    7.1883   48.6235    1.4172 C   0  0  0  0  0  0  0  0  0  0  0  0
    8.5578   49.2751    1.3562 C   0  0  0  0  0  0  0  0  0  0  0  0
    9.5610   48.4581    2.0980 C   0  0  0  0  0  0  0  0  0  0  0  0
   10.1426   48.9687    3.2600 C   0  0  0  0  0  0  0  0  0  0  0  0
   11.1009   48.2317    3.9765 C   0  0  0  0  0  0  0  0  0  0  0  0
   12.6161   48.2853    5.9813 C   0  0  0  0  0  0  0  0  0  0  0  0
   11.3884   50.0081    5.7040 C   0  0  0  0  0  0  0  0  0  0  0  0
   11.4784   46.9525    3.4989 C   0  0  0  0  0  0  0  0  0  0  0  0
   12.8870   44.9257    3.7414 C   0  0  0  0  0  0  0  0  0  0  0  0
   13.8776   44.3862    4.7103 C   0  0  0  0  0  0  0  0  0  0  0  0
   14.2811   42.7344    6.6271 C   0  0  0  0  0  0  0  0  0  0  0  0
   13.7617   41.6471    7.3401 C   0  0  0  0  0  0  0  0  0  0  0  0
   14.5009   41.0584    8.3714 C   0  0  0  0  0  0  0  0  0  0  0  0
   13.9296   39.9186    9.1389 C   0  0  0  0  0  0  0  0  0  0  0  0
   13.3439   39.2980   11.1722 C   0  0  0  0  0  0  0  0  0  0  0  0
   15.7610   41.5673    8.7054 C   0  0  0  0  0  0  0  0  0  0  0  0
   16.2862   42.6539    8.0004 C   0  0  0  0  0  0  0  0  0  0  0  0
   15.5497   43.2345    6.9643 C   0  0  0  0  0  0  0  0  0  0  0  0
   10.8897   46.4517    2.3251 C   0  0  0  0  0  0  0  0  0  0  0  0
    9.9391   47.1984    1.6291 C   0  0  0  0  0  0  0  0  0  0  0  0
   11.6747   48.8042    5.1705 N   0  0  0  0  0  0  0  0  0  0  0  0
   12.8934   49.1453    6.9786 N   0  0  0  0  0  0  0  0  0  0  0  0
   12.1315   50.2145    6.8066 N   0  0  0  0  0  0  0  0  0  0  0  0
   13.4950   43.3082    5.5751 N   0  0  0  0  0  0  0  0  0  0  0  0
   12.4302   46.1945    4.1901 O   0  0  0  0  0  0  0  0  0  0  0  0
   15.0292   44.8941    4.7661 O   0  0  0  0  0  0  0  0  0  0  0  0
   13.3241   40.3893   10.3045 O   0  0  0  0  0  0  0  0  0  0  0  0
  1  2  1  0
  2  3  1  0
  4  5  2  0
  5 21  1  0
  7 21  1  0
  8 25  1  0
  8 19  2  0
  9 25  1  0
  9 10  1  0
 10 24  1  0
 12 13  2  0
 14 13  1  0
 14 27  1  0
 15 27  1  0
 16 17  2  0
 18 11  2  0
 20  3  2  0
 21  6  1  0
 22 23  1  0
 24 11  1  0
  3  4  1  0
  5  8  1  0
  6 22  2  0
  7 23  2  0
 10 26  2  0
 11 12  1  0
 13 16  1  0
 17 18  1  0
 19 20  1  0
M  END
>  <rmsd>  (1) 
0.246252552

$$$$
