MolPort-020-269-162 19749433 MCULE-2171737813 PubChem-92634681 ZINC000019749433 ZINC19749433
     RDKit          3D

 27 29  0  0  0  0  0  0  0  0999 V2000
   13.3147   39.1277   11.4261 C   0  0  0  0  0  0  0  0  0  0  0  0
   14.6866   39.0340   10.8618 C   0  0  0  0  0  0  0  0  0  0  0  0
   15.6978   39.9493   11.0787 C   0  0  0  0  0  0  0  0  0  0  0  0
   16.7334   39.4093   10.3411 C   0  0  0  0  0  0  0  0  0  0  0  0
   18.1024   39.9951   10.2406 C   0  0  0  0  0  0  0  0  0  0  0  0
   19.2961   39.0521    8.2578 C   0  0  0  0  0  0  0  0  0  0  0  0
   18.1363   41.2656    8.0575 C   0  0  0  0  0  0  0  0  0  0  0  0
   17.2631   42.3411    8.6227 C   0  0  0  0  0  0  0  0  0  0  0  0
   15.6136   43.1237    6.9400 C   0  0  0  0  0  0  0  0  0  0  0  0
   14.3251   42.7561    6.6106 C   0  0  0  0  0  0  0  0  0  0  0  0
   13.9468   41.7360    7.4587 C   0  0  0  0  0  0  0  0  0  0  0  0
   13.8864   44.3648    4.6850 C   0  0  0  0  0  0  0  0  0  0  0  0
   12.9386   44.8384    3.6609 C   0  0  0  0  0  0  0  0  0  0  0  0
   11.6647   44.2612    3.5532 C   0  0  0  0  0  0  0  0  0  0  0  0
   10.7649   44.7098    2.5820 C   0  0  0  0  0  0  0  0  0  0  0  0
   11.1323   45.7391    1.7112 C   0  0  0  0  0  0  0  0  0  0  0  0
   12.3993   46.3200    1.8113 C   0  0  0  0  0  0  0  0  0  0  0  0
   13.2992   45.8713    2.7824 C   0  0  0  0  0  0  0  0  0  0  0  0
   16.3611   38.2588    9.7505 N   0  0  0  0  0  0  0  0  0  0  0  0
   15.0990   38.0303   10.0680 N   0  0  0  0  0  0  0  0  0  0  0  0
   18.5069   40.1233    8.8458 N   0  0  0  0  0  0  0  0  0  0  0  0
   15.9656   42.3310    7.9668 N   0  0  0  0  0  0  0  0  0  0  0  0
   14.9866   41.4972    8.2813 N   0  0  0  0  0  0  0  0  0  0  0  0
   13.5038   43.3079    5.5760 N   0  0  0  0  0  0  0  0  0  0  0  0
   18.5428   41.3730    6.8689 O   0  0  0  0  0  0  0  0  0  0  0  0
   15.0295   44.8912    4.7725 O   0  0  0  0  0  0  0  0  0  0  0  0
   10.2604   46.1737    0.7703 F   0  0  0  0  0  0  0  0  0  0  0  0
  1  2  1  0
  3  4  1  0
  5  4  1  0
  5 21  1  0
  6 21  1  0
  8  7  1  0
  8 22  1  0
 10 11  1  0
 10 24  1  0
 12 13  1  0
 14 15  2  0
 16 17  2  0
 16 27  1  0
 18 13  2  0
 20 19  1  0
 20  2  1  0
 21  7  1  0
 22  9  1  0
 22 23  1  0
 24 12  1  0
  2  3  2  0
  4 19  2  0
  7 25  2  0
  9 10  2  0
 11 23  2  0
 12 26  2  0
 13 14  1  0
 15 16  1  0
 17 18  1  0
M  END
>  <rmsd>  (1) 
0.193952873

$$$$
