MolPort-020-278-649 MCULE-1929153330 PubChem-110255521
     RDKit          3D

 28 30  0  0  0  0  0  0  0  0999 V2000
   12.3159   46.1403    1.8044 C   0  0  0  0  0  0  0  0  0  0  0  0
   13.2918   45.7183    2.8425 C   0  0  0  0  0  0  0  0  0  0  0  0
   14.5386   46.3358    2.9188 C   0  0  0  0  0  0  0  0  0  0  0  0
   15.4262   45.9116    3.9057 C   0  0  0  0  0  0  0  0  0  0  0  0
   13.8445   44.3258    4.6750 C   0  0  0  0  0  0  0  0  0  0  0  0
   14.2335   42.7216    6.6483 C   0  0  0  0  0  0  0  0  0  0  0  0
   14.3759   41.1684    8.4335 C   0  0  0  0  0  0  0  0  0  0  0  0
   16.2215   42.5771    7.9900 C   0  0  0  0  0  0  0  0  0  0  0  0
   15.5289   43.1657    6.9343 C   0  0  0  0  0  0  0  0  0  0  0  0
   17.5988   43.0278    8.3184 C   0  0  0  0  0  0  0  0  0  0  0  0
   13.7368   40.0861    9.2381 C   0  0  2  0  0  0  0  0  0  0  0  0
   13.6175   40.5000   10.6971 C   0  0  0  0  0  0  0  0  0  0  0  0
   12.9566   39.3801   11.4818 C   0  0  0  0  0  0  0  0  0  0  0  0
   13.7622   38.0877   11.3299 C   0  0  0  0  0  0  0  0  0  0  0  0
   14.5389   38.7867    9.1252 C   0  0  0  0  0  0  0  0  0  0  0  0
   11.5883   35.8087   11.2598 C   0  0  0  0  0  0  0  0  0  0  0  0
   13.2231   34.7422    9.9772 C   0  0  0  0  0  0  0  0  0  0  0  0
   16.7660   46.5434    4.0223 C   0  0  0  0  0  0  0  0  0  0  0  0
   15.0661   44.9205    4.7618 N   0  0  0  0  0  0  0  0  0  0  0  0
   12.9686   44.7298    3.7170 N   0  0  0  0  0  0  0  0  0  0  0  0
   13.4591   43.2799    5.5773 N   0  0  0  0  0  0  0  0  0  0  0  0
   13.6887   41.7326    7.4055 N   0  0  0  0  0  0  0  0  0  0  0  0
   15.6370   41.5928    8.7197 N   0  0  0  0  0  0  0  0  0  0  0  0
   13.9612   37.6969    9.9251 N   0  0  0  0  0  0  0  0  0  0  0  0
   12.0331   35.5714    9.8972 N   0  0  0  0  0  0  0  0  0  0  0  0
   12.4914   37.0936    9.1953 S   0  0  0  0  0  0  0  0  0  0  0  0
   11.3700   38.0822    9.3641 O   0  0  0  0  0  0  0  0  0  0  0  0
   12.7257   36.8848    7.7246 O   0  0  0  0  0  0  0  0  0  0  0  0
  1  2  1  0
  2 20  2  0
  3  4  2  0
  5 19  2  0
  5 21  1  0
  7 22  2  0
  8 23  2  0
  9  6  2  0
 10  8  1  0
 11  7  1  6
 11 12  1  0
 12 13  1  0
 13 14  1  0
 14 24  1  0
 15 24  1  0
 15 11  1  0
 16 25  1  0
 17 25  1  0
 18  4  1  0
 21  6  1  0
 26 24  1  0
 26 25  1  0
  2  3  1  0
  4 19  1  0
  5 20  1  0
  6 22  1  0
  7 23  1  0
  8  9  1  0
 26 27  2  0
 26 28  2  0
M  END
>  <rmsd>  (1) 
0.243770987

$$$$
