Molport-047-072-014 PubChem-132767563
     RDKit          3D

 34 37  0  0  0  0  0  0  0  0999 V2000
   13.7078   36.5812   15.4170 C   0  0  0  0  0  0  0  0  0  0  0  0
   14.2385   35.2806   14.9229 C   0  0  0  0  0  0  0  0  0  0  0  0
   15.1789   31.8918   15.4251 C   0  0  0  0  0  0  0  0  0  0  0  0
   15.0485   33.6756   13.6784 C   0  0  0  0  0  0  0  0  0  0  0  0
   15.5833   32.8540   12.5519 C   0  0  0  0  0  0  0  0  0  0  0  0
   14.6445   35.0007   13.6300 C   0  0  0  0  0  0  0  0  0  0  0  0
   14.6284   35.9381   12.4954 C   0  0  0  0  0  0  0  0  0  0  0  0
   15.0304   35.6003   11.2749 C   0  0  0  0  0  0  0  0  0  0  0  0
   15.0201   36.5255   10.1273 C   0  0  0  0  0  0  0  0  0  0  0  0
   13.2204   38.0598   11.0233 C   0  0  0  0  0  0  0  0  0  0  0  0
   13.3280   39.4286   11.6998 C   0  0  0  0  0  0  0  0  0  0  0  0
   13.8332   40.5386   10.7658 C   0  0  0  0  0  0  0  0  0  0  0  0
   13.9260   40.0946    9.3054 C   0  0  2  0  0  0  0  0  0  0  0  0
   14.7811   38.8318    9.1857 C   0  0  0  0  0  0  0  0  0  0  0  0
   14.4794   41.1883    8.4535 C   0  0  0  0  0  0  0  0  0  0  0  0
   13.7043   41.7134    7.4197 C   0  0  0  0  0  0  0  0  0  0  0  0
   14.2388   42.7343    6.6345 C   0  0  0  0  0  0  0  0  0  0  0  0
   13.8456   44.3261    4.6738 C   0  0  0  0  0  0  0  0  0  0  0  0
   13.3149   45.7248    2.8402 C   0  0  0  0  0  0  0  0  0  0  0  0
   12.3495   46.1547    1.7955 C   0  0  0  0  0  0  0  0  0  0  0  0
   14.5646   46.3354    2.9278 C   0  0  0  0  0  0  0  0  0  0  0  0
   15.4421   45.9045    3.9209 C   0  0  0  0  0  0  0  0  0  0  0  0
   16.7844   46.5287    4.0494 C   0  0  0  0  0  0  0  0  0  0  0  0
   16.2376   42.6707    7.9023 C   0  0  0  0  0  0  0  0  0  0  0  0
   17.6059   43.1889    8.1614 C   0  0  0  0  0  0  0  0  0  0  0  0
   14.3892   34.1908   15.7013 N   0  0  0  0  0  0  0  0  0  0  0  0
   14.8795   33.2276   14.9376 N   0  0  0  0  0  0  0  0  0  0  0  0
   14.3829   37.8165   10.1669 N   0  0  0  0  0  0  0  0  0  0  0  0
   13.4509   43.2805    5.5701 N   0  0  0  0  0  0  0  0  0  0  0  0
   12.9792   44.7363    3.7099 N   0  0  0  0  0  0  0  0  0  0  0  0
   15.0700   44.9133    4.7718 N   0  0  0  0  0  0  0  0  0  0  0  0
   15.4945   43.1921    6.8917 N   0  0  0  0  0  0  0  0  0  0  0  0
   15.7306   41.6760    8.6756 N   0  0  0  0  0  0  0  0  0  0  0  0
   15.6142   36.1603    9.0778 O   0  0  0  0  0  0  0  0  0  0  0  0
  1  2  1  0
  3 27  1  0
  5  4  1  0
  6  7  1  0
  6  2  1  0
  8  9  1  0
  9 28  1  0
 10 28  1  0
 10 11  1  0
 11 12  1  0
 12 13  1  0
 13 14  1  0
 13 15  1  6
 14 28  1  0
 15 33  2  0
 16 17  2  0
 17 29  1  0
 18 31  2  0
 19 30  2  0
 20 19  1  0
 21 22  2  0
 23 22  1  0
 24 32  2  0
 25 24  1  0
 27 26  1  0
 27  4  1  0
 29 18  1  0
  2 26  2  0
  4  6  2  0
  7  8  2  0
  9 34  2  0
 15 16  1  0
 17 32  1  0
 18 30  1  0
 19 21  1  0
 22 31  1  0
 24 33  1  0
M  END
>  <rmsd>  (1) 
0.249007717

$$$$
