MolPort-020-292-523 MCULE-5655694091 PubChem-110264991
     RDKit          3D

 32 35  0  0  0  0  0  0  0  0999 V2000
   17.5768   43.0314    8.3381 C   0  0  0  0  0  0  0  0  0  0  0  0
   16.2033   42.5715    8.0070 C   0  0  0  0  0  0  0  0  0  0  0  0
   15.5081   43.1575    6.9478 C   0  0  0  0  0  0  0  0  0  0  0  0
   14.2136   42.7183    6.6416 C   0  0  0  0  0  0  0  0  0  0  0  0
   13.6430   41.6982    7.4066 C   0  0  0  0  0  0  0  0  0  0  0  0
   14.3670   41.1338    8.4602 C   0  0  0  0  0  0  0  0  0  0  0  0
   13.7520   40.0428    9.2722 C   0  0  2  0  0  0  0  0  0  0  0  0
   13.6299   40.4630   10.7381 C   0  0  0  0  0  0  0  0  0  0  0  0
   12.9945   39.3439   11.5603 C   0  0  0  0  0  0  0  0  0  0  0  0
   13.8244   38.0694   11.4389 C   0  0  0  0  0  0  0  0  0  0  0  0
   14.5693   38.7572    9.1510 C   0  0  0  0  0  0  0  0  0  0  0  0
   13.5138   36.4996    9.4817 C   0  0  0  0  0  0  0  0  0  0  0  0
   13.1324   35.3662   10.3579 C   0  0  0  0  0  0  0  0  0  0  0  0
   14.0519   34.8053   11.2643 C   0  0  0  0  0  0  0  0  0  0  0  0
   13.6640   33.7402   12.0704 C   0  0  0  0  0  0  0  0  0  0  0  0
   12.3713   33.2300   11.9779 C   0  0  0  0  0  0  0  0  0  0  0  0
   11.8373   34.8138   10.2790 C   0  0  0  0  0  0  0  0  0  0  0  0
   10.1299   33.2169   10.9901 C   0  0  0  0  0  0  0  0  0  0  0  0
   12.0014   32.0879   12.8676 C   0  0  0  0  0  0  0  0  0  0  0  0
   15.4627   35.2826   11.3601 C   0  0  0  0  0  0  0  0  0  0  0  0
   13.8512   44.3279    4.6701 C   0  0  0  0  0  0  0  0  0  0  0  0
   15.4467   45.9128    3.9152 C   0  0  0  0  0  0  0  0  0  0  0  0
   14.5615   46.3317    2.9211 C   0  0  0  0  0  0  0  0  0  0  0  0
   12.9679   44.7500    3.6740 C   0  0  0  0  0  0  0  0  0  0  0  0
   15.6246   41.5802    8.7354 N   0  0  0  0  0  0  0  0  0  0  0  0
   14.0037   37.7355   10.0273 N   0  0  0  0  0  0  0  0  0  0  0  0
   11.4808   33.7652   11.0857 N   0  0  0  0  0  0  0  0  0  0  0  0
   13.4506   43.2820    5.5654 N   0  0  0  0  0  0  0  0  0  0  0  0
   15.0727   44.9217    4.7665 N   0  0  0  0  0  0  0  0  0  0  0  0
   13.3414   45.7413    2.8222 N   0  0  0  0  0  0  0  0  0  0  0  0
   13.3839   36.3754    8.2334 O   0  0  0  0  0  0  0  0  0  0  0  0
   10.9996   35.2985    9.4667 O   0  0  0  0  0  0  0  0  0  0  0  0
  1  2  1  0
  2 25  2  0
  3  4  2  0
  4 28  1  0
  5  6  2  0
  7  6  1  6
  7  8  1  0
  8  9  1  0
  9 10  1  0
 10 26  1  0
 11 26  1  0
 11  7  1  0
 12 13  1  0
 14 15  1  0
 16 27  1  0
 17 13  1  0
 18 27  1  0
 19 16  1  0
 20 14  1  0
 22 29  2  0
 23 30  2  0
 24 21  2  0
 26 12  1  0
 27 17  1  0
 28 21  1  0
  2  3  1  0
  4  5  1  0
  6 25  1  0
 12 31  2  0
 13 14  2  0
 15 16  2  0
 17 32  2  0
 21 29  1  0
 22 23  1  0
 24 30  1  0
M  END
>  <rmsd>  (1) 
0.242873982

$$$$
