MolPort-002-631-803 2596191 PubChem-2006365 ZINC000002596191 ZINC02596191
     RDKit          3D

 28 31  0  0  0  0  0  0  0  0999 V2000
   12.8217   39.0250   11.4853 C   0  0  0  0  0  0  0  0  0  0  0  0
   14.3138   39.2219   11.2941 C   0  0  0  0  0  0  0  0  0  0  0  0
   14.5984   39.8243    9.9302 C   0  0  0  0  0  0  0  0  0  0  0  0
   14.2513   41.3047    9.9209 C   0  0  0  0  0  0  0  0  0  0  0  0
   14.2053   42.8080    6.6791 C   0  0  0  0  0  0  0  0  0  0  0  0
   14.0039   44.2176    4.5597 C   0  0  0  0  0  0  0  0  0  0  0  0
   13.2747   44.4142    3.2947 C   0  0  0  0  0  0  0  0  0  0  0  0
   12.0935   43.7021    3.0397 C   0  0  0  0  0  0  0  0  0  0  0  0
   11.4019   43.8863    1.8387 C   0  0  0  0  0  0  0  0  0  0  0  0
   11.8868   44.7839    0.8837 C   0  0  0  0  0  0  0  0  0  0  0  0
   13.0633   45.4971    1.1291 C   0  0  0  0  0  0  0  0  0  0  0  0
   13.7548   45.3128    2.3300 C   0  0  0  0  0  0  0  0  0  0  0  0
   15.5727   42.6164    6.8011 C   0  0  0  0  0  0  0  0  0  0  0  0
   16.6608   42.8237    5.9593 C   0  0  0  0  0  0  0  0  0  0  0  0
   17.9243   42.4476    6.4468 C   0  0  0  0  0  0  0  0  0  0  0  0
   19.0656   42.6375    5.6652 C   0  0  0  0  0  0  0  0  0  0  0  0
   20.3238   42.2622    6.1485 C   0  0  0  0  0  0  0  0  0  0  0  0
   22.7605   42.1179    5.7473 C   0  0  0  0  0  0  0  0  0  0  0  0
   20.4349   41.6899    7.4278 C   0  0  0  0  0  0  0  0  0  0  0  0
   19.3010   41.4920    8.2210 C   0  0  0  0  0  0  0  0  0  0  0  0
   18.0427   41.8652    7.7460 C   0  0  0  0  0  0  0  0  0  0  0  0
   15.7249   42.0426    8.0294 C   0  0  0  0  0  0  0  0  0  0  0  0
   14.5255   41.8784    8.6120 N   0  0  0  0  0  0  0  0  0  0  0  0
   13.5877   42.3383    7.7912 N   0  0  0  0  0  0  0  0  0  0  0  0
   13.4885   43.3157    5.5471 N   0  0  0  0  0  0  0  0  0  0  0  0
   16.9328   41.6638    8.5177 N   0  0  0  0  0  0  0  0  0  0  0  0
   15.0525   44.8795    4.7880 O   0  0  0  0  0  0  0  0  0  0  0  0
   21.4449   42.4678    5.3397 O   0  0  0  0  0  0  0  0  0  0  0  0
  1  2  1  0
  2  3  1  0
  3  4  1  0
  4 23  1  0
  5 25  1  0
  5 13  1  0
  6  7  1  0
  8  9  2  0
 10 11  2  0
 12  7  2  0
 14 15  2  0
 16 17  2  0
 17 28  1  0
 18 28  1  0
 19 20  2  0
 21 26  2  0
 21 15  1  0
 22 23  1  0
 22 13  2  0
 23 24  1  0
 25  6  1  0
  5 24  2  0
  6 27  2  0
  7  8  1  0
  9 10  1  0
 11 12  1  0
 13 14  1  0
 15 16  1  0
 17 19  1  0
 20 21  1  0
 22 26  1  0
M  END
>  <rmsd>  (1) 
0.19753395

$$$$
