MolPort-007-714-547 ChemDiv-E002-1882 MCULE-4277690371 PubChem-22510851 ZINC000006780255 ZINC06780255
     RDKit          3D

 29 31  0  0  0  0  0  0  0  0999 V2000
   16.7043   50.1584   -2.0695 C   0  0  0  0  0  0  0  0  0  0  0  0
   15.4716   50.5404   -1.2770 C   0  0  0  0  0  0  0  0  0  0  0  0
   13.9812   48.8331   -0.3118 C   0  0  0  0  0  0  0  0  0  0  0  0
   13.7445   47.7926    0.7020 C   0  0  0  0  0  0  0  0  0  0  0  0
   12.5365   47.0817    0.7259 C   0  0  0  0  0  0  0  0  0  0  0  0
   12.3173   46.0944    1.6908 C   0  0  0  0  0  0  0  0  0  0  0  0
   13.2996   45.8042    2.6431 C   0  0  0  0  0  0  0  0  0  0  0  0
   13.9126   44.3486    4.6638 C   0  0  0  0  0  0  0  0  0  0  0  0
   14.2337   42.7729    6.6289 C   0  0  0  0  0  0  0  0  0  0  0  0
   15.1333   41.6012    8.5168 C   0  0  0  0  0  0  0  0  0  0  0  0
   16.9021   40.5573    9.9237 C   0  0  0  0  0  0  0  0  0  0  0  0
   17.5121   39.5009    9.0206 C   0  0  0  0  0  0  0  0  0  0  0  0
   14.5001   40.0246   10.3909 C   0  0  0  0  0  0  0  0  0  0  0  0
   13.2231   40.5699   10.6032 C   0  0  0  0  0  0  0  0  0  0  0  0
   12.2810   39.8947   11.3842 C   0  0  0  0  0  0  0  0  0  0  0  0
   12.6083   38.6697   11.9698 C   0  0  0  0  0  0  0  0  0  0  0  0
   13.8786   38.1217   11.7774 C   0  0  0  0  0  0  0  0  0  0  0  0
   14.8201   38.7974   10.9959 C   0  0  0  0  0  0  0  0  0  0  0  0
   14.5084   46.5154    2.6194 C   0  0  0  0  0  0  0  0  0  0  0  0
   14.7290   47.5027    1.6552 C   0  0  0  0  0  0  0  0  0  0  0  0
   15.1920   49.5305   -0.3190 O   0  0  0  0  0  0  0  0  0  0  0  0
   13.0930   49.0922   -1.1706 O   0  0  0  0  0  0  0  0  0  0  0  0
   15.0513   44.8693    4.8103 O   0  0  0  0  0  0  0  0  0  0  0  0
   13.0365   44.7842    3.6165 N   0  0  0  0  0  0  0  0  0  0  0  0
   13.4714   43.3099    5.5435 N   0  0  0  0  0  0  0  0  0  0  0  0
   15.4805   43.1768    6.9575 N   0  0  0  0  0  0  0  0  0  0  0  0
   15.9826   42.5209    8.0023 N   0  0  0  0  0  0  0  0  0  0  0  0
   15.4863   40.7313    9.6096 N   0  0  0  0  0  0  0  0  0  0  0  0
   13.6860   41.5486    7.6427 S   0  0  0  0  0  0  0  0  0  0  0  0
  1  2  1  0
  2 21  1  0
  3 21  1  0
  3  4  1  0
  5  6  2  0
  7 24  1  0
  7 19  2  0
  8 25  1  0
  9 29  1  0
 10 29  1  0
 10 28  1  0
 11 28  1  0
 11 12  1  0
 14 15  2  0
 16 17  2  0
 18 13  2  0
 20  4  2  0
 24  8  1  0
 25  9  1  0
 26 27  1  0
 28 13  1  0
  3 22  2  0
  4  5  1  0
  6  7  1  0
  8 23  2  0
  9 26  2  0
 10 27  2  0
 13 14  1  0
 15 16  1  0
 17 18  1  0
 19 20  1  0
M  END
>  <rmsd>  (1) 
0.210265219

$$$$
