MolPort-008-289-815 19239352 MCULE-6904891206 PubChem-46971364 ZINC000019239352 ZINC19239352
     RDKit          3D

 28 31  0  0  0  0  0  0  0  0999 V2000
    7.7523   43.8827    2.0222 C   0  0  0  0  0  0  0  0  0  0  0  0
    9.1366   44.1167    2.5086 C   0  0  0  0  0  0  0  0  0  0  0  0
    9.6709   43.3329    3.5501 C   0  0  0  0  0  0  0  0  0  0  0  0
   11.6752   44.5311    3.4150 C   0  0  0  0  0  0  0  0  0  0  0  0
   12.9614   44.9316    3.6882 C   0  0  0  0  0  0  0  0  0  0  0  0
   13.1960   45.9751    2.7904 C   0  0  0  0  0  0  0  0  0  0  0  0
    9.9311   45.1206    1.9386 C   0  0  0  0  0  0  0  0  0  0  0  0
   13.8939   44.3985    4.6907 C   0  0  0  0  0  0  0  0  0  0  0  0
   14.2736   42.6905    6.5578 C   0  0  0  0  0  0  0  0  0  0  0  0
   15.8597   41.8914    8.1689 C   0  0  0  0  0  0  0  0  0  0  0  0
   16.9958   41.6024    9.0906 C   0  0  0  0  0  0  0  0  0  0  0  0
   17.0985   42.6718   10.1757 C   0  0  0  0  0  0  0  0  0  0  0  0
   16.1110   42.5193   11.2990 C   0  0  0  0  0  0  0  0  0  0  0  0
   16.0642   43.5142   12.2805 C   0  0  0  0  0  0  0  0  0  0  0  0
   15.1671   43.4136   13.3473 C   0  0  0  0  0  0  0  0  0  0  0  0
   14.3105   42.3136   13.4402 C   0  0  0  0  0  0  0  0  0  0  0  0
   14.3464   41.3077   12.4698 C   0  0  0  0  0  0  0  0  0  0  0  0
   15.2513   41.4139   11.4016 C   0  0  0  0  0  0  0  0  0  0  0  0
   13.4431   39.1589   11.6436 C   0  0  0  0  0  0  0  0  0  0  0  0
   10.9431   43.5485    3.9964 N   0  0  0  0  0  0  0  0  0  0  0  0
   12.0847   46.1638    2.0321 N   0  0  0  0  0  0  0  0  0  0  0  0
   11.1835   45.2822    2.4275 N   0  0  0  0  0  0  0  0  0  0  0  0
   13.4868   43.3155    5.5369 N   0  0  0  0  0  0  0  0  0  0  0  0
   13.8024   41.6725    7.3091 N   0  0  0  0  0  0  0  0  0  0  0  0
   14.6826   41.2299    8.2054 N   0  0  0  0  0  0  0  0  0  0  0  0
   15.0443   44.9019    4.7943 O   0  0  0  0  0  0  0  0  0  0  0  0
   13.4774   40.2197   12.5886 O   0  0  0  0  0  0  0  0  0  0  0  0
   15.8545   43.0962    6.9920 S   0  0  0  0  0  0  0  0  0  0  0  0
  1  2  1  0
  2  3  1  0
  4 20  1  0
  5  6  1  0
  5  8  1  0
  8 23  1  0
  9 28  1  0
 10 28  1  0
 11 10  1  0
 11 12  1  0
 12 13  1  0
 14 15  2  0
 16 17  2  0
 17 27  1  0
 18 13  2  0
 19 27  1  0
 22 21  1  0
 22  7  1  0
 22  4  1  0
 23  9  1  0
 24 25  1  0
  3 20  2  0
  4  5  2  0
  6 21  2  0
  7  2  2  0
  8 26  2  0
  9 24  2  0
 10 25  2  0
 13 14  1  0
 15 16  1  0
 17 18  1  0
M  END
>  <rmsd>  (1) 
0.247687578

$$$$
