MolPort-021-744-327 LN00413324 MCULE-3927398453
     RDKit          3D

 27 30  0  0  0  0  0  0  0  0999 V2000
   12.2397   38.5163   11.0295 C   0  0  0  0  0  0  0  0  0  0  0  0
   13.5398   39.3049   10.9586 C   0  0  0  0  0  0  0  0  0  0  0  0
   14.6876   38.3147   10.8971 C   0  0  0  0  0  0  0  0  0  0  0  0
   13.6679   40.1199   12.2319 C   0  0  0  0  0  0  0  0  0  0  0  0
   13.6033   40.2270    9.7605 C   0  0  0  0  0  0  0  0  0  0  0  0
   12.5319   40.3072    8.8259 C   0  0  0  0  0  0  0  0  0  0  0  0
   12.6098   41.1735    7.7210 C   0  0  0  0  0  0  0  0  0  0  0  0
   13.7693   41.9263    7.6043 C   0  0  0  0  0  0  0  0  0  0  0  0
   14.2078   42.8581    6.7018 C   0  0  0  0  0  0  0  0  0  0  0  0
   13.9296   44.3176    4.6426 C   0  0  0  0  0  0  0  0  0  0  0  0
   13.0395   44.7416    3.5226 C   0  0  0  0  0  0  0  0  0  0  0  0
   11.9508   45.6815    4.0298 C   0  0  0  0  0  0  0  0  0  0  0  0
   10.8141   44.9574    4.6890 C   0  0  0  0  0  0  0  0  0  0  0  0
    9.0823   44.6166    5.8354 C   0  0  0  0  0  0  0  0  0  0  0  0
    7.9476   44.6894    6.6353 C   0  0  0  0  0  0  0  0  0  0  0  0
    7.2921   43.4775    6.9201 C   0  0  0  0  0  0  0  0  0  0  0  0
    7.7953   42.2631    6.3976 C   0  0  0  0  0  0  0  0  0  0  0  0
    9.5344   43.4330    5.3535 C   0  0  0  0  0  0  0  0  0  0  0  0
   14.7807   41.8328    8.5064 C   0  0  0  0  0  0  0  0  0  0  0  0
   13.4805   43.3122    5.5576 N   0  0  0  0  0  0  0  0  0  0  0  0
    9.8780   45.6142    5.4263 N   0  0  0  0  0  0  0  0  0  0  0  0
    8.9173   42.2548    5.6158 N   0  0  0  0  0  0  0  0  0  0  0  0
   10.6353   43.6079    4.6140 N   0  0  0  0  0  0  0  0  0  0  0  0
   15.4378   43.2914    7.0702 N   0  0  0  0  0  0  0  0  0  0  0  0
   15.7936   42.6576    8.1865 N   0  0  0  0  0  0  0  0  0  0  0  0
   14.7209   41.0026    9.5755 N   0  0  0  0  0  0  0  0  0  0  0  0
   15.0554   44.8662    4.7817 O   0  0  0  0  0  0  0  0  0  0  0  0
  1  2  1  0
  2  3  1  0
  2  4  1  0
  2  5  1  0
  5 26  2  0
  6  7  2  0
  8  9  1  0
  9 20  1  0
 11 10  1  0
 11 12  1  0
 12 13  1  0
 14 21  1  0
 15 16  2  0
 17 22  2  0
 18 23  1  0
 18 14  2  0
 19  8  2  0
 20 10  1  0
 23 13  1  0
 25 24  1  0
 25 19  1  0
  5  6  1  0
  7  8  1  0
  9 24  2  0
 10 27  2  0
 13 21  2  0
 14 15  1  0
 16 17  1  0
 18 22  1  0
 19 26  1  0
M  END
>  <rmsd>  (1) 
0.247198731

$$$$
