MolPort-007-776-367 ChemDiv-E957-1576 MCULE-1285197482 PubChem-20926064 ZINC000009265415
     RDKit          3D

 33 36  0  0  0  0  0  0  0  0999 V2000
   14.2704   41.4301    7.0952 C   0  0  0  0  0  0  0  0  0  0  0  0
   13.4365   40.3429    6.5384 C   0  0  0  0  0  0  0  0  0  0  0  0
   13.6344   38.8919    8.6112 C   0  0  0  0  0  0  0  0  0  0  0  0
   12.6004   39.6158    9.4822 C   0  0  0  0  0  0  0  0  0  0  0  0
   12.9360   38.1506   11.3428 C   0  0  0  0  0  0  0  0  0  0  0  0
   14.1848   40.1455   11.1923 C   0  0  0  0  0  0  0  0  0  0  0  0
   12.7998   37.9082    6.4831 C   0  0  0  0  0  0  0  0  0  0  0  0
   13.8088   37.4131    5.5028 C   0  0  0  0  0  0  0  0  0  0  0  0
   14.8368   36.5449    5.7939 C   0  0  0  0  0  0  0  0  0  0  0  0
   15.5181   36.3964    4.5981 C   0  0  0  0  0  0  0  0  0  0  0  0
   14.8624   37.1845    3.6670 C   0  0  0  0  0  0  0  0  0  0  0  0
   15.6575   42.4420    8.3569 C   0  0  0  0  0  0  0  0  0  0  0  0
   15.2166   43.3917    7.4692 C   0  0  0  0  0  0  0  0  0  0  0  0
   15.6244   44.7221    7.5558 C   0  0  0  0  0  0  0  0  0  0  0  0
   16.5410   45.0587    8.5678 C   0  0  0  0  0  0  0  0  0  0  0  0
   17.0122   44.0760    9.4649 C   0  0  0  0  0  0  0  0  0  0  0  0
   16.5659   42.7459    9.3680 C   0  0  0  0  0  0  0  0  0  0  0  0
   14.3285   42.7439    6.6341 C   0  0  0  0  0  0  0  0  0  0  0  0
   13.8391   44.4517    4.7998 C   0  0  0  0  0  0  0  0  0  0  0  0
   12.7969   45.0898    3.9771 C   0  0  0  0  0  0  0  0  0  0  0  0
   13.1041   46.2005    3.1768 C   0  0  0  0  0  0  0  0  0  0  0  0
   12.1138   46.8058    2.3975 C   0  0  0  0  0  0  0  0  0  0  0  0
   10.8091   46.3053    2.4132 C   0  0  0  0  0  0  0  0  0  0  0  0
   10.4944   45.1999    3.2080 C   0  0  0  0  0  0  0  0  0  0  0  0
   11.4846   44.5945    3.9872 C   0  0  0  0  0  0  0  0  0  0  0  0
    9.7564   46.9488    1.5849 C   0  0  0  0  0  0  0  0  0  0  0  0
   12.8278   40.5343    5.4506 O   0  0  0  0  0  0  0  0  0  0  0  0
   13.8475   37.7774    4.2477 O   0  0  0  0  0  0  0  0  0  0  0  0
   15.0921   41.2820    8.1199 O   0  0  0  0  0  0  0  0  0  0  0  0
   15.0213   44.8882    4.7641 O   0  0  0  0  0  0  0  0  0  0  0  0
   13.3163   39.0674    7.2002 N   0  0  0  0  0  0  0  0  0  0  0  0
   12.8886   39.5422   10.9184 N   0  0  0  0  0  0  0  0  0  0  0  0
   13.5159   43.3036    5.5936 N   0  0  0  0  0  0  0  0  0  0  0  0
  1  2  1  0
  1 29  1  0
  2 31  1  0
  3 31  1  0
  3  4  1  0
  4 32  1  0
  5 32  1  0
  6 32  1  0
  7 31  1  0
  7  8  1  0
  8 28  1  0
  9 10  1  0
 11 28  1  0
 12 29  1  0
 13 14  2  0
 13 18  1  0
 15 16  2  0
 17 12  2  0
 18 33  1  0
 19 20  1  0
 21 22  2  0
 23 24  2  0
 25 20  2  0
 26 23  1  0
 33 19  1  0
  2 27  2  0
  8  9  2  0
 10 11  2  0
 12 13  1  0
 14 15  1  0
 16 17  1  0
 18  1  2  0
 19 30  2  0
 20 21  1  0
 22 23  1  0
 24 25  1  0
M  END
>  <rmsd>  (1) 
0.165868118

$$$$
