MolPort-016-719-737 19716250 MCULE-2089122661 PubChem-46976687 ZINC000019716250
     RDKit          3D

 28 31  0  0  0  0  0  0  0  0999 V2000
   13.1238   39.6138   11.9036 C   0  0  0  0  0  0  0  0  0  0  0  0
   13.2187   38.8966   10.5694 C   0  0  0  0  0  0  0  0  0  0  0  0
   14.7350   40.4237    9.3252 C   0  0  0  0  0  0  0  0  0  0  0  0
   15.8562   40.0883   10.1135 C   0  0  0  0  0  0  0  0  0  0  0  0
   17.1034   40.7003    9.8870 C   0  0  0  0  0  0  0  0  0  0  0  0
   17.2530   41.6553    8.8706 C   0  0  0  0  0  0  0  0  0  0  0  0
   16.1351   41.9709    8.1042 C   0  0  0  0  0  0  0  0  0  0  0  0
   14.3684   42.7213    6.6096 C   0  0  0  0  0  0  0  0  0  0  0  0
   13.8908   44.3291    4.6818 C   0  0  0  0  0  0  0  0  0  0  0  0
   12.9418   44.7117    3.5982 C   0  0  0  0  0  0  0  0  0  0  0  0
   12.9149   43.6465    2.5075 C   0  0  0  0  0  0  0  0  0  0  0  0
   14.5556   44.6290    0.9871 C   0  0  0  0  0  0  0  0  0  0  0  0
   16.5385   43.5260    0.4550 C   0  0  0  0  0  0  0  0  0  0  0  0
   16.2081   42.4783    1.2440 C   0  0  0  0  0  0  0  0  0  0  0  0
   17.2516   41.5741    1.1476 C   0  0  0  0  0  0  0  0  0  0  0  0
   18.4420   44.1720   -1.0272 C   0  0  0  0  0  0  0  0  0  0  0  0
   15.0087   42.4863    1.9410 C   0  0  0  0  0  0  0  0  0  0  0  0
   14.8995   41.3764    8.3149 C   0  0  0  0  0  0  0  0  0  0  0  0
   13.4836   39.8274    9.5252 O   0  0  0  0  0  0  0  0  0  0  0  0
   15.0093   44.9028    4.7514 O   0  0  0  0  0  0  0  0  0  0  0  0
   14.6861   41.5164    2.6803 O   0  0  0  0  0  0  0  0  0  0  0  0
   16.0175   43.0587    6.8335 S   0  0  0  0  0  0  0  0  0  0  0  0
   13.5238   43.3000    5.6079 N   0  0  0  0  0  0  0  0  0  0  0  0
   14.1926   43.5829    1.8034 N   0  0  0  0  0  0  0  0  0  0  0  0
   15.7397   44.6086    0.3039 N   0  0  0  0  0  0  0  0  0  0  0  0
   18.1694   42.1177    0.3015 N   0  0  0  0  0  0  0  0  0  0  0  0
   17.7271   43.3000   -0.1121 N   0  0  0  0  0  0  0  0  0  0  0  0
   13.9108   41.7905    7.4808 N   0  0  0  0  0  0  0  0  0  0  0  0
  1  2  1  0
  2 19  1  0
  3 19  1  0
  4  5  2  0
  6  7  2  0
  7 22  1  0
  8 22  1  0
  8 23  1  0
 10  9  1  0
 10 11  1  0
 11 24  1  0
 13 25  1  0
 14 15  1  0
 14 17  1  0
 16 27  1  0
 17 24  1  0
 18 28  1  0
 18  3  2  0
 23  9  1  0
 24 12  1  0
 27 26  1  0
 27 13  1  0
  3  4  1  0
  5  6  1  0
  8 28  2  0
  9 20  2  0
 12 25  2  0
 13 14  2  0
 15 26  2  0
 17 21  2  0
 18  7  1  0
M  END
>  <rmsd>  (1) 
0.228268906

$$$$
