MolPort-020-293-084 MCULE-8317610416 PubChem-110265551
     RDKit          3D

 33 36  0  0  0  0  0  0  0  0999 V2000
   20.7964   39.4511   13.2611 C   0  0  0  0  0  0  0  0  0  0  0  0
   20.4867   38.1234   12.6019 C   0  0  0  0  0  0  0  0  0  0  0  0
   18.1547   37.3272   12.3470 C   0  0  0  0  0  0  0  0  0  0  0  0
   16.9909   36.8158   12.9470 C   0  0  0  0  0  0  0  0  0  0  0  0
   15.8581   36.5563   12.1687 C   0  0  0  0  0  0  0  0  0  0  0  0
   15.8774   36.7916   10.7905 C   0  0  0  0  0  0  0  0  0  0  0  0
   17.0368   37.2890   10.1880 C   0  0  0  0  0  0  0  0  0  0  0  0
   18.1686   37.5569   10.9611 C   0  0  0  0  0  0  0  0  0  0  0  0
   14.6526   36.5188    9.9621 C   0  0  0  0  0  0  0  0  0  0  0  0
   13.2039   38.0470   11.1499 C   0  0  0  0  0  0  0  0  0  0  0  0
   13.7479   39.3747   11.6809 C   0  0  0  0  0  0  0  0  0  0  0  0
   13.4580   40.5019   10.6915 C   0  0  0  0  0  0  0  0  0  0  0  0
   13.6667   40.0785    9.2308 C   0  0  2  0  0  0  0  0  0  0  0  0
   14.4410   38.7644    9.1145 C   0  0  0  0  0  0  0  0  0  0  0  0
   14.3327   41.1651    8.4494 C   0  0  0  0  0  0  0  0  0  0  0  0
   14.2203   42.7297    6.6553 C   0  0  0  0  0  0  0  0  0  0  0  0
   15.5120   43.1830    6.9563 C   0  0  0  0  0  0  0  0  0  0  0  0
   16.2133   42.6133    8.0188 C   0  0  0  0  0  0  0  0  0  0  0  0
   15.6255   41.5985    8.7727 C   0  0  0  0  0  0  0  0  0  0  0  0
   13.8492   44.3217    4.6683 C   0  0  0  0  0  0  0  0  0  0  0  0
   15.4369   45.9032    3.9027 C   0  0  0  0  0  0  0  0  0  0  0  0
   14.5592   46.3182    2.9032 C   0  0  0  0  0  0  0  0  0  0  0  0
   13.3140   45.6983    2.8188 C   0  0  0  0  0  0  0  0  0  0  0  0
   12.3483   46.1110    1.7675 C   0  0  0  0  0  0  0  0  0  0  0  0
   16.7746   46.5378    4.0281 C   0  0  0  0  0  0  0  0  0  0  0  0
   16.9276   36.5823   14.4184 C   0  0  0  0  0  0  0  0  0  0  0  0
   19.2788   37.5987   13.1364 O   0  0  0  0  0  0  0  0  0  0  0  0
   16.4948   37.7422   15.0610 O   0  0  0  0  0  0  0  0  0  0  0  0
   13.7573   37.6756    9.8312 N   0  0  0  0  0  0  0  0  0  0  0  0
   13.6703   41.7375    7.4077 N   0  0  0  0  0  0  0  0  0  0  0  0
   13.4561   43.2813    5.5736 N   0  0  0  0  0  0  0  0  0  0  0  0
   15.0691   44.9184    4.7628 N   0  0  0  0  0  0  0  0  0  0  0  0
   12.9828   44.7165    3.6978 N   0  0  0  0  0  0  0  0  0  0  0  0
  1  2  1  0
  2 27  1  0
  3 27  1  0
  4  5  2  0
  6  7  2  0
  8  3  2  0
  9  6  1  0
  9 29  1  0
 10 29  1  0
 10 11  1  0
 11 12  1  0
 12 13  1  0
 13 14  1  0
 13 15  1  6
 14 29  1  0
 16 30  2  0
 16 31  1  0
 17 18  2  0
 19 15  2  0
 20 33  2  0
 21 32  2  0
 22 23  2  0
 24 23  1  0
 25 21  1  0
 26  4  1  0
 26 28  1  0
 31 20  1  0
  3  4  1  0
  5  6  1  0
  7  8  1  0
 15 30  1  0
 16 17  1  0
 18 19  1  0
 20 32  1  0
 21 22  1  0
 23 33  1  0
M  END
>  <rmsd>  (1) 
0.246802628

$$$$
