MolPort-028-723-381 76124863 CSC046086915 CSSS00046086915 MCULE-5292930431 PubChem-72847635 ZINC000076124863 ZINC76124863
     RDKit          3D

 25 27  0  0  0  0  0  0  0  0999 V2000
   15.0569   44.8884    4.7999 O   0  0  0  0  0  0  0  0  0  0  0  0
   17.4422   42.5163   -1.0493 O   0  0  0  0  0  0  0  0  0  0  0  0
   13.5911   40.1424    9.1761 O   0  0  0  0  0  0  0  0  0  0  0  0
   13.9228   44.3599    4.6437 C   0  0  0  0  0  0  0  0  0  0  0  0
   13.4734   45.7912    2.6019 C   0  0  0  0  0  0  0  0  0  0  0  0
   14.1221   45.1126    1.4065 C   0  0  0  0  0  0  0  0  0  0  0  0
   15.5466   44.6990    1.7324 C   0  0  0  0  0  0  0  0  0  0  0  0
   17.5523   44.3102    0.5865 C   0  0  0  0  0  0  0  0  0  0  0  0
   18.3221   43.3642   -0.3506 C   0  0  0  0  0  0  0  0  0  0  0  0
   16.8103   41.7072   -0.0860 C   0  0  0  0  0  0  0  0  0  0  0  0
   15.9480   42.5524    0.8667 C   0  0  0  0  0  0  0  0  0  0  0  0
   14.1924   42.7384    6.6112 C   0  0  0  0  0  0  0  0  0  0  0  0
   13.5751   41.7389    7.3711 C   0  0  0  0  0  0  0  0  0  0  0  0
   14.2442   41.1392    8.4432 C   0  0  0  0  0  0  0  0  0  0  0  0
   14.1678   39.5038   10.3104 C   0  0  0  0  0  0  0  0  0  0  0  0
   14.0650   40.4060   11.5316 C   0  0  0  0  0  0  0  0  0  0  0  0
   13.1123   39.7279   12.4927 C   0  0  0  0  0  0  0  0  0  0  0  0
   13.1419   38.2654   12.1206 C   0  0  0  0  0  0  0  0  0  0  0  0
   13.3857   38.2436   10.6291 C   0  0  0  0  0  0  0  0  0  0  0  0
   15.5513   41.5462    8.7543 C   0  0  0  0  0  0  0  0  0  0  0  0
   16.1757   42.5425    8.0005 C   0  0  0  0  0  0  0  0  0  0  0  0
   15.4987   43.1364    6.9326 C   0  0  0  0  0  0  0  0  0  0  0  0
   13.0657   44.8014    3.5895 N   0  0  0  0  0  0  0  0  0  0  0  0
   16.1236   43.9852    0.6067 N   0  0  0  0  0  0  0  0  0  0  0  0
   13.4670   43.3219    5.5203 N   0  0  0  0  0  0  0  0  0  0  0  0
  4 23  1  0
  4 25  1  0
  5 23  1  0
  5  6  1  0
  6  7  1  0
  7 24  1  0
  8 24  1  0
  8  9  1  0
  9  2  1  0
 10  2  1  0
 10 11  1  0
 11 24  1  0
 13 14  2  0
 14  3  1  0
 15  3  1  0
 15 16  1  0
 16 17  1  0
 17 18  1  0
 18 19  1  0
 19 15  1  0
 20 21  2  0
 22 12  2  0
 25 12  1  0
  4  1  2  0
 12 13  1  0
 14 20  1  0
 21 22  1  0
M  END
>  <rmsd>  (1) 
0.248678207

$$$$
