MolPort-002-865-767 5540775 CHEMBL1416512 CSSS00138423846 MCULE-2130640142 PubChem-3614254 ZINC000005540775 ZINC05540775
     RDKit          3D

 22 23  0  0  0  0  0  0  0  0999 V2000
   13.1590   40.7064   11.2819 C   0  0  0  0  0  0  0  0  0  0  0  0
   14.0635   39.4929   11.1728 C   0  0  0  0  0  0  0  0  0  0  0  0
   13.3150   38.2718   11.6632 C   0  0  0  0  0  0  0  0  0  0  0  0
   14.4835   39.2766    9.7275 C   0  0  0  0  0  0  0  0  0  0  0  0
   15.5222   40.2703    9.3129 C   0  0  0  0  0  0  0  0  0  0  0  0
   14.2829   42.6632    6.5115 C   0  0  0  0  0  0  0  0  0  0  0  0
   13.8844   44.4111    4.7138 C   0  0  0  0  0  0  0  0  0  0  0  0
   12.9502   44.9919    3.7334 C   0  0  0  0  0  0  0  0  0  0  0  0
   13.3447   46.0718    2.9292 C   0  0  0  0  0  0  0  0  0  0  0  0
   12.4574   46.6221    1.9994 C   0  0  0  0  0  0  0  0  0  0  0  0
   11.1694   46.0968    1.8669 C   0  0  0  0  0  0  0  0  0  0  0  0
   10.2263   46.6817    0.8786 C   0  0  0  0  0  0  0  0  0  0  0  0
   10.7681   45.0214    2.6640 C   0  0  0  0  0  0  0  0  0  0  0  0
   11.6553   44.4710    3.5938 C   0  0  0  0  0  0  0  0  0  0  0  0
   16.0660   42.1996    7.7920 C   0  0  0  0  0  0  0  0  0  0  0  0
   16.6528   40.2457    9.8696 O   0  0  0  0  0  0  0  0  0  0  0  0
   15.0467   44.8873    4.8313 O   0  0  0  0  0  0  0  0  0  0  0  0
   17.2427   42.3553    8.2138 O   0  0  0  0  0  0  0  0  0  0  0  0
   15.2387   41.2325    8.2852 N   0  0  0  0  0  0  0  0  0  0  0  0
   13.4678   43.3080    5.5289 N   0  0  0  0  0  0  0  0  0  0  0  0
   15.5578   43.0036    6.8089 N   0  0  0  0  0  0  0  0  0  0  0  0
   13.8023   41.3829    7.4599 S   0  0  0  0  0  0  0  0  0  0  0  0
  1  2  1  0
  2  3  1  0
  2  4  1  0
  4  5  1  0
  5 19  1  0
  6 22  1  0
  6 20  1  0
  7  8  1  0
  9 10  2  0
 11 13  2  0
 12 11  1  0
 14  8  2  0
 15 21  1  0
 15 19  1  0
 19 22  1  0
 20  7  1  0
  5 16  2  0
  6 21  2  0
  7 17  2  0
  8  9  1  0
 10 11  1  0
 13 14  1  0
 15 18  2  0
M  END
>  <rmsd>  (1) 
0.247356683

$$$$
