MolPort-047-073-941 MCULE-8308762370 PubChem-132767230
     RDKit          3D

 32 35  0  0  0  0  0  0  0  0999 V2000
   15.2414   45.8757    3.8181 C   0  0  0  0  0  0  0  0  0  0  0  0
   14.1768   46.0128    2.9201 C   0  0  0  0  0  0  0  0  0  0  0  0
   13.8977   44.2967    4.6677 C   0  0  0  0  0  0  0  0  0  0  0  0
   14.2104   42.6832    6.6060 C   0  0  0  0  0  0  0  0  0  0  0  0
   13.5986   41.7848    7.4774 C   0  0  0  0  0  0  0  0  0  0  0  0
   14.3653   41.2052    8.4886 C   0  0  0  0  0  0  0  0  0  0  0  0
   13.7321   40.2121    9.4061 C   0  0  2  0  0  0  0  0  0  0  0  0
   13.9783   40.5541   10.8774 C   0  0  0  0  0  0  0  0  0  0  0  0
   13.3142   39.5192   11.7936 C   0  0  0  0  0  0  0  0  0  0  0  0
   13.2847   38.1186   11.1709 C   0  0  0  0  0  0  0  0  0  0  0  0
   14.3740   36.5627    9.7973 C   0  0  0  0  0  0  0  0  0  0  0  0
   15.6864   35.9466   10.0145 C   0  0  0  0  0  0  0  0  0  0  0  0
   14.1772   38.7803    9.0550 C   0  0  0  0  0  0  0  0  0  0  0  0
   16.2686   42.3861    7.7373 C   0  0  0  0  0  0  0  0  0  0  0  0
   17.7120   42.7048    7.8708 C   0  0  0  0  0  0  0  0  0  0  0  0
   16.4491   46.7097    3.7520 C   0  0  0  0  0  0  0  0  0  0  0  0
   18.6581   47.3897    4.7898 C   0  0  0  0  0  0  0  0  0  0  0  0
   18.3018   48.6448    5.5141 C   0  0  0  0  0  0  0  0  0  0  0  0
   18.0190   49.8143    4.7973 C   0  0  0  0  0  0  0  0  0  0  0  0
   17.6615   50.9844    5.4777 C   0  0  0  0  0  0  0  0  0  0  0  0
   17.5829   50.9850    6.8747 C   0  0  0  0  0  0  0  0  0  0  0  0
   17.8605   49.8160    7.5918 C   0  0  0  0  0  0  0  0  0  0  0  0
   18.2179   48.6459    6.9122 C   0  0  0  0  0  0  0  0  0  0  0  0
   13.0059   44.8896    3.3810 S   0  0  0  0  0  0  0  0  0  0  0  0
   13.4366   43.2741    5.5555 N   0  0  0  0  0  0  0  0  0  0  0  0
   14.4036   37.9455   10.2448 N   0  0  0  0  0  0  0  0  0  0  0  0
   16.7268   35.4642   10.1961 N   0  0  0  0  0  0  0  0  0  0  0  0
   15.6861   41.5103    8.5961 N   0  0  0  0  0  0  0  0  0  0  0  0
   15.5335   42.9637    6.7507 N   0  0  0  0  0  0  0  0  0  0  0  0
   15.0836   44.9293    4.7841 N   0  0  0  0  0  0  0  0  0  0  0  0
   17.4980   46.5134    4.7052 N   0  0  0  0  0  0  0  0  0  0  0  0
   16.5563   47.5980    2.8630 O   0  0  0  0  0  0  0  0  0  0  0  0
  1 16  1  0
  1 30  1  0
  2 24  1  0
  3 24  1  0
  3 25  1  0
  4 29  2  0
  5  6  2  0
  7  6  1  6
  7  8  1  0
  8  9  1  0
  9 10  1  0
 10 26  1  0
 11 26  1  0
 11 12  1  0
 13 26  1  0
 13  7  1  0
 14 28  2  0
 15 14  1  0
 16 31  1  0
 17 31  1  0
 17 18  1  0
 19 20  2  0
 21 22  2  0
 23 18  2  0
 25  4  1  0
  1  2  2  0
  3 30  2  0
  4  5  1  0
  6 28  1  0
 14 29  1  0
 16 32  2  0
 18 19  1  0
 20 21  1  0
 22 23  1  0
 12 27  3  0
M  END
>  <rmsd>  (1) 
0.249228641

$$$$
