Molport-020-279-144 MCULE-4800752544 PubChem-110255898
     RDKit          3D

 26 28  0  0  0  0  0  0  0  0999 V2000
   11.5934   44.1380    3.5362 C   0  0  0  0  0  0  0  0  0  0  0  0
   12.9449   44.7504    3.6754 C   0  0  0  0  0  0  0  0  0  0  0  0
   13.8422   44.3276    4.6703 C   0  0  0  0  0  0  0  0  0  0  0  0
   15.4530   45.9107    3.9124 C   0  0  0  0  0  0  0  0  0  0  0  0
   14.5858   46.3542    2.9138 C   0  0  0  0  0  0  0  0  0  0  0  0
   13.3257   45.7679    2.7984 C   0  0  0  0  0  0  0  0  0  0  0  0
   14.2301   42.7345    6.6578 C   0  0  0  0  0  0  0  0  0  0  0  0
   14.3821   41.1704    8.4328 C   0  0  0  0  0  0  0  0  0  0  0  0
   16.1943   42.6358    8.0379 C   0  0  0  0  0  0  0  0  0  0  0  0
   15.5065   43.2128    6.9728 C   0  0  0  0  0  0  0  0  0  0  0  0
   17.5521   43.1217    8.3959 C   0  0  0  0  0  0  0  0  0  0  0  0
   13.7608   40.0610    9.2141 C   0  0  2  0  0  0  0  0  0  0  0  0
   13.5830   40.4652   10.6790 C   0  0  0  0  0  0  0  0  0  0  0  0
   12.9441   39.3263   11.4707 C   0  0  0  0  0  0  0  0  0  0  0  0
   13.8074   38.0728   11.3682 C   0  0  0  0  0  0  0  0  0  0  0  0
   14.6026   38.7898    9.1044 C   0  0  0  0  0  0  0  0  0  0  0  0
   13.6877   36.4685    9.4228 C   0  0  0  0  0  0  0  0  0  0  0  0
   13.1185   35.3988   10.2946 C   0  0  0  0  0  0  0  0  0  0  0  0
   13.5749   33.5968   11.6981 C   0  0  0  0  0  0  0  0  0  0  0  0
   15.0673   44.9187    4.7588 N   0  0  0  0  0  0  0  0  0  0  0  0
   13.4597   43.2815    5.5780 N   0  0  0  0  0  0  0  0  0  0  0  0
   13.6988   41.7248    7.3969 N   0  0  0  0  0  0  0  0  0  0  0  0
   15.6245   41.6284    8.7474 N   0  0  0  0  0  0  0  0  0  0  0  0
   14.0344   37.7529    9.9610 N   0  0  0  0  0  0  0  0  0  0  0  0
   14.1942   34.5949   10.8464 N   0  0  0  0  0  0  0  0  0  0  0  0
   13.8882   36.2174    8.2043 O   0  0  0  0  0  0  0  0  0  0  0  0
  1  2  1  0
  3 20  2  0
  3 21  1  0
  4  5  2  0
  6  2  2  0
  8 22  2  0
  9 23  2  0
 10  7  2  0
 11  9  1  0
 12  8  1  6
 12 13  1  0
 13 14  1  0
 14 15  1  0
 15 24  1  0
 16 24  1  0
 16 12  1  0
 18 17  1  0
 18 25  1  0
 19 25  1  0
 21  7  1  0
 24 17  1  0
  2  3  1  0
  4 20  1  0
  5  6  1  0
  7 22  1  0
  8 23  1  0
  9 10  1  0
 17 26  2  0
M  END
>  <rmsd>  (1) 
0.243789032

$$$$
