MolPort-005-074-788 CSSS09880945578 MCULE-8079263191 PubChem-45207808
     RDKit          3D

 29 32  0  0  0  0  0  0  0  0999 V2000
   16.2678   41.8362    2.6939 C   0  0  0  0  0  0  0  0  0  0  0  0
   16.2929   42.0001    5.1500 C   0  0  0  0  0  0  0  0  0  0  0  0
   15.5745   42.2238    6.4155 C   0  0  0  0  0  0  0  0  0  0  0  0
   14.2803   42.7520    6.5840 C   0  0  0  0  0  0  0  0  0  0  0  0
   13.9260   44.3276    4.6370 C   0  0  0  0  0  0  0  0  0  0  0  0
   13.0684   44.7252    3.4801 C   0  0  0  0  0  0  0  0  0  0  0  0
   11.7085   45.1825    3.9761 C   0  0  0  0  0  0  0  0  0  0  0  0
   12.7416   46.2055    3.5625 C   0  0  0  0  0  0  0  0  0  0  0  0
   13.8426   42.6903    7.9111 C   0  0  0  0  0  0  0  0  0  0  0  0
   12.6143   43.1188    8.4138 C   0  0  0  0  0  0  0  0  0  0  0  0
   12.3738   42.9813    9.7896 C   0  0  0  0  0  0  0  0  0  0  0  0
   13.3656   42.4268   10.6236 C   0  0  0  0  0  0  0  0  0  0  0  0
   13.1055   42.2621   12.0815 C   0  0  0  0  0  0  0  0  0  0  0  0
   11.3772   41.4492   13.4509 C   0  0  0  0  0  0  0  0  0  0  0  0
   12.9696   39.8867   12.6389 C   0  0  1  0  0  0  0  0  0  0  0  0
   13.4914   39.2053   11.3845 C   0  0  0  0  0  0  0  0  0  0  0  0
   14.0393   40.0322   13.6915 C   0  0  0  0  0  0  0  0  0  0  0  0
   13.9377   39.5523   14.9862 C   0  0  0  0  0  0  0  0  0  0  0  0
   15.0951   39.7824   15.7443 C   0  0  0  0  0  0  0  0  0  0  0  0
   16.1172   40.4314   15.0552 C   0  0  0  0  0  0  0  0  0  0  0  0
   14.7827   42.1559    8.7703 C   0  0  0  0  0  0  0  0  0  0  0  0
   15.6110   42.0530    3.9334 O   0  0  0  0  0  0  0  0  0  0  0  0
   17.5232   41.7224    5.1763 O   0  0  0  0  0  0  0  0  0  0  0  0
   15.0491   44.8771    4.8017 O   0  0  0  0  0  0  0  0  0  0  0  0
   13.4742   43.3134    5.5412 N   0  0  0  0  0  0  0  0  0  0  0  0
   12.2266   41.1184   12.3178 N   0  0  0  0  0  0  0  0  0  0  0  0
   14.5585   42.0199   10.1000 N   0  0  0  0  0  0  0  0  0  0  0  0
   15.5624   40.7132   13.4929 S   0  0  0  0  0  0  0  0  0  0  0  0
   16.1642   41.7236    7.9272 S   0  0  0  0  0  0  0  0  0  0  0  0
  1 22  1  0
  2 22  1  0
  2  3  1  0
  3 29  1  0
  4 25  1  0
  4  9  1  0
  6  5  1  0
  6  7  1  0
  7  8  1  0
  8  6  1  0
 10 11  2  0
 12 27  2  0
 13 12  1  0
 13 26  1  0
 14 26  1  0
 15 26  1  0
 15 16  1  6
 15 17  1  0
 17 28  1  0
 18 19  1  0
 20 28  1  0
 21 29  1  0
 21  9  2  0
 25  5  1  0
  2 23  2  0
  3  4  2  0
  5 24  2  0
  9 10  1  0
 11 12  1  0
 17 18  2  0
 19 20  2  0
 21 27  1  0
M  END
>  <rmsd>  (1) 
0.196401909

$$$$
