MolPort-049-666-434 MolPort-051-561-886 CHEMBL5184668 CHEMBL5222013 CSSS06623406600 CSSS06623407334 MCULE-1265556255 MCULE-7926030787 PubChem-145426155 PubChem-160110221 PubChem-161609045 PubChem-163196447 Z5889958807
     RDKit          3D

 34 38  0  0  0  0  0  0  0  0999 V2000
   13.3897   47.0511    3.2486 C   0  0  0  0  0  0  0  0  0  0  0  0
   13.5055   45.6771    2.6139 C   0  0  0  0  0  0  0  0  0  0  0  0
   13.9413   44.3127    4.6319 C   0  0  0  0  0  0  0  0  0  0  0  0
   14.1849   42.8483    6.6953 C   0  0  0  0  0  0  0  0  0  0  0  0
   15.6653   42.6127    8.1687 C   0  0  0  0  0  0  0  0  0  0  0  0
   16.7955   42.6819    8.9750 C   0  0  0  0  0  0  0  0  0  0  0  0
   16.8415   41.8327   10.0952 C   0  0  0  0  0  0  0  0  0  0  0  0
   15.7761   40.9397   10.3926 C   0  0  0  0  0  0  0  0  0  0  0  0
   14.6511   40.9114    9.5366 C   0  0  0  0  0  0  0  0  0  0  0  0
   14.6376   41.7642    8.4372 C   0  0  0  0  0  0  0  0  0  0  0  0
   15.8624   40.0543   11.5891 C   0  0  0  0  0  0  0  0  0  0  0  0
   14.8070   39.1993   11.9899 C   0  0  0  0  0  0  0  0  0  0  0  0
   14.9436   38.3976   13.1279 C   0  0  0  0  0  0  0  0  0  0  0  0
   16.1188   38.4287   13.8791 C   0  0  0  0  0  0  0  0  0  0  0  0
   17.1699   39.2609   13.4932 C   0  0  0  0  0  0  0  0  0  0  0  0
   18.4171   39.3179   14.3089 C   0  0  0  0  0  0  0  0  0  0  0  0
   18.3376   40.4249   15.3150 C   0  0  0  0  0  0  0  0  0  0  0  0
   18.0696   42.3972   17.2362 C   0  0  0  0  0  0  0  0  0  0  0  0
   18.6942   42.7160   16.0238 C   0  0  0  0  0  0  0  0  0  0  0  0
   19.1797   44.0073   15.7699 C   0  0  0  0  0  0  0  0  0  0  0  0
   19.7971   44.3001   14.5512 C   0  0  0  0  0  0  0  0  0  0  0  0
   19.9346   43.3066   13.5788 C   0  0  0  0  0  0  0  0  0  0  0  0
   19.4549   42.0171   13.8222 C   0  0  0  0  0  0  0  0  0  0  0  0
   18.8316   41.7109   15.0418 C   0  0  0  0  0  0  0  0  0  0  0  0
   17.0373   40.0681   12.3607 C   0  0  0  0  0  0  0  0  0  0  0  0
   13.1368   44.6672    3.5461 O   0  0  0  0  0  0  0  0  0  0  0  0
   15.0639   44.8631    4.8012 O   0  0  0  0  0  0  0  0  0  0  0  0
   17.9276   43.2634   18.1407 O   0  0  0  0  0  0  0  0  0  0  0  0
   13.4742   43.3117    5.5421 N   0  0  0  0  0  0  0  0  0  0  0  0
   15.4068   43.3206    7.0606 N   0  0  0  0  0  0  0  0  0  0  0  0
   13.6753   41.8914    7.5130 N   0  0  0  0  0  0  0  0  0  0  0  0
   17.7365   40.1853   16.5104 N   0  0  0  0  0  0  0  0  0  0  0  0
   17.6095   41.1355   17.4381 N   0  0  0  0  0  0  0  0  0  0  0  0
   13.6405   39.1337   11.3018 F   0  0  0  0  0  0  0  0  0  0  0  0
  1  2  1  0
  2 26  1  0
  3 26  1  0
  3 29  1  0
  5 30  1  0
  6  7  2  0
  8  9  2  0
  8 11  1  0
 10 31  1  0
 10  5  2  0
 12 34  1  0
 12 13  2  0
 14 15  2  0
 16 15  1  0
 16 17  1  0
 18 19  1  0
 20 21  2  0
 22 23  2  0
 24 17  1  0
 24 19  2  0
 25 11  2  0
 29  4  1  0
 31  4  1  0
 33 32  1  0
 33 18  1  0
  3 27  2  0
  4 30  2  0
  5  6  1  0
  7  8  1  0
  9 10  1  0
 11 12  1  0
 13 14  1  0
 15 25  1  0
 17 32  2  0
 18 28  2  0
 19 20  1  0
 21 22  1  0
 23 24  1  0
M  END
>  <rmsd>  (1) 
0.242640048

$$$$
