MolPort-002-774-842 36613896 CSSS00133006967 MCULE-1758707570 PubChem-19590973 ZINC000036613896 ZINC36613896
     RDKit          3D

 31 35  0  0  0  0  0  0  0  0999 V2000
   10.5142   47.9330    7.3236 F   0  0  0  0  0  0  0  0  0  0  0  0
    9.6190   49.0173    5.5541 F   0  0  0  0  0  0  0  0  0  0  0  0
   12.7246   39.9128   11.8998 F   0  0  0  0  0  0  0  0  0  0  0  0
   14.8208   39.1693   11.5435 F   0  0  0  0  0  0  0  0  0  0  0  0
   13.0764   38.0908   10.6189 F   0  0  0  0  0  0  0  0  0  0  0  0
   10.7101   48.2985    6.0048 C   0  0  0  0  0  0  0  0  0  0  0  0
   10.9011   47.0849    5.1601 C   0  0  0  0  0  0  0  0  0  0  0  0
   13.0418   44.7605    3.5314 C   0  0  0  0  0  0  0  0  0  0  0  0
   13.9288   44.3219    4.6461 C   0  0  0  0  0  0  0  0  0  0  0  0
   14.2157   42.8363    6.6823 C   0  0  0  0  0  0  0  0  0  0  0  0
   14.8151   41.8034    8.4768 C   0  0  0  0  0  0  0  0  0  0  0  0
   13.6602   40.2125    9.7628 C   0  0  0  0  0  0  0  0  0  0  0  0
   12.5680   40.2843    8.8634 C   0  0  0  0  0  0  0  0  0  0  0  0
   12.6287   41.1236    7.7311 C   0  0  0  0  0  0  0  0  0  0  0  0
   11.4681   41.2465    6.7861 C   0  0  0  0  0  0  0  0  0  0  0  0
   11.8082   40.5751    5.4661 C   0  0  0  0  0  0  0  0  0  0  0  0
   10.8871   39.8834    6.4428 C   0  0  0  0  0  0  0  0  0  0  0  0
   13.7887   41.8889    7.5843 C   0  0  0  0  0  0  0  0  0  0  0  0
   13.5710   39.3335   10.9727 C   0  0  0  0  0  0  0  0  0  0  0  0
   10.7011   45.0924    4.3388 C   0  0  0  0  0  0  0  0  0  0  0  0
   10.0261   46.0240    5.0247 C   0  0  0  0  0  0  0  0  0  0  0  0
    9.0131   45.4550    5.9319 C   0  0  0  0  0  0  0  0  0  0  0  0
    9.0736   43.9489    5.5965 C   0  0  0  0  0  0  0  0  0  0  0  0
   10.2638   43.7166    4.6411 C   0  0  0  0  0  0  0  0  0  0  0  0
   12.0635   46.7744    4.5418 N   0  0  0  0  0  0  0  0  0  0  0  0
   11.9333   45.5474    4.0515 N   0  0  0  0  0  0  0  0  0  0  0  0
   13.4766   43.3113    5.5526 N   0  0  0  0  0  0  0  0  0  0  0  0
   15.4446   43.2768    7.0442 N   0  0  0  0  0  0  0  0  0  0  0  0
   15.8157   42.6402    8.1522 N   0  0  0  0  0  0  0  0  0  0  0  0
   14.7703   40.9880    9.5583 N   0  0  0  0  0  0  0  0  0  0  0  0
   15.0555   44.8660    4.7900 O   0  0  0  0  0  0  0  0  0  0  0  0
  6  1  1  0
  6  2  1  0
  6  7  1  0
  8 26  1  0
  8  9  1  0
  9 27  1  0
 12 30  2  0
 13 14  2  0
 15 14  1  0
 15 16  1  0
 16 17  1  0
 17 15  1  0
 18 10  1  0
 18 11  2  0
 19 12  1  0
 19  3  1  0
 19  4  1  0
 19  5  1  0
 21  7  1  0
 22 21  1  0
 22 23  1  0
 23 24  1  0
 24 20  1  0
 26 25  1  0
 26 20  1  0
 27 10  1  0
 29 28  1  0
 29 11  1  0
  7 25  2  0
  9 31  2  0
 10 28  2  0
 11 30  1  0
 12 13  1  0
 14 18  1  0
 20 21  2  0
M  END
>  <rmsd>  (1) 
0.230576321

$$$$
