MolPort-020-296-475 MCULE-6995063905 PubChem-110268417
     RDKit          3D

 33 37  0  0  0  0  0  0  0  0999 V2000
   15.0215   47.4272    1.9934 C   0  0  0  0  0  0  0  0  0  0  0  0
   14.6025   46.3449    2.9214 C   0  0  0  0  0  0  0  0  0  0  0  0
   15.4647   45.9055    3.9273 C   0  0  0  0  0  0  0  0  0  0  0  0
   13.8491   44.3246    4.6711 C   0  0  0  0  0  0  0  0  0  0  0  0
   12.9618   44.7412    3.6746 C   0  0  0  0  0  0  0  0  0  0  0  0
   13.3433   45.7570    2.7963 C   0  0  0  0  0  0  0  0  0  0  0  0
   14.2282   42.7366    6.6389 C   0  0  0  0  0  0  0  0  0  0  0  0
   16.2189   42.6783    7.9189 C   0  0  0  0  0  0  0  0  0  0  0  0
   15.6941   41.6587    8.7097 C   0  0  0  0  0  0  0  0  0  0  0  0
   14.4043   41.1947    8.4290 C   0  0  0  0  0  0  0  0  0  0  0  0
   13.7838   40.0986    9.2350 C   0  0  2  0  0  0  0  0  0  0  0  0
   13.6507   40.4994   10.7059 C   0  0  0  0  0  0  0  0  0  0  0  0
   12.9920   39.3763   11.5038 C   0  0  0  0  0  0  0  0  0  0  0  0
   13.8012   38.0885   11.3694 C   0  0  0  0  0  0  0  0  0  0  0  0
   14.5842   38.8038    9.1032 C   0  0  0  0  0  0  0  0  0  0  0  0
   13.4215   36.5835    9.3946 C   0  0  0  0  0  0  0  0  0  0  0  0
   13.8993   36.0158    8.1195 C   0  0  0  0  0  0  0  0  0  0  0  0
   15.2205   35.9807    7.6693 C   0  0  0  0  0  0  0  0  0  0  0  0
   15.1776   35.3153    6.4697 C   0  0  0  0  0  0  0  0  0  0  0  0
   13.8677   34.9784    6.2478 C   0  0  0  0  0  0  0  0  0  0  0  0
   13.4785   34.2720    5.1117 C   0  0  0  0  0  0  0  0  0  0  0  0
   14.4789   33.9123    4.1905 C   0  0  0  0  0  0  0  0  0  0  0  0
   15.8282   34.2562    4.4234 C   0  0  0  0  0  0  0  0  0  0  0  0
   16.1933   34.9658    5.5814 C   0  0  0  0  0  0  0  0  0  0  0  0
   16.4491   36.4310    8.3858 C   0  0  0  0  0  0  0  0  0  0  0  0
   15.0738   44.9143    4.7729 N   0  0  0  0  0  0  0  0  0  0  0  0
   13.4486   43.2812    5.5674 N   0  0  0  0  0  0  0  0  0  0  0  0
   15.4816   43.1969    6.9033 N   0  0  0  0  0  0  0  0  0  0  0  0
   13.7026   41.7421    7.4020 N   0  0  0  0  0  0  0  0  0  0  0  0
   13.9940   37.7750    9.9559 N   0  0  0  0  0  0  0  0  0  0  0  0
   13.0681   35.3884    7.2497 N   0  0  0  0  0  0  0  0  0  0  0  0
   12.4641   36.0156    9.9866 O   0  0  0  0  0  0  0  0  0  0  0  0
   16.7781   33.8976    3.5270 F   0  0  0  0  0  0  0  0  0  0  0  0
  1  2  1  0
  3 26  2  0
  4  5  2  0
  4 27  1  0
  6  2  2  0
  7 29  2  0
  8 28  2  0
  9 10  2  0
 11 10  1  6
 11 12  1  0
 12 13  1  0
 13 14  1  0
 14 30  1  0
 15 30  1  0
 15 11  1  0
 16 17  1  0
 18 19  1  0
 20 31  1  0
 20 21  2  0
 22 23  2  0
 23 33  1  0
 24 19  2  0
 25 18  1  0
 27  7  1  0
 30 16  1  0
 31 17  1  0
  2  3  1  0
  4 26  1  0
  5  6  1  0
  7 28  1  0
  8  9  1  0
 10 29  1  0
 16 32  2  0
 17 18  2  0
 19 20  1  0
 21 22  1  0
 23 24  1  0
M  END
>  <rmsd>  (1) 
0.241055116

$$$$
