MolPort-020-292-448 MCULE-2802633889 PubChem-110264916
     RDKit          3D

 28 30  0  0  0  0  0  0  0  0999 V2000
   16.2222   35.0949    6.2314 C   0  0  0  0  0  0  0  0  0  0  0  0
   14.7279   34.8616    6.1019 C   0  0  0  0  0  0  0  0  0  0  0  0
   13.1845   36.8160    6.0237 C   0  0  0  0  0  0  0  0  0  0  0  0
   13.8458   38.1805    5.9650 C   0  0  0  0  0  0  0  0  0  0  0  0
   13.9250   35.8911    8.2536 C   0  0  0  0  0  0  0  0  0  0  0  0
   13.1227   36.9185    8.9913 C   0  0  0  0  0  0  0  0  0  0  0  0
   13.0987   38.0681   11.0386 C   0  0  0  0  0  0  0  0  0  0  0  0
   13.6259   39.3195   11.7388 C   0  0  0  0  0  0  0  0  0  0  0  0
   13.6441   40.5106   10.7772 C   0  0  0  0  0  0  0  0  0  0  0  0
   13.7706   40.0801    9.3120 C   0  0  2  0  0  0  0  0  0  0  0  0
   14.5737   38.7814    9.1889 C   0  0  0  0  0  0  0  0  0  0  0  0
   14.3818   41.1636    8.4884 C   0  0  0  0  0  0  0  0  0  0  0  0
   16.2198   42.5896    8.0084 C   0  0  0  0  0  0  0  0  0  0  0  0
   15.5203   43.1660    6.9468 C   0  0  0  0  0  0  0  0  0  0  0  0
   14.2224   42.7278    6.6533 C   0  0  0  0  0  0  0  0  0  0  0  0
   13.6533   41.7181    7.4328 C   0  0  0  0  0  0  0  0  0  0  0  0
   13.8518   44.3193    4.6687 C   0  0  0  0  0  0  0  0  0  0  0  0
   15.4396   45.9054    3.9001 C   0  0  0  0  0  0  0  0  0  0  0  0
   14.5533   46.3099    2.9009 C   0  0  0  0  0  0  0  0  0  0  0  0
   12.9676   44.7266    3.6673 C   0  0  0  0  0  0  0  0  0  0  0  0
   17.5971   43.0481    8.3255 C   0  0  0  0  0  0  0  0  0  0  0  0
   13.9923   35.8970    6.8156 N   0  0  0  0  0  0  0  0  0  0  0  0
   13.9660   37.6542    9.9237 N   0  0  0  0  0  0  0  0  0  0  0  0
   15.6425   41.6081    8.7509 N   0  0  0  0  0  0  0  0  0  0  0  0
   13.4556   43.2806    5.5742 N   0  0  0  0  0  0  0  0  0  0  0  0
   15.0699   44.9208    4.7608 N   0  0  0  0  0  0  0  0  0  0  0  0
   13.3368   45.7116    2.8063 N   0  0  0  0  0  0  0  0  0  0  0  0
   14.5260   34.9992    8.9121 O   0  0  0  0  0  0  0  0  0  0  0  0
  1  2  1  0
  2 22  1  0
  3 22  1  0
  3  4  1  0
  6  5  1  0
  6 23  1  0
  7 23  1  0
  7  8  1  0
  8  9  1  0
  9 10  1  0
 10 11  1  0
 10 12  1  6
 11 23  1  0
 13 24  2  0
 14 15  2  0
 15 25  1  0
 16 12  2  0
 18 26  2  0
 19 27  2  0
 20 17  2  0
 21 13  1  0
 22  5  1  0
 25 17  1  0
  5 28  2  0
 12 24  1  0
 13 14  1  0
 15 16  1  0
 17 26  1  0
 18 19  1  0
 20 27  1  0
M  END
>  <rmsd>  (1) 
0.248757899

$$$$
