MolPort-007-723-501 ChemDiv-E157-6048 MCULE-2602760675 PubChem-22518049 ZINC000006818328 ZINC06818328
     RDKit          3D

 25 26  0  0  0  0  0  0  0  0999 V2000
   12.8193   39.1874   10.5246 C   0  0  0  0  0  0  0  0  0  0  0  0
   13.8519   39.6101   11.5524 C   0  0  0  0  0  0  0  0  0  0  0  0
   14.3949   42.0618   11.6973 C   0  0  0  0  0  0  0  0  0  0  0  0
   15.1138   43.1874   11.2615 C   0  0  0  0  0  0  0  0  0  0  0  0
   14.9173   44.4351   11.8579 C   0  0  0  0  0  0  0  0  0  0  0  0
   15.6844   45.6153   11.3805 C   0  0  0  0  0  0  0  0  0  0  0  0
   13.9990   44.5738   12.9011 C   0  0  0  0  0  0  0  0  0  0  0  0
   13.2767   43.4642   13.3460 C   0  0  0  0  0  0  0  0  0  0  0  0
   13.4723   42.2166   12.7467 C   0  0  0  0  0  0  0  0  0  0  0  0
   15.3243   41.5591    8.4312 C   0  0  0  0  0  0  0  0  0  0  0  0
   14.3231   42.7462    6.6180 C   0  0  0  0  0  0  0  0  0  0  0  0
   13.8805   44.3620    4.7119 C   0  0  0  0  0  0  0  0  0  0  0  0
   12.8992   44.8836    3.7190 C   0  0  0  0  0  0  0  0  0  0  0  0
   12.1064   46.0442    4.2993 C   0  0  0  0  0  0  0  0  0  0  0  0
   11.0519   45.5311    5.2615 C   0  0  0  0  0  0  0  0  0  0  0  0
   11.4238   46.7962    3.1754 C   0  0  0  0  0  0  0  0  0  0  0  0
   14.5911   40.7751   11.0759 N   0  0  0  0  0  0  0  0  0  0  0  0
   16.1313   42.5111    7.9138 N   0  0  0  0  0  0  0  0  0  0  0  0
   15.5741   43.1726    6.9011 N   0  0  0  0  0  0  0  0  0  0  0  0
   13.4965   43.2989    5.5895 N   0  0  0  0  0  0  0  0  0  0  0  0
   15.7581   40.5577    9.8012 S   0  0  0  0  0  0  0  0  0  0  0  0
   13.8385   41.5004    7.6400 S   0  0  0  0  0  0  0  0  0  0  0  0
   17.1219   40.9413   10.3043 O   0  0  0  0  0  0  0  0  0  0  0  0
   15.7919   39.1197    9.3637 O   0  0  0  0  0  0  0  0  0  0  0  0
   15.0260   44.8797    4.7812 O   0  0  0  0  0  0  0  0  0  0  0  0
  1  2  1  0
  2 17  1  0
  4  5  2  0
  6  5  1  0
  7  8  2  0
  9  3  2  0
 10 22  1  0
 11 20  1  0
 11 22  1  0
 13 12  1  0
 13 14  1  0
 14 15  1  0
 14 16  1  0
 17  3  1  0
 18 19  1  0
 20 12  1  0
 21 17  1  0
 21 10  1  0
  3  4  1  0
  5  7  1  0
  8  9  1  0
 10 18  2  0
 11 19  2  0
 12 25  2  0
 21 23  2  0
 21 24  2  0
M  END
>  <rmsd>  (1) 
0.247438818

$$$$
