MolPort-051-666-280 Molport-051-666-279 MCULE-7009088479 MCULE-8366614588 PubChem-110089569
     RDKit          3D

 19 21  0  0  0  0  0  0  0  0999 V2000
   13.6406   46.6495    1.9714 C   0  0  0  0  0  0  0  0  0  0  0  0
   13.9523   45.7731    3.1308 C   0  0  0  0  0  0  0  0  0  0  0  0
   13.1073   44.8182    3.6626 C   0  0  0  0  0  0  0  0  0  0  0  0
   13.8795   44.3164    4.6930 C   0  0  0  0  0  0  0  0  0  0  0  0
   14.2018   42.7112    6.6630 C   0  0  0  0  0  0  0  0  0  0  0  0
   15.4949   43.1537    6.9733 C   0  0  0  0  0  0  0  0  0  0  0  0
   16.1847   42.5745    8.0384 C   0  0  0  0  0  0  0  0  0  0  0  0
   15.5838   41.5616    8.7849 C   0  0  0  0  0  0  0  0  0  0  0  0
   14.2899   41.1393    8.4516 C   0  0  0  0  0  0  0  0  0  0  0  0
   13.6087   40.0563    9.2261 C   0  0  2  0  0  0  0  0  0  0  0  0
   13.3839   40.4821   10.6810 C   0  0  0  0  0  0  0  0  0  0  0  0
   13.0192   39.2786   11.5478 C   0  0  0  0  0  0  0  0  0  0  0  0
   14.0113   38.1145   11.3797 C   0  0  0  0  0  0  0  0  0  0  0  0
   14.3677   38.7248    9.1082 C   0  0  0  0  0  0  0  0  0  0  0  0
   15.0763   44.9304    4.7547 N   0  0  0  0  0  0  0  0  0  0  0  0
   13.4518   43.2744    5.5786 N   0  0  0  0  0  0  0  0  0  0  0  0
   13.6386   41.7209    7.4078 N   0  0  0  0  0  0  0  0  0  0  0  0
   15.0330   38.3859   10.3648 N   0  0  0  0  0  0  0  0  0  0  0  0
   15.0823   45.8040    3.7946 O   0  0  0  0  0  0  0  0  0  0  0  0
  1  2  1  0
  2 19  1  0
  3  4  1  0
  4 16  1  0
  5 17  2  0
  6  7  2  0
  8  9  2  0
 10  9  1  6
 10 11  1  0
 11 12  1  0
 12 13  1  0
 13 18  1  0
 14 18  1  0
 14 10  1  0
 15 19  1  0
 16  5  1  0
  2  3  2  0
  4 15  2  0
  5  6  1  0
  7  8  1  0
  9 17  1  0
M  END
>  <rmsd>  (1) 
0.244434804

$$$$
