Molport-047-891-987 PubChem-165934009
     RDKit          3D

 21 22  0  0  0  0  0  0  0  0999 V2000
   14.4132   45.6253    1.9397 C   0  0  0  0  0  0  0  0  0  0  0  0
   13.2511   45.9726    2.8542 C   0  0  0  0  0  0  0  0  0  0  0  0
   13.5616   47.2479    3.6187 C   0  0  0  0  0  0  0  0  0  0  0  0
   12.0248   46.2132    1.9996 C   0  0  0  0  0  0  0  0  0  0  0  0
   13.8848   44.3967    4.6987 C   0  0  0  0  0  0  0  0  0  0  0  0
   14.2779   42.6880    6.5500 C   0  0  0  0  0  0  0  0  0  0  0  0
   16.3216   42.5110    7.7458 C   0  0  0  0  0  0  0  0  0  0  0  0
   15.8216   41.4562    8.5135 C   0  0  0  0  0  0  0  0  0  0  0  0
   14.4938   41.0177    8.2908 C   0  0  0  0  0  0  0  0  0  0  0  0
   13.7381   41.6376    7.2922 C   0  0  0  0  0  0  0  0  0  0  0  0
   14.1913   39.6196   10.3437 C   0  0  0  0  0  0  0  0  0  0  0  0
   13.5397   38.2917   10.6856 C   0  0  0  0  0  0  0  0  0  0  0  0
   12.6920   38.5205   11.9226 C   0  0  0  0  0  0  0  0  0  0  0  0
   13.1340   39.8481   12.4939 C   0  0  0  0  0  0  0  0  0  0  0  0
   13.6222   40.6430   11.3074 C   0  0  0  0  0  0  0  0  0  0  0  0
   12.9770   44.8966    3.7551 O   0  0  0  0  0  0  0  0  0  0  0  0
   15.0395   44.8936    4.8042 O   0  0  0  0  0  0  0  0  0  0  0  0
   13.8789   39.9785    9.0042 O   0  0  0  0  0  0  0  0  0  0  0  0
   13.4770   43.3122    5.5400 N   0  0  0  0  0  0  0  0  0  0  0  0
   15.5498   43.1023    6.7972 N   0  0  0  0  0  0  0  0  0  0  0  0
   17.0447   40.6313    9.7356 Br  0  0  0  0  0  0  0  0  0  0  0  0
  1  2  1  0
  2  3  1  0
  2  4  1  0
  2 16  1  0
  5 16  1  0
  5 19  1  0
  7 20  2  0
  8  9  2  0
  8 21  1  0
  9 18  1  0
 10  6  2  0
 11 18  1  0
 11 12  1  0
 12 13  1  0
 13 14  1  0
 14 15  1  0
 15 11  1  0
 19  6  1  0
  5 17  2  0
  6 20  1  0
  7  8  1  0
  9 10  1  0
M  END
>  <rmsd>  (1) 
0.243059784

$$$$
