MolPort-005-154-018 15066060 CSSS00160034953 PubChem-26395851 ZINC000015066060
     RDKit          3D

 32 36  0  0  0  0  0  0  0  0999 V2000
   15.0611   44.8806    4.8182 O   0  0  0  0  0  0  0  0  0  0  0  0
   10.3660   46.1446    0.6969 O   0  0  0  0  0  0  0  0  0  0  0  0
    9.6642   44.4564    2.0539 O   0  0  0  0  0  0  0  0  0  0  0  0
   13.9149   44.3760    4.6670 C   0  0  0  0  0  0  0  0  0  0  0  0
   14.2233   42.7351    6.5960 C   0  0  0  0  0  0  0  0  0  0  0  0
   15.4937   43.1005    7.0018 C   0  0  0  0  0  0  0  0  0  0  0  0
   15.7433   42.2552    8.0777 C   0  0  0  0  0  0  0  0  0  0  0  0
   12.4454   41.1223    7.2795 C   0  0  0  0  0  0  0  0  0  0  0  0
   11.5044   41.6586    8.3675 C   0  0  0  0  0  0  0  0  0  0  0  0
   11.7224   41.0088    9.7474 C   0  0  0  0  0  0  0  0  0  0  0  0
   12.4633   39.1264   10.9490 C   0  0  0  0  0  0  0  0  0  0  0  0
   13.5706   39.4660   11.8900 C   0  0  0  0  0  0  0  0  0  0  0  0
   14.8286   39.1424   11.6015 C   0  0  0  0  0  0  0  0  0  0  0  0
   15.9559   39.4657   12.4864 C   0  0  0  0  0  0  0  0  0  0  0  0
   17.2480   39.1011   12.0921 C   0  0  0  0  0  0  0  0  0  0  0  0
   18.3453   39.4039   12.9044 C   0  0  0  0  0  0  0  0  0  0  0  0
   18.1544   40.0737   14.1164 C   0  0  0  0  0  0  0  0  0  0  0  0
   16.8666   40.4405   14.5173 C   0  0  0  0  0  0  0  0  0  0  0  0
   15.7695   40.1380   13.7054 C   0  0  0  0  0  0  0  0  0  0  0  0
   12.1992   38.9678    8.6256 C   0  0  0  0  0  0  0  0  0  0  0  0
   12.5515   39.5883    7.2718 C   0  0  0  0  0  0  0  0  0  0  0  0
   13.0266   44.8812    3.6059 C   0  0  0  0  0  0  0  0  0  0  0  0
   11.7425   44.3227    3.4313 C   0  0  0  0  0  0  0  0  0  0  0  0
   10.9415   44.8363    2.4150 C   0  0  0  0  0  0  0  0  0  0  0  0
   11.3600   45.8419    1.6061 C   0  0  0  0  0  0  0  0  0  0  0  0
    9.2539   45.2739    0.9486 C   0  0  0  0  0  0  0  0  0  0  0  0
   12.6169   46.4238    1.7398 C   0  0  0  0  0  0  0  0  0  0  0  0
   13.4551   45.9308    2.7561 C   0  0  0  0  0  0  0  0  0  0  0  0
   13.4704   43.3136    5.5220 N   0  0  0  0  0  0  0  0  0  0  0  0
   14.6784   41.4504    8.2811 N   0  0  0  0  0  0  0  0  0  0  0  0
   13.7642   41.7450    7.3737 N   0  0  0  0  0  0  0  0  0  0  0  0
   12.6266   39.8546    9.7012 N   0  0  0  0  0  0  0  0  0  0  0  0
  4 29  1  0
  4 22  1  0
  6  7  1  0
  8 31  1  0
  8  9  1  0
  9 10  1  0
 10 32  1  0
 11 32  1  0
 11 12  1  0
 13 14  1  0
 15 16  2  0
 17 18  2  0
 19 14  2  0
 20 32  1  0
 20 21  1  0
 21  8  1  0
 23 24  2  0
 24  3  1  0
 25  2  1  0
 25 27  2  0
 26  2  1  0
 26  3  1  0
 28 22  2  0
 29  5  1  0
 31 30  1  0
 31  5  1  0
  4  1  2  0
  5  6  2  0
  7 30  2  0
 12 13  2  0
 14 15  1  0
 16 17  1  0
 18 19  1  0
 22 23  1  0
 24 25  1  0
 27 28  1  0
M  END
>  <rmsd>  (1) 
0.206150979

$$$$
