MolPort-007-714-528 ChemDiv-E002-1850 MCULE-6371993484 PubChem-22510837 ZINC000006792968 ZINC06792968
     RDKit          3D

 26 27  0  0  0  0  0  0  0  0999 V2000
   13.4526   38.2418   11.5510 C   0  0  0  0  0  0  0  0  0  0  0  0
   14.1019   39.5407   11.1242 C   0  0  0  0  0  0  0  0  0  0  0  0
   13.0651   40.6471   11.1490 C   0  0  0  0  0  0  0  0  0  0  0  0
   14.6667   39.3827    9.7217 C   0  0  0  0  0  0  0  0  0  0  0  0
   16.8854   40.5265    9.9905 C   0  0  0  0  0  0  0  0  0  0  0  0
   17.0860   41.7995   10.8006 C   0  0  0  0  0  0  0  0  0  0  0  0
   16.3702   41.6982   12.1325 C   0  0  0  0  0  0  0  0  0  0  0  0
   18.5650   42.0059   11.0477 C   0  0  0  0  0  0  0  0  0  0  0  0
   15.2126   41.3894    8.3218 C   0  0  0  0  0  0  0  0  0  0  0  0
   14.2617   42.6899    6.5523 C   0  0  0  0  0  0  0  0  0  0  0  0
   13.8929   44.3927    4.7064 C   0  0  0  0  0  0  0  0  0  0  0  0
   13.3180   46.0542    2.8804 C   0  0  0  0  0  0  0  0  0  0  0  0
   13.2258   47.3274    3.6515 C   0  0  0  0  0  0  0  0  0  0  0  0
   14.3911   47.9623    4.0950 C   0  0  0  0  0  0  0  0  0  0  0  0
   14.3060   49.1488    4.8298 C   0  0  0  0  0  0  0  0  0  0  0  0
   13.0553   49.7012    5.1234 C   0  0  0  0  0  0  0  0  0  0  0  0
   12.9651   50.9621    5.9044 C   0  0  0  0  0  0  0  0  0  0  0  0
   11.8897   49.0665    4.6833 C   0  0  0  0  0  0  0  0  0  0  0  0
   11.9745   47.8798    3.9485 C   0  0  0  0  0  0  0  0  0  0  0  0
   15.5563   40.4891    9.3864 N   0  0  0  0  0  0  0  0  0  0  0  0
   16.0517   42.3396    7.8491 N   0  0  0  0  0  0  0  0  0  0  0  0
   15.5227   43.0633    6.8644 N   0  0  0  0  0  0  0  0  0  0  0  0
   13.4673   43.3059    5.5342 N   0  0  0  0  0  0  0  0  0  0  0  0
   12.9901   44.9184    3.7318 N   0  0  0  0  0  0  0  0  0  0  0  0
   15.0497   44.8800    4.8277 O   0  0  0  0  0  0  0  0  0  0  0  0
   13.7312   41.4120    7.5090 S   0  0  0  0  0  0  0  0  0  0  0  0
  1  2  1  0
  2  3  1  0
  2  4  1  0
  4 20  1  0
  5 20  1  0
  5  6  1  0
  6  7  1  0
  6  8  1  0
  9 26  1  0
 10 23  1  0
 10 26  1  0
 11 24  1  0
 12 24  1  0
 12 13  1  0
 14 15  2  0
 16 18  2  0
 17 16  1  0
 19 13  2  0
 20  9  1  0
 21 22  1  0
 23 11  1  0
  9 21  2  0
 10 22  2  0
 11 25  2  0
 13 14  1  0
 15 16  1  0
 18 19  1  0
M  END
>  <rmsd>  (1) 
0.225127056

$$$$
