MolPort-007-723-283 21526237 ChemDiv-E157-4283 MCULE-3761142267 PubChem-46271950 ZINC000021526237 ZINC21526237
     RDKit          3D

 18 19  0  0  0  0  0  0  0  0999 V2000
   14.0750   39.0237   11.9668 C   0  0  0  0  0  0  0  0  0  0  0  0
   13.1220   39.6515   10.9672 C   0  0  0  0  0  0  0  0  0  0  0  0
   13.6059   39.4124    9.5463 C   0  0  0  0  0  0  0  0  0  0  0  0
   14.6824   40.3787    9.1752 C   0  0  0  0  0  0  0  0  0  0  0  0
   15.7529   41.9012    8.2023 C   0  0  0  0  0  0  0  0  0  0  0  0
   14.2194   42.6885    6.5743 C   0  0  0  0  0  0  0  0  0  0  0  0
   13.9152   44.3793    4.6800 C   0  0  0  0  0  0  0  0  0  0  0  0
   13.0113   44.8856    3.6004 C   0  0  0  0  0  0  0  0  0  0  0  0
   13.1774   44.1400    2.2747 C   0  0  0  0  0  0  0  0  0  0  0  0
   14.5754   44.3009    1.7048 C   0  0  0  0  0  0  0  0  0  0  0  0
   12.8196   42.6699    2.4019 C   0  0  0  0  0  0  0  0  0  0  0  0
   15.9178   40.4461    9.7420 N   0  0  0  0  0  0  0  0  0  0  0  0
   16.6027   41.4171    9.1238 N   0  0  0  0  0  0  0  0  0  0  0  0
   13.4704   43.3112    5.5239 N   0  0  0  0  0  0  0  0  0  0  0  0
   13.6935   41.6809    7.3271 N   0  0  0  0  0  0  0  0  0  0  0  0
   14.5981   41.2951    8.2115 N   0  0  0  0  0  0  0  0  0  0  0  0
   15.8443   43.0883    7.0254 S   0  0  0  0  0  0  0  0  0  0  0  0
   15.0575   44.8906    4.8198 O   0  0  0  0  0  0  0  0  0  0  0  0
  1  2  1  0
  2  3  1  0
  3  4  1  0
  5 17  1  0
  6 17  1  0
  6 14  1  0
  8  7  1  0
  8  9  1  0
  9 10  1  0
  9 11  1  0
 12 13  1  0
 14  7  1  0
 16 15  1  0
 16  4  1  0
 16  5  1  0
  4 12  2  0
  5 13  2  0
  6 15  2  0
  7 18  2  0
M  END
>  <rmsd>  (1) 
0.212028876

$$$$
