MolPort-004-903-011 27824740 CSSS03437743028 MCULE-8933295682 PubChem-35203428 ZINC000027824740 ZINC27824740
     RDKit          3D

 24 26  0  0  0  0  0  0  0  0999 V2000
   13.1209   44.6551    3.4257 C   0  0  0  0  0  0  0  0  0  0  0  0
   13.9521   44.2965    4.6038 C   0  0  0  0  0  0  0  0  0  0  0  0
   14.2508   42.7390    6.5886 C   0  0  0  0  0  0  0  0  0  0  0  0
   15.5438   42.2136    6.3772 C   0  0  0  0  0  0  0  0  0  0  0  0
   16.1710   42.1691    5.0258 C   0  0  0  0  0  0  0  0  0  0  0  0
   16.2425   41.6442    7.4447 C   0  0  0  0  0  0  0  0  0  0  0  0
   15.6737   41.5798    8.7187 C   0  0  0  0  0  0  0  0  0  0  0  0
   16.4688   40.9633    9.8191 C   0  0  0  0  0  0  0  0  0  0  0  0
   14.3717   42.0726    8.9275 C   0  0  0  0  0  0  0  0  0  0  0  0
   13.6724   42.6400    7.8571 C   0  0  0  0  0  0  0  0  0  0  0  0
   13.2066   38.1746   11.1107 C   0  0  0  0  0  0  0  0  0  0  0  0
   12.8395   36.9002   10.6907 C   0  0  0  0  0  0  0  0  0  0  0  0
   12.3016   36.7848    9.3931 C   0  0  0  0  0  0  0  0  0  0  0  0
   12.1504   37.9262    8.5691 C   0  0  0  0  0  0  0  0  0  0  0  0
   12.5343   39.2008    9.0298 C   0  0  0  0  0  0  0  0  0  0  0  0
   13.0600   39.2696   10.3175 C   0  0  0  0  0  0  0  0  0  0  0  0
   15.0476   44.8880    4.7946 O   0  0  0  0  0  0  0  0  0  0  0  0
   12.1877   42.5268   10.4205 O   0  0  0  0  0  0  0  0  0  0  0  0
   14.3695   42.7797   11.4968 O   0  0  0  0  0  0  0  0  0  0  0  0
   13.4733   43.3202    5.5335 N   0  0  0  0  0  0  0  0  0  0  0  0
   13.5083   40.3220   11.0121 N   0  0  0  0  0  0  0  0  0  0  0  0
   13.9152   39.8730   12.1946 N   0  0  0  0  0  0  0  0  0  0  0  0
   13.7418   38.5543   12.2861 N   0  0  0  0  0  0  0  0  0  0  0  0
   13.5833   41.9740   10.5012 S   0  0  0  0  0  0  0  0  0  0  0  0
  1  2  1  0
  2 20  1  0
  4  6  2  0
  5  4  1  0
  7  9  2  0
  8  7  1  0
 10  3  2  0
 11 23  1  0
 12 13  2  0
 14 15  2  0
 16 21  1  0
 16 11  2  0
 20  3  1  0
 21 22  1  0
 24  9  1  0
 24 21  1  0
  2 17  2  0
  3  4  1  0
  6  7  1  0
  9 10  1  0
 11 12  1  0
 13 14  1  0
 15 16  1  0
 22 23  2  0
 24 18  2  0
 24 19  2  0
M  END
>  <rmsd>  (1) 
0.236139044

$$$$
