MolPort-020-293-056 MCULE-2843781751 PubChem-110265523
     RDKit          3D

 29 32  0  0  0  0  0  0  0  0999 V2000
   12.7744   31.7703    8.1924 C   0  0  0  0  0  0  0  0  0  0  0  0
   11.9340   32.8021    7.4668 C   0  0  0  0  0  0  0  0  0  0  0  0
   12.1975   35.2263    8.0097 C   0  0  0  0  0  0  0  0  0  0  0  0
   11.8048   36.0599    9.0312 C   0  0  0  0  0  0  0  0  0  0  0  0
   11.1341   35.2597    9.9396 C   0  0  0  0  0  0  0  0  0  0  0  0
   12.0628   37.5233    9.1573 C   0  0  0  0  0  0  0  0  0  0  0  0
   13.0646   38.1419   11.2035 C   0  0  0  0  0  0  0  0  0  0  0  0
   13.8926   39.3339   11.6867 C   0  0  0  0  0  0  0  0  0  0  0  0
   13.6109   40.5532   10.8121 C   0  0  0  0  0  0  0  0  0  0  0  0
   13.5422   40.1988    9.3195 C   0  0  2  0  0  0  0  0  0  0  0  0
   14.0579   38.7833    9.0294 C   0  0  0  0  0  0  0  0  0  0  0  0
   14.2601   41.2090    8.4830 C   0  0  0  0  0  0  0  0  0  0  0  0
   14.2014   42.7221    6.6425 C   0  0  0  0  0  0  0  0  0  0  0  0
   15.5432   43.0598    6.8634 C   0  0  0  0  0  0  0  0  0  0  0  0
   16.2425   42.4584    7.9092 C   0  0  0  0  0  0  0  0  0  0  0  0
   15.6035   41.5248    8.7247 C   0  0  0  0  0  0  0  0  0  0  0  0
   13.8792   44.2841    4.6223 C   0  0  0  0  0  0  0  0  0  0  0  0
   13.0552   44.6215    3.5346 C   0  0  0  0  0  0  0  0  0  0  0  0
   13.4845   45.5910    2.6269 C   0  0  0  0  0  0  0  0  0  0  0  0
   14.7169   46.2192    2.8082 C   0  0  0  0  0  0  0  0  0  0  0  0
   15.5068   45.8675    3.9033 C   0  0  0  0  0  0  0  0  0  0  0  0
   11.7332   43.9640    3.3250 C   0  0  0  0  0  0  0  0  0  0  0  0
   12.9472   35.6152    6.7786 C   0  0  0  0  0  0  0  0  0  0  0  0
   11.7656   33.9878    8.2958 N   0  0  0  0  0  0  0  0  0  0  0  0
   11.1224   33.9982    9.4537 N   0  0  0  0  0  0  0  0  0  0  0  0
   13.3448   37.7553    9.8072 N   0  0  0  0  0  0  0  0  0  0  0  0
   13.6010   41.8105    7.4562 N   0  0  0  0  0  0  0  0  0  0  0  0
   13.4482   43.2835    5.5589 N   0  0  0  0  0  0  0  0  0  0  0  0
   15.0761   44.9188    4.7767 N   0  0  0  0  0  0  0  0  0  0  0  0
  1  2  1  0
  2 24  1  0
  4  5  1  0
  6  4  1  0
  6 26  1  0
  7 26  1  0
  7  8  1  0
  8  9  1  0
  9 10  1  0
 10 11  1  0
 10 12  1  6
 11 26  1  0
 13 27  2  0
 13 28  1  0
 14 15  2  0
 16 12  2  0
 17 29  2  0
 18 19  2  0
 20 21  2  0
 22 18  1  0
 23  3  1  0
 24  3  1  0
 24 25  1  0
 28 17  1  0
  3  4  2  0
  5 25  2  0
 12 27  1  0
 13 14  1  0
 15 16  1  0
 17 18  1  0
 19 20  1  0
 21 29  1  0
M  END
>  <rmsd>  (1) 
0.243575573

$$$$
