MolPort-019-935-295 67896704 CSSS00159303833 MCULE-5178677902 PubChem-56774757 ZINC000067896704 ZINC67896704
     RDKit          3D

 34 37  0  0  0  0  0  0  0  0999 V2000
   13.4428   39.1319   11.3066 C   0  0  0  0  0  0  0  0  0  0  0  0
   14.5356   36.9399   10.8434 C   0  0  0  0  0  0  0  0  0  0  0  0
   15.7379   37.1552   11.5660 C   0  0  0  0  0  0  0  0  0  0  0  0
   16.2129   38.5197   11.9632 C   0  0  0  0  0  0  0  0  0  0  0  0
   16.7503   39.6512    9.7633 C   0  0  2  0  0  0  0  0  0  0  0  0
   17.8397   39.5854    8.6716 C   0  0  0  0  0  0  0  0  0  0  0  0
   19.4279   38.5848    9.9152 C   0  0  0  0  0  0  0  0  0  0  0  0
   18.5757   38.6091   11.1419 C   0  0  0  0  0  0  0  0  0  0  0  0
   16.3840   41.1244    9.9949 C   0  0  1  0  0  0  0  0  0  0  0  0
   15.6280   41.6898    8.8330 C   0  0  0  0  0  0  0  0  0  0  0  0
   16.1827   42.7442    8.1016 C   0  0  0  0  0  0  0  0  0  0  0  0
   15.4883   43.2875    7.0173 C   0  0  0  0  0  0  0  0  0  0  0  0
   14.2310   42.7819    6.6537 C   0  0  0  0  0  0  0  0  0  0  0  0
   13.8995   44.3657    4.6621 C   0  0  0  0  0  0  0  0  0  0  0  0
   12.9731   44.8256    3.6102 C   0  0  0  0  0  0  0  0  0  0  0  0
   11.6997   44.3179    3.4062 C   0  0  0  0  0  0  0  0  0  0  0  0
   11.2465   45.0583    2.3269 C   0  0  0  0  0  0  0  0  0  0  0  0
    9.9129   44.9070    1.6884 C   0  0  0  0  0  0  0  0  0  0  0  0
   14.4359   46.5812    2.5599 C   0  0  0  0  0  0  0  0  0  0  0  0
   13.6780   41.7288    7.3902 C   0  0  0  0  0  0  0  0  0  0  0  0
   14.3708   41.1834    8.4745 C   0  0  0  0  0  0  0  0  0  0  0  0
   16.5775   36.0686   11.8446 C   0  0  0  0  0  0  0  0  0  0  0  0
   16.2496   34.7841   11.4102 C   0  0  0  0  0  0  0  0  0  0  0  0
   15.0806   34.5748   10.6799 C   0  0  0  0  0  0  0  0  0  0  0  0
   14.2332   35.6478   10.3971 C   0  0  0  0  0  0  0  0  0  0  0  0
   13.6149   37.9516   10.5371 O   0  0  0  0  0  0  0  0  0  0  0  0
   18.6069   38.4131    8.7864 O   0  0  0  0  0  0  0  0  0  0  0  0
   19.0475   38.2558   12.2552 O   0  0  0  0  0  0  0  0  0  0  0  0
   15.6386   41.2925   11.1640 O   0  0  0  0  0  0  0  0  0  0  0  0
   15.0421   44.8854    4.7698 O   0  0  0  0  0  0  0  0  0  0  0  0
   17.2047   39.0121   11.0101 N   0  0  0  0  0  0  0  0  0  0  0  0
   13.4853   43.3192    5.5528 N   0  0  0  0  0  0  0  0  0  0  0  0
   12.1744   45.9402    1.9131 N   0  0  0  0  0  0  0  0  0  0  0  0
   13.2225   45.7925    2.7012 N   0  0  0  0  0  0  0  0  0  0  0  0
  1 26  1  0
  2 26  1  0
  3 22  2  0
  4  3  1  0
  4 31  1  0
  5 31  1  0
  5  6  1  6
  5  9  1  0
  6 27  1  0
  7 27  1  0
  7  8  1  0
  8 31  1  0
  9 29  1  1
  9 10  1  0
 11 12  2  0
 13 32  1  0
 13 20  2  0
 14 15  1  0
 16 17  1  0
 18 17  1  0
 19 34  1  0
 21 10  2  0
 23 24  2  0
 25  2  2  0
 32 14  1  0
 34 33  1  0
 34 15  1  0
  2  3  1  0
  8 28  2  0
 10 11  1  0
 12 13  1  0
 14 30  2  0
 15 16  2  0
 17 33  2  0
 20 21  1  0
 22 23  1  0
 24 25  1  0
M  END
>  <rmsd>  (1) 
0.248056397

$$$$
