MolPort-003-159-980 5266307 CSSS03437068660 MCULE-5115556212 PubChem-18582437 ZINC000005266307 ZINC05266307
     RDKit          3D

 29 32  0  0  0  0  0  0  0  0999 V2000
   13.3183   39.5027   11.2683 C   0  0  0  0  0  0  0  0  0  0  0  0
   14.9882   39.6479    9.8354 C   0  0  0  0  0  0  0  0  0  0  0  0
   15.4003   39.6723    8.3714 C   0  0  0  0  0  0  0  0  0  0  0  0
   14.2756   41.2740    6.8269 C   0  0  0  0  0  0  0  0  0  0  0  0
   14.3646   42.6261    6.5158 C   0  0  0  0  0  0  0  0  0  0  0  0
   13.8235   44.5063    4.8747 C   0  0  0  0  0  0  0  0  0  0  0  0
   13.0995   46.4816    3.5042 C   0  0  0  0  0  0  0  0  0  0  0  0
   11.8352   47.1451    2.9638 C   0  0  0  0  0  0  0  0  0  0  0  0
   10.7171   44.8731    2.9374 C   0  0  0  0  0  0  0  0  0  0  0  0
   11.3962   44.7739    4.3043 C   0  0  0  0  0  0  0  0  0  0  0  0
   10.6103   46.4015    0.9135 C   0  0  0  0  0  0  0  0  0  0  0  0
    9.5679   45.6112    0.2238 C   0  0  0  0  0  0  0  0  0  0  0  0
    8.7366   44.6614    0.7843 C   0  0  0  0  0  0  0  0  0  0  0  0
    7.9393   44.2177   -0.2560 C   0  0  0  0  0  0  0  0  0  0  0  0
    8.3278   44.9280   -1.3779 C   0  0  0  0  0  0  0  0  0  0  0  0
   15.3348   43.1731    7.3376 C   0  0  0  0  0  0  0  0  0  0  0  0
   15.7835   44.4819    7.5101 C   0  0  0  0  0  0  0  0  0  0  0  0
   16.7843   44.7092    8.4707 C   0  0  0  0  0  0  0  0  0  0  0  0
   17.2985   43.6417    9.2370 C   0  0  0  0  0  0  0  0  0  0  0  0
   16.8104   42.3346    9.0598 C   0  0  0  0  0  0  0  0  0  0  0  0
   15.8171   42.1383    8.0987 C   0  0  0  0  0  0  0  0  0  0  0  0
   13.6096   39.8336    9.9459 O   0  0  0  0  0  0  0  0  0  0  0  0
   15.0179   44.9028    4.7935 O   0  0  0  0  0  0  0  0  0  0  0  0
   11.1552   47.3421    0.2739 O   0  0  0  0  0  0  0  0  0  0  0  0
    9.2972   45.7485   -1.0504 O   0  0  0  0  0  0  0  0  0  0  0  0
   15.1796   40.9913    7.7930 N   0  0  0  0  0  0  0  0  0  0  0  0
   13.5117   43.2979    5.5801 N   0  0  0  0  0  0  0  0  0  0  0  0
   12.7824   45.2326    4.2068 N   0  0  0  0  0  0  0  0  0  0  0  0
   11.0080   46.1522    2.2766 N   0  0  0  0  0  0  0  0  0  0  0  0
  1 22  1  0
  2 22  1  0
  2  3  1  0
  3 26  1  0
  5 27  1  0
  5 16  1  0
  6 28  1  0
  7 28  1  0
  7  8  1  0
  8 29  1  0
  9 29  1  0
  9 10  1  0
 10 28  1  0
 11 12  1  0
 12 25  1  0
 13 14  1  0
 15 25  1  0
 17 18  2  0
 19 20  2  0
 21 26  1  0
 21 16  2  0
 26  4  1  0
 27  6  1  0
 29 11  1  0
  4  5  2  0
  6 23  2  0
 11 24  2  0
 12 13  2  0
 14 15  2  0
 16 17  1  0
 18 19  1  0
 20 21  1  0
M  END
>  <rmsd>  (1) 
0.234672576

$$$$
