MolPort-006-579-716 ChemDiv-V002-8400 MCULE-7113003043 PubChem-46040680 ZINC000037544389 ZINC37544389
     RDKit          3D

 30 33  0  0  0  0  0  0  0  0999 V2000
   12.3123   32.5795    8.1319 F   0  0  0  0  0  0  0  0  0  0  0  0
   11.6395   33.2084   10.7410 F   0  0  0  0  0  0  0  0  0  0  0  0
   11.9320   33.8397    8.4548 C   0  0  0  0  0  0  0  0  0  0  0  0
   11.8822   34.8252    7.4640 C   0  0  0  0  0  0  0  0  0  0  0  0
   11.4907   36.1269    7.7906 C   0  0  0  0  0  0  0  0  0  0  0  0
   11.1442   36.4448    9.1083 C   0  0  0  0  0  0  0  0  0  0  0  0
   10.7489   37.8397    9.4621 C   0  0  0  0  0  0  0  0  0  0  0  0
   12.3990   38.5030   11.2287 C   0  0  0  0  0  0  0  0  0  0  0  0
   13.2999   39.6733   11.6081 C   0  0  0  0  0  0  0  0  0  0  0  0
   14.4143   39.7883   10.5804 C   0  0  0  0  0  0  0  0  0  0  0  0
   12.6836   39.3296    8.8595 C   0  0  0  0  0  0  0  0  0  0  0  0
   14.4334   41.1230    8.4545 C   0  0  0  0  0  0  0  0  0  0  0  0
   15.7341   41.5809    8.7223 C   0  0  0  0  0  0  0  0  0  0  0  0
   16.3028   42.6000    7.9553 C   0  0  0  0  0  0  0  0  0  0  0  0
   15.5753   43.1773    6.9131 C   0  0  0  0  0  0  0  0  0  0  0  0
   14.2734   42.7405    6.6321 C   0  0  0  0  0  0  0  0  0  0  0  0
   13.8916   44.3574    4.6781 C   0  0  0  0  0  0  0  0  0  0  0  0
   12.9558   44.8126    3.6448 C   0  0  0  0  0  0  0  0  0  0  0  0
   13.2014   45.8073    2.7214 C   0  0  0  0  0  0  0  0  0  0  0  0
   12.0436   45.8823    1.9668 C   0  0  0  0  0  0  0  0  0  0  0  0
   11.1753   44.9330    2.4785 C   0  0  0  0  0  0  0  0  0  0  0  0
   13.7128   41.7198    7.4062 C   0  0  0  0  0  0  0  0  0  0  0  0
   11.1994   35.4598   10.1005 C   0  0  0  0  0  0  0  0  0  0  0  0
   11.5904   34.1576    9.7749 C   0  0  0  0  0  0  0  0  0  0  0  0
   11.9176   38.6200    9.8509 N   0  0  0  0  0  0  0  0  0  0  0  0
   13.8473   40.0799    9.2642 N   0  0  0  0  0  0  0  0  0  0  0  0
   13.4931   43.3090    5.5719 N   0  0  0  0  0  0  0  0  0  0  0  0
   12.3304   39.2966    7.6488 O   0  0  0  0  0  0  0  0  0  0  0  0
   15.0304   44.8904    4.7695 O   0  0  0  0  0  0  0  0  0  0  0  0
   11.7566   44.3161    3.4787 O   0  0  0  0  0  0  0  0  0  0  0  0
  3  1  1  0
  4  5  2  0
  6 23  2  0
  7  6  1  0
  7 25  1  0
  8 25  1  0
  8  9  1  0
  9 10  1  0
 10 26  1  0
 11 25  1  0
 13 14  2  0
 15 16  2  0
 16 27  1  0
 17 18  1  0
 18 30  1  0
 19 20  1  0
 21 30  1  0
 22 12  2  0
 24  2  1  0
 24  3  2  0
 26 11  1  0
 26 12  1  0
 27 17  1  0
  3  4  1  0
  5  6  1  0
 11 28  2  0
 12 13  1  0
 14 15  1  0
 16 22  1  0
 17 29  2  0
 18 19  2  0
 20 21  2  0
 23 24  1  0
M  END
>  <rmsd>  (1) 
0.249247044

$$$$
