MolPort-047-152-614 MCULE-3835555102 MCULE-4567635678 PubChem-145944756 PubChem-83404161
     RDKit          3D

 16 17  0  0  0  0  0  0  0  0999 V2000
   13.0090   44.8229    3.5809 C   0  0  0  0  0  0  0  0  0  0  0  0
   13.9138   44.3568    4.6634 C   0  0  0  0  0  0  0  0  0  0  0  0
   14.2126   42.7449    6.6338 C   0  0  0  0  0  0  0  0  0  0  0  0
   15.5058   43.1791    6.9634 C   0  0  0  0  0  0  0  0  0  0  0  0
   16.1943   42.6018    8.0334 C   0  0  0  0  0  0  0  0  0  0  0  0
   15.5951   41.5861    8.7819 C   0  0  0  0  0  0  0  0  0  0  0  0
   14.3028   41.1444    8.4612 C   0  0  0  0  0  0  0  0  0  0  0  0
   13.6194   41.7271    7.3885 C   0  0  0  0  0  0  0  0  0  0  0  0
   13.6384   40.0587    9.2464 C   0  0  2  0  0  0  0  0  0  0  0  0
   13.4189   40.4905   10.7006 C   0  0  0  0  0  0  0  0  0  0  0  0
   13.0775   39.2876   11.5775 C   0  0  0  0  0  0  0  0  0  0  0  0
   14.0871   38.1382   11.4119 C   0  0  0  0  0  0  0  0  0  0  0  0
   14.4115   38.7348    9.1317 C   0  0  0  0  0  0  0  0  0  0  0  0
   15.0495   44.8859    4.7892 O   0  0  0  0  0  0  0  0  0  0  0  0
   13.4754   43.3136    5.5430 N   0  0  0  0  0  0  0  0  0  0  0  0
   15.0943   38.4150   10.3840 N   0  0  0  0  0  0  0  0  0  0  0  0
  1  2  1  0
  2 15  1  0
  4  5  2  0
  6  7  2  0
  8  3  2  0
  9  7  1  6
  9 10  1  0
 10 11  1  0
 11 12  1  0
 12 16  1  0
 13 16  1  0
 13  9  1  0
 15  3  1  0
  2 14  2  0
  3  4  1  0
  5  6  1  0
  7  8  1  0
M  END
>  <rmsd>  (1) 
0.240562379

$$$$
