MolPort-029-900-191 96153777 CSC047926571 CSSS00047926571 MCULE-7326517109 PubChem-72905603 ZINC000096153777 ZINC96153777
     RDKit          3D

 24 25  0  0  0  0  0  0  0  0999 V2000
   16.3333   48.3762    3.4365 C   0  0  0  0  0  0  0  0  0  0  0  0
   16.0196   47.2376    1.4223 C   0  0  0  0  0  0  0  0  0  0  0  0
   13.4135   47.2194    3.4357 C   0  0  0  0  0  0  0  0  0  0  0  0
   13.4060   45.8924    2.6967 C   0  0  0  0  0  0  0  0  0  0  0  0
   13.9164   44.3667    4.6529 C   0  0  0  0  0  0  0  0  0  0  0  0
   14.1928   42.7493    6.6233 C   0  0  0  0  0  0  0  0  0  0  0  0
   13.5902   41.7293    7.3674 C   0  0  0  0  0  0  0  0  0  0  0  0
   14.2571   41.1418    8.4476 C   0  0  0  0  0  0  0  0  0  0  0  0
   14.1936   39.4931   10.3037 C   0  0  0  0  0  0  0  0  0  0  0  0
   14.0497   40.3867   11.5268 C   0  0  0  0  0  0  0  0  0  0  0  0
   13.0421   39.7149   12.4340 C   0  0  0  0  0  0  0  0  0  0  0  0
   13.1042   38.2494   12.0791 C   0  0  0  0  0  0  0  0  0  0  0  0
   13.4349   38.2132   10.6038 C   0  0  0  0  0  0  0  0  0  0  0  0
   15.5469   41.5828    8.7834 C   0  0  0  0  0  0  0  0  0  0  0  0
   16.1559   42.6012    8.0468 C   0  0  0  0  0  0  0  0  0  0  0  0
   15.4812   43.1827    6.9708 C   0  0  0  0  0  0  0  0  0  0  0  0
   15.7039   48.4663    2.1300 N   0  0  0  0  0  0  0  0  0  0  0  0
   13.0514   44.8131    3.6064 N   0  0  0  0  0  0  0  0  0  0  0  0
   13.4689   43.3215    5.5254 N   0  0  0  0  0  0  0  0  0  0  0  0
   13.9840   48.5342    2.3693 S   0  0  0  0  0  0  0  0  0  0  0  0
   13.6337   49.8486    3.0086 O   0  0  0  0  0  0  0  0  0  0  0  0
   13.2863   48.4439    1.0400 O   0  0  0  0  0  0  0  0  0  0  0  0
   15.0565   44.8865    4.7955 O   0  0  0  0  0  0  0  0  0  0  0  0
   13.6188   40.1234    9.1638 O   0  0  0  0  0  0  0  0  0  0  0  0
  1 17  1  0
  2 17  1  0
  3  4  1  0
  4 18  1  0
  5 19  1  0
  7  8  2  0
  8 24  1  0
  9 24  1  0
  9 10  1  0
 10 11  1  0
 11 12  1  0
 12 13  1  0
 13  9  1  0
 14 15  2  0
 16  6  2  0
 18  5  1  0
 19  6  1  0
 20 17  1  0
 20  3  1  0
  5 23  2  0
  6  7  1  0
  8 14  1  0
 15 16  1  0
 20 21  2  0
 20 22  2  0
M  END
>  <rmsd>  (1) 
0.24748899

$$$$
