MolPort-004-986-189 CSSS00159779203 MCULE-3938171623 PubChem-45162554
     RDKit          3D

 34 37  0  0  0  0  0  0  0  0999 V2000
   11.7115   39.6768    4.8529 C   0  0  0  0  0  0  0  0  0  0  0  0
   13.3663   40.3830    6.5343 C   0  0  0  0  0  0  0  0  0  0  0  0
   14.2054   41.4527    7.1169 C   0  0  0  0  0  0  0  0  0  0  0  0
   14.2833   42.7652    6.6435 C   0  0  0  0  0  0  0  0  0  0  0  0
   13.8519   44.4497    4.7727 C   0  0  0  0  0  0  0  0  0  0  0  0
   12.8359   45.0760    3.9092 C   0  0  0  0  0  0  0  0  0  0  0  0
   11.5247   44.5784    3.8830 C   0  0  0  0  0  0  0  0  0  0  0  0
   10.5592   45.1725    3.0649 C   0  0  0  0  0  0  0  0  0  0  0  0
   10.8979   46.2688    2.2672 C   0  0  0  0  0  0  0  0  0  0  0  0
   12.2017   46.7712    2.2874 C   0  0  0  0  0  0  0  0  0  0  0  0
   13.1673   46.1773    3.1056 C   0  0  0  0  0  0  0  0  0  0  0  0
   15.1454   43.4349    7.4942 C   0  0  0  0  0  0  0  0  0  0  0  0
   15.5311   44.7691    7.5845 C   0  0  0  0  0  0  0  0  0  0  0  0
   16.3959   45.1283    8.6322 C   0  0  0  0  0  0  0  0  0  0  0  0
   17.6559   46.9757    9.8445 C   0  0  0  0  0  0  0  0  0  0  0  0
   16.8163   47.6325   10.9399 C   0  0  0  0  0  0  0  0  0  0  0  0
   16.0361   48.8070   10.3786 C   0  0  0  0  0  0  0  0  0  0  0  0
   15.8541   46.6366   11.5606 C   0  0  0  0  0  0  0  0  0  0  0  0
   17.7466   48.1417   12.0200 C   0  0  0  0  0  0  0  0  0  0  0  0
   16.8233   44.1408    9.5533 C   0  0  0  0  0  0  0  0  0  0  0  0
   15.5703   42.5157    8.4145 C   0  0  0  0  0  0  0  0  0  0  0  0
   15.1931   40.1256    9.0364 C   0  0  0  0  0  0  0  0  0  0  0  0
   14.3368   40.2283   10.2891 C   0  0  2  0  0  0  0  0  0  0  0  0
   14.6276   39.0609   11.2007 C   0  0  0  0  0  0  0  0  0  0  0  0
   13.2814   38.6793   11.7375 C   0  0  0  0  0  0  0  0  0  0  0  0
   12.3349   39.6528   11.0753 C   0  0  0  0  0  0  0  0  0  0  0  0
   12.5357   40.6673    5.4485 O   0  0  0  0  0  0  0  0  0  0  0  0
   13.4036   39.2162    7.0115 O   0  0  0  0  0  0  0  0  0  0  0  0
   15.0347   44.8863    4.7683 O   0  0  0  0  0  0  0  0  0  0  0  0
   12.9748   40.1998    9.9542 O   0  0  0  0  0  0  0  0  0  0  0  0
   13.5038   43.3122    5.5713 N   0  0  0  0  0  0  0  0  0  0  0  0
   16.8288   46.4864    8.7455 N   0  0  0  0  0  0  0  0  0  0  0  0
   16.3982   42.8478    9.4375 N   0  0  0  0  0  0  0  0  0  0  0  0
   15.0172   41.3078    8.1996 N   0  0  0  0  0  0  0  0  0  0  0  0
  1 27  1  0
  2 27  1  0
  2  3  1  0
  4 31  1  0
  4 12  1  0
  5  6  1  0
  7  8  2  0
  9 10  2  0
 11  6  2  0
 13 14  2  0
 14 32  1  0
 15 32  1  0
 15 16  1  0
 16 17  1  0
 16 18  1  0
 16 19  1  0
 20 33  2  0
 21 34  1  0
 21 12  2  0
 22 34  1  0
 23 22  1  6
 23 24  1  0
 23 30  1  0
 24 25  1  0
 25 26  1  0
 26 30  1  0
 31  5  1  0
 34  3  1  0
  2 28  2  0
  3  4  2  0
  5 29  2  0
  6  7  1  0
  8  9  1  0
 10 11  1  0
 12 13  1  0
 14 20  1  0
 21 33  1  0
M  END
>  <rmsd>  (1) 
0.16585733

$$$$
