MolPort-039-109-620 299761846 CSSS00159666548 MCULE-1474929588 PubChem-118771978 ZINC000299761846
     RDKit          3D

 26 29  0  0  0  0  0  0  0  0999 V2000
   16.2980   47.1298    2.7045 C   0  0  0  0  0  0  0  0  0  0  0  0
   16.3842   45.5913    0.7490 C   0  0  0  0  0  0  0  0  0  0  0  0
   15.4932   44.7272    0.1333 C   0  0  0  0  0  0  0  0  0  0  0  0
   14.5026   45.6370    1.7897 C   0  0  0  0  0  0  0  0  0  0  0  0
   13.4461   45.9933    2.7877 C   0  0  0  0  0  0  0  0  0  0  0  0
   11.7013   44.3033    3.4525 C   0  0  0  0  0  0  0  0  0  0  0  0
   11.3727   43.9802    2.0028 C   0  0  0  0  0  0  0  0  0  0  0  0
   11.7360   42.8669    2.9559 C   0  0  0  0  0  0  0  0  0  0  0  0
   13.9182   44.3652    4.6405 C   0  0  0  0  0  0  0  0  0  0  0  0
   14.1926   42.7459    6.6151 C   0  0  0  0  0  0  0  0  0  0  0  0
   13.5813   41.7383    7.3687 C   0  0  0  0  0  0  0  0  0  0  0  0
   14.2492   41.1444    8.4446 C   0  0  0  0  0  0  0  0  0  0  0  0
   14.1777   39.5049   10.3083 C   0  0  0  0  0  0  0  0  0  0  0  0
   13.4078   38.2352   10.6191 C   0  0  0  0  0  0  0  0  0  0  0  0
   13.1489   38.2531   12.1081 C   0  0  0  0  0  0  0  0  0  0  0  0
   13.1000   39.7148   12.4810 C   0  0  0  0  0  0  0  0  0  0  0  0
   14.0551   40.4038   11.5303 C   0  0  0  0  0  0  0  0  0  0  0  0
   15.5491   41.5660    8.7662 C   0  0  0  0  0  0  0  0  0  0  0  0
   16.1674   42.5710    8.0190 C   0  0  0  0  0  0  0  0  0  0  0  0
   15.4915   43.1589    6.9471 C   0  0  0  0  0  0  0  0  0  0  0  0
   15.7423   46.1516    1.7851 N   0  0  0  0  0  0  0  0  0  0  0  0
   14.3116   44.7588    0.7885 N   0  0  0  0  0  0  0  0  0  0  0  0
   13.0649   44.8216    3.5748 N   0  0  0  0  0  0  0  0  0  0  0  0
   13.4678   43.3236    5.5209 N   0  0  0  0  0  0  0  0  0  0  0  0
   15.0561   44.8854    4.7994 O   0  0  0  0  0  0  0  0  0  0  0  0
   13.6022   40.1387    9.1709 O   0  0  0  0  0  0  0  0  0  0  0  0
  1 21  1  0
  3 22  1  0
  4 21  1  0
  5  4  1  0
  5 23  1  0
  6 23  1  0
  6  7  1  0
  7  8  1  0
  8  6  1  0
  9 24  1  0
 11 12  2  0
 12 26  1  0
 13 26  1  0
 13 14  1  0
 14 15  1  0
 15 16  1  0
 16 17  1  0
 17 13  1  0
 18 19  2  0
 20 10  2  0
 21  2  1  0
 23  9  1  0
 24 10  1  0
  2  3  2  0
  4 22  2  0
  9 25  2  0
 10 11  1  0
 12 18  1  0
 19 20  1  0
M  END
>  <rmsd>  (1) 
0.249628723

$$$$
