Molport-046-870-217 MCULE-6959025151 PubChem-165781869
     RDKit          3D

 21 21  0  0  0  0  0  0  0  0999 V2000
   13.4223   39.2364   11.3599 C   0  0  0  0  0  0  0  0  0  0  0  0
   13.7268   40.0031    9.1804 C   0  0  0  0  0  0  0  0  0  0  0  0
   14.3919   41.0957    8.4035 C   0  0  0  0  0  0  0  0  0  0  0  0
   15.7034   41.5211    8.6893 C   0  0  0  0  0  0  0  0  0  0  0  0
   16.2776   42.5480    7.9353 C   0  0  0  0  0  0  0  0  0  0  0  0
   15.5579   43.1488    6.9001 C   0  0  0  0  0  0  0  0  0  0  0  0
   14.2544   42.7260    6.6044 C   0  0  0  0  0  0  0  0  0  0  0  0
   13.8952   44.3745    4.6731 C   0  0  0  0  0  0  0  0  0  0  0  0
   13.2757   45.8675    2.7563 C   0  0  0  0  0  0  0  0  0  0  0  0
   14.4613   45.5040    1.8792 C   0  0  0  0  0  0  0  0  0  0  0  0
   12.0636   46.0550    1.8687 C   0  0  0  0  0  0  0  0  0  0  0  0
   13.5503   47.1764    3.4765 C   0  0  0  0  0  0  0  0  0  0  0  0
   13.6818   41.6983    7.3598 C   0  0  0  0  0  0  0  0  0  0  0  0
   12.1166   40.9963   10.5641 C   0  0  0  0  0  0  0  0  0  0  0  0
   12.1237   42.3412   11.2691 C   0  0  0  0  0  0  0  0  0  0  0  0
   13.4596   40.4367   10.5439 N   0  0  0  0  0  0  0  0  0  0  0  0
   13.4848   43.3161    5.5479 N   0  0  0  0  0  0  0  0  0  0  0  0
   16.6586   40.7856    9.9678 Cl  0  0  0  0  0  0  0  0  0  0  0  0
   12.9997   44.8229    3.6927 O   0  0  0  0  0  0  0  0  0  0  0  0
   15.0395   44.8942    4.7814 O   0  0  0  0  0  0  0  0  0  0  0  0
   12.8286   43.2736   10.5075 O   0  0  0  0  0  0  0  0  0  0  0  0
  1 16  1  0
  2 16  1  0
  2  3  1  0
  4 18  1  0
  4  5  2  0
  6  7  2  0
  7 17  1  0
  8 19  1  0
  9 19  1  0
  9 10  1  0
  9 11  1  0
  9 12  1  0
 13  3  2  0
 14 16  1  0
 14 15  1  0
 15 21  1  0
 17  8  1  0
  3  4  1  0
  5  6  1  0
  7 13  1  0
  8 20  2  0
M  END
>  <rmsd>  (1) 
0.230710924

$$$$
