MolPort-035-706-986 CSSS03437789241 PubChem-102551604
     RDKit          3D

 28 30  0  0  0  0  0  0  0  0999 V2000
   13.0868   35.3495    8.4107 C   0  0  0  0  0  0  0  0  0  0  0  0
   14.2609   36.1377    7.8557 C   0  0  0  0  0  0  0  0  0  0  0  0
   14.5042   37.8111    9.6657 C   0  0  0  0  0  0  0  0  0  0  0  0
   14.3901   39.2427   10.1161 C   0  0  1  0  0  0  0  0  0  0  0  0
   13.5032   39.3127   11.3505 C   0  0  0  0  0  0  0  0  0  0  0  0
   14.3488   41.0480    8.3616 C   0  0  0  0  0  0  0  0  0  0  0  0
   13.6432   41.6705    7.3265 C   0  0  0  0  0  0  0  0  0  0  0  0
   14.2269   42.7118    6.5956 C   0  0  0  0  0  0  0  0  0  0  0  0
   13.9074   44.3685    4.6648 C   0  0  0  0  0  0  0  0  0  0  0  0
   13.0022   44.8268    3.6062 C   0  0  0  0  0  0  0  0  0  0  0  0
   13.3460   45.7977    2.7625 C   0  0  0  0  0  0  0  0  0  0  0  0
   12.4617   46.2695    1.6879 C   0  0  0  0  0  0  0  0  0  0  0  0
   11.1819   45.7252    1.4883 C   0  0  0  0  0  0  0  0  0  0  0  0
   10.3720   46.1935    0.4486 C   0  0  0  0  0  0  0  0  0  0  0  0
   10.8354   47.2063   -0.3962 C   0  0  0  0  0  0  0  0  0  0  0  0
   12.1074   47.7534   -0.1992 C   0  0  0  0  0  0  0  0  0  0  0  0
   12.9172   47.2858    0.8410 C   0  0  0  0  0  0  0  0  0  0  0  0
   15.5285   43.1293    6.9148 C   0  0  0  0  0  0  0  0  0  0  0  0
   16.2344   42.5128    7.9516 C   0  0  0  0  0  0  0  0  0  0  0  0
   15.6442   41.4725    8.6726 C   0  0  0  0  0  0  0  0  0  0  0  0
   15.7650   39.7749   10.4737 C   0  0  0  0  0  0  0  0  0  0  0  0
   14.2292   37.4776    8.3340 O   0  0  0  0  0  0  0  0  0  0  0  0
   14.8701   36.9192   10.4825 O   0  0  0  0  0  0  0  0  0  0  0  0
   13.7501   40.0080    9.0815 O   0  0  0  0  0  0  0  0  0  0  0  0
   15.0472   44.8930    4.7978 O   0  0  0  0  0  0  0  0  0  0  0  0
   16.4071   39.2722   11.4345 O   0  0  0  0  0  0  0  0  0  0  0  0
   13.4737   43.3157    5.5347 N   0  0  0  0  0  0  0  0  0  0  0  0
   16.3525   40.8451    9.7350 N   0  0  0  0  0  0  0  0  0  0  0  0
  1  2  1  0
  2 22  1  0
  3 22  1  0
  4  3  1  0
  4  5  1  1
  4 24  1  0
  4 21  1  0
  6 24  1  0
  7  8  2  0
  8 27  1  0
  9 10  1  0
 11 12  1  0
 13 14  2  0
 15 16  2  0
 17 12  2  0
 18 19  2  0
 20 28  1  0
 20  6  2  0
 27  9  1  0
 28 21  1  0
  3 23  2  0
  6  7  1  0
  8 18  1  0
  9 25  2  0
 10 11  2  0
 12 13  1  0
 14 15  1  0
 16 17  1  0
 19 20  1  0
 21 26  2  0
M  END
>  <rmsd>  (1) 
0.233428597

$$$$
