MolPort-020-293-088 MCULE-1520767777 PubChem-110265555
     RDKit          3D

 33 36  0  0  0  0  0  0  0  0999 V2000
   12.8309   29.4563    8.6067 C   0  0  0  0  0  0  0  0  0  0  0  0
   12.1033   30.7795    8.4804 C   0  0  0  0  0  0  0  0  0  0  0  0
   10.6375   30.5224    8.1994 C   0  0  0  0  0  0  0  0  0  0  0  0
   12.8471   32.7648    9.7668 C   0  0  0  0  0  0  0  0  0  0  0  0
   12.9631   33.4110   11.0103 C   0  0  0  0  0  0  0  0  0  0  0  0
   13.5906   34.6582   11.0951 C   0  0  0  0  0  0  0  0  0  0  0  0
   14.0938   35.2751    9.9461 C   0  0  0  0  0  0  0  0  0  0  0  0
   13.9666   34.6456    8.7049 C   0  0  0  0  0  0  0  0  0  0  0  0
   13.3499   33.3947    8.6155 C   0  0  0  0  0  0  0  0  0  0  0  0
   14.7373   36.6172   10.0425 C   0  0  0  0  0  0  0  0  0  0  0  0
   13.2054   38.0477   11.1402 C   0  0  0  0  0  0  0  0  0  0  0  0
   13.7403   39.3793   11.6737 C   0  0  0  0  0  0  0  0  0  0  0  0
   13.4408   40.5016   10.6806 C   0  0  0  0  0  0  0  0  0  0  0  0
   13.6723   40.0713    9.2254 C   0  0  2  0  0  0  0  0  0  0  0  0
   14.4565   38.7596    9.1332 C   0  0  0  0  0  0  0  0  0  0  0  0
   14.3381   41.1592    8.4449 C   0  0  0  0  0  0  0  0  0  0  0  0
   14.2229   42.7262    6.6533 C   0  0  0  0  0  0  0  0  0  0  0  0
   15.5111   43.1868    6.9600 C   0  0  0  0  0  0  0  0  0  0  0  0
   16.2114   42.6204    8.0248 C   0  0  0  0  0  0  0  0  0  0  0  0
   15.6266   41.6017    8.7754 C   0  0  0  0  0  0  0  0  0  0  0  0
   13.8457   44.3267    4.6740 C   0  0  0  0  0  0  0  0  0  0  0  0
   13.2998   45.7189    2.8399 C   0  0  0  0  0  0  0  0  0  0  0  0
   14.5484   46.3330    2.9166 C   0  0  0  0  0  0  0  0  0  0  0  0
   15.4328   45.9084    3.9057 C   0  0  0  0  0  0  0  0  0  0  0  0
   12.4577   32.7693   12.2578 C   0  0  0  0  0  0  0  0  0  0  0  0
   13.1021   31.8466   14.1543 C   0  0  0  0  0  0  0  0  0  0  0  0
   12.2326   31.5086    9.6948 O   0  0  0  0  0  0  0  0  0  0  0  0
   13.4551   31.9658   12.8111 O   0  0  0  0  0  0  0  0  0  0  0  0
   13.7542   37.6679    9.8208 N   0  0  0  0  0  0  0  0  0  0  0  0
   13.6757   41.7305    7.4026 N   0  0  0  0  0  0  0  0  0  0  0  0
   13.4565   43.2808    5.5748 N   0  0  0  0  0  0  0  0  0  0  0  0
   12.9724   44.7322    3.7142 N   0  0  0  0  0  0  0  0  0  0  0  0
   15.0690   44.9184    4.7617 N   0  0  0  0  0  0  0  0  0  0  0  0
  1  2  1  0
  2  3  1  0
  2 27  1  0
  4 27  1  0
  5  6  2  0
  7  8  2  0
  9  4  2  0
 10  7  1  0
 10 29  1  0
 11 29  1  0
 11 12  1  0
 12 13  1  0
 13 14  1  0
 14 15  1  0
 14 16  1  6
 15 29  1  0
 17 30  2  0
 17 31  1  0
 18 19  2  0
 20 16  2  0
 21 33  2  0
 22 32  2  0
 23 24  2  0
 25  5  1  0
 25 28  1  0
 26 28  1  0
 31 21  1  0
  4  5  1  0
  6  7  1  0
  8  9  1  0
 16 30  1  0
 17 18  1  0
 19 20  1  0
 21 32  1  0
 22 23  1  0
 24 33  1  0
M  END
>  <rmsd>  (1) 
0.247526988

$$$$
