MolPort-010-714-222 ChemDiv-D481-2665 MCULE-5981365152 PubChem-50751107 ZINC000033320748 ZINC33320748
     RDKit          3D

 35 39  0  0  0  0  0  0  0  0999 V2000
   12.9464   44.8539    3.6417 C   0  0  0  0  0  0  0  0  0  0  0  0
   13.8908   44.3714    4.6831 C   0  0  0  0  0  0  0  0  0  0  0  0
   14.2520   42.7542    6.6419 C   0  0  0  0  0  0  0  0  0  0  0  0
   13.7089   41.6961    7.3794 C   0  0  0  0  0  0  0  0  0  0  0  0
   14.4184   41.1395    8.4454 C   0  0  0  0  0  0  0  0  0  0  0  0
   15.6810   41.6382    8.7958 C   0  0  0  0  0  0  0  0  0  0  0  0
   16.2232   42.6923    8.0473 C   0  0  0  0  0  0  0  0  0  0  0  0
   15.5147   43.2460    6.9803 C   0  0  0  0  0  0  0  0  0  0  0  0
   16.4601   41.0811    9.9258 C   0  0  0  0  0  0  0  0  0  0  0  0
   17.1057   40.0033   11.6371 C   0  0  0  0  0  0  0  0  0  0  0  0
   17.6623   37.5603   12.4663 C   0  0  0  0  0  0  0  0  0  0  0  0
   16.6797   36.4662   12.7217 C   0  0  0  0  0  0  0  0  0  0  0  0
   16.8957   35.7098   10.3335 C   0  0  0  0  0  0  0  0  0  0  0  0
   15.8464   35.4037    9.2724 C   0  0  0  0  0  0  0  0  0  0  0  0
   15.2878   34.0381    9.5054 C   0  0  0  0  0  0  0  0  0  0  0  0
   14.9441   33.2300    8.4100 C   0  0  0  0  0  0  0  0  0  0  0  0
   14.4289   31.9477    8.6160 C   0  0  0  0  0  0  0  0  0  0  0  0
   14.2481   31.4775    9.9164 C   0  0  0  0  0  0  0  0  0  0  0  0
   14.5947   32.2808   11.0122 C   0  0  0  0  0  0  0  0  0  0  0  0
   15.1163   33.5593   10.8125 C   0  0  0  0  0  0  0  0  0  0  0  0
   15.4672   34.4055   12.0111 C   0  0  0  0  0  0  0  0  0  0  0  0
   14.6899   39.7213   11.0916 C   0  0  0  0  0  0  0  0  0  0  0  0
   14.4595   38.3485   10.9442 C   0  0  0  0  0  0  0  0  0  0  0  0
   13.1770   37.8314   11.1009 C   0  0  0  0  0  0  0  0  0  0  0  0
   12.1119   38.6844   11.4136 C   0  0  0  0  0  0  0  0  0  0  0  0
   12.3402   40.0526   11.5693 C   0  0  0  0  0  0  0  0  0  0  0  0
   13.6293   40.5717   11.4086 C   0  0  0  0  0  0  0  0  0  0  0  0
   15.0384   44.8919    4.7667 O   0  0  0  0  0  0  0  0  0  0  0  0
   16.2289   36.2979   13.8929 O   0  0  0  0  0  0  0  0  0  0  0  0
   13.4872   43.3132    5.5623 N   0  0  0  0  0  0  0  0  0  0  0  0
   17.7822   41.3194   10.0849 N   0  0  0  0  0  0  0  0  0  0  0  0
   18.1777   40.6528   11.1601 N   0  0  0  0  0  0  0  0  0  0  0  0
   16.3066   35.5630   11.6696 N   0  0  0  0  0  0  0  0  0  0  0  0
   16.0043   40.2502   10.8925 N   0  0  0  0  0  0  0  0  0  0  0  0
   17.1030   39.1221   13.1953 S   0  0  0  0  0  0  0  0  0  0  0  0
  1  2  1  0
  2 30  1  0
  4  5  2  0
  6  7  2  0
  6  9  1  0
  8  3  2  0
 10 35  1  0
 10 34  1  0
 11 35  1  0
 11 12  1  0
 12 33  1  0
 13 33  1  0
 13 14  1  0
 14 15  1  0
 16 17  2  0
 18 19  2  0
 20 15  2  0
 21 20  1  0
 21 33  1  0
 23 24  2  0
 25 26  2  0
 27 22  2  0
 30  3  1  0
 31 32  1  0
 34 22  1  0
 34  9  1  0
  2 28  2  0
  3  4  1  0
  5  6  1  0
  7  8  1  0
  9 31  2  0
 10 32  2  0
 12 29  2  0
 15 16  1  0
 17 18  1  0
 19 20  1  0
 22 23  1  0
 24 25  1  0
 26 27  1  0
M  END
>  <rmsd>  (1) 
0.23820141

$$$$
