Molport-020-278-644 MCULE-4525318161 PubChem-110255516
     RDKit          3D

 25 27  0  0  0  0  0  0  0  0999 V2000
   17.6013   43.0043    8.3090 C   0  0  0  0  0  0  0  0  0  0  0  0
   16.2209   42.5614    7.9828 C   0  0  0  0  0  0  0  0  0  0  0  0
   15.5292   43.1554    6.9295 C   0  0  0  0  0  0  0  0  0  0  0  0
   14.2311   42.7180    6.6450 C   0  0  0  0  0  0  0  0  0  0  0  0
   14.3699   41.1597    8.4262 C   0  0  0  0  0  0  0  0  0  0  0  0
   13.7293   40.0760    9.2279 C   0  0  2  0  0  0  0  0  0  0  0  0
   13.6157   40.4857   10.6978 C   0  0  0  0  0  0  0  0  0  0  0  0
   12.9583   39.3728   11.5112 C   0  0  0  0  0  0  0  0  0  0  0  0
   13.7660   38.0853   11.3801 C   0  0  0  0  0  0  0  0  0  0  0  0
   14.5149   38.7718    9.0913 C   0  0  0  0  0  0  0  0  0  0  0  0
   13.5138   36.4906    9.4397 C   0  0  0  0  0  0  0  0  0  0  0  0
   12.9288   35.4450   10.3299 C   0  0  0  0  0  0  0  0  0  0  0  0
   13.3075   33.8406   11.7946 C   0  0  0  0  0  0  0  0  0  0  0  0
   13.8465   44.3253    4.6727 C   0  0  0  0  0  0  0  0  0  0  0  0
   15.4302   45.9104    3.9057 C   0  0  0  0  0  0  0  0  0  0  0  0
   14.5466   46.3307    2.9138 C   0  0  0  0  0  0  0  0  0  0  0  0
   13.3005   45.7119    2.8339 C   0  0  0  0  0  0  0  0  0  0  0  0
   13.6833   41.7297    7.4010 N   0  0  0  0  0  0  0  0  0  0  0  0
   15.6334   41.5776    8.7107 N   0  0  0  0  0  0  0  0  0  0  0  0
   13.9329   37.7580    9.9663 N   0  0  0  0  0  0  0  0  0  0  0  0
   13.4580   43.2808    5.5754 N   0  0  0  0  0  0  0  0  0  0  0  0
   15.0673   44.9210    4.7630 N   0  0  0  0  0  0  0  0  0  0  0  0
   12.9743   44.7258    3.7098 N   0  0  0  0  0  0  0  0  0  0  0  0
   13.6637   36.2322    8.2156 O   0  0  0  0  0  0  0  0  0  0  0  0
   13.9508   34.6703   10.8776 O   0  0  0  0  0  0  0  0  0  0  0  0
  1  2  1  0
  2 19  2  0
  3  4  2  0
  4 21  1  0
  5 18  2  0
  6  5  1  6
  6  7  1  0
  7  8  1  0
  8  9  1  0
  9 20  1  0
 10 20  1  0
 10  6  1  0
 12 11  1  0
 12 25  1  0
 13 25  1  0
 14 23  2  0
 15 22  2  0
 16 17  2  0
 20 11  1  0
 21 14  1  0
  2  3  1  0
  4 18  1  0
  5 19  1  0
 11 24  2  0
 14 22  1  0
 15 16  1  0
 17 23  1  0
M  END
>  <rmsd>  (1) 
0.239290819

$$$$
