MolPort-005-088-836 CSSS00159778976 MCULE-8090982786 PubChem-45214854
     RDKit          3D

 31 34  0  0  0  0  0  0  0  0999 V2000
   13.6590   45.1216    1.4748 C   0  0  0  0  0  0  0  0  0  0  0  0
   13.0088   44.8536    3.5762 C   0  0  1  0  0  0  0  0  0  0  0  0
   13.9208   44.3654    4.6640 C   0  0  0  0  0  0  0  0  0  0  0  0
   14.2123   42.7548    6.6180 C   0  0  0  0  0  0  0  0  0  0  0  0
   15.4787   43.1256    7.0299 C   0  0  0  0  0  0  0  0  0  0  0  0
   15.7150   42.3007    8.1240 C   0  0  0  0  0  0  0  0  0  0  0  0
   12.4224   41.1633    7.3161 C   0  0  0  0  0  0  0  0  0  0  0  0
   12.5205   39.6296    7.3365 C   0  0  0  0  0  0  0  0  0  0  0  0
   12.1723   39.0331    8.7020 C   0  0  0  0  0  0  0  0  0  0  0  0
   12.4090   39.2546   11.0285 C   0  0  0  0  0  0  0  0  0  0  0  0
   13.7344   38.6633   11.4926 C   0  0  0  0  0  0  0  0  0  0  0  0
   14.7508   39.7564   11.8010 C   0  0  0  0  0  0  0  0  0  0  0  0
   14.0363   41.8497   12.9263 C   0  0  0  0  0  0  0  0  0  0  0  0
   13.6940   42.2262   14.2132 C   0  0  0  0  0  0  0  0  0  0  0  0
   13.8123   41.0695   14.9706 C   0  0  0  0  0  0  0  0  0  0  0  0
   11.6638   41.0897    9.7749 C   0  0  0  0  0  0  0  0  0  0  0  0
   11.4737   41.7242    8.3843 C   0  0  0  0  0  0  0  0  0  0  0  0
   11.7833   45.4940    4.1517 C   0  0  0  0  0  0  0  0  0  0  0  0
   11.8680   46.6865    4.8861 C   0  0  0  0  0  0  0  0  0  0  0  0
   10.7131   47.2645    5.4210 C   0  0  0  0  0  0  0  0  0  0  0  0
    9.4710   46.6543    5.2245 C   0  0  0  0  0  0  0  0  0  0  0  0
    9.3834   45.4660    4.4933 C   0  0  0  0  0  0  0  0  0  0  0  0
   10.5378   44.8868    3.9582 C   0  0  0  0  0  0  0  0  0  0  0  0
   13.6665   45.7469    2.7228 O   0  0  0  0  0  0  0  0  0  0  0  0
   15.0630   44.8788    4.8137 O   0  0  0  0  0  0  0  0  0  0  0  0
   13.4711   43.3140    5.5265 N   0  0  0  0  0  0  0  0  0  0  0  0
   14.6465   41.5029    8.3327 N   0  0  0  0  0  0  0  0  0  0  0  0
   13.7426   41.7816    7.4104 N   0  0  0  0  0  0  0  0  0  0  0  0
   12.5809   39.9478    9.7626 N   0  0  0  0  0  0  0  0  0  0  0  0
   14.3312   40.5415   12.9515 N   0  0  0  0  0  0  0  0  0  0  0  0
   14.2042   40.0590   14.1731 N   0  0  0  0  0  0  0  0  0  0  0  0
  1 24  1  0
  2 24  1  1
  2  3  1  0
  2 18  1  0
  3 26  1  0
  5  6  1  0
  7 28  1  0
  7  8  1  0
  8  9  1  0
  9 29  1  0
 10 29  1  0
 10 11  1  0
 11 12  1  0
 12 30  1  0
 14 15  1  0
 16 29  1  0
 16 17  1  0
 17  7  1  0
 19 20  2  0
 21 22  2  0
 23 18  2  0
 26  4  1  0
 28 27  1  0
 28  4  1  0
 30 13  1  0
 30 31  1  0
  3 25  2  0
  4  5  2  0
  6 27  2  0
 13 14  2  0
 15 31  2  0
 18 19  1  0
 20 21  1  0
 22 23  1  0
M  END
>  <rmsd>  (1) 
0.205116123

$$$$
