MolPort-010-903-878 ChemDiv-M535-1267 MCULE-9362355103 PubChem-53145991 ZINC000065165952 ZINC65165952
     RDKit          3D

 31 34  0  0  0  0  0  0  0  0999 V2000
   16.8687   35.9061   11.0707 C   0  0  0  0  0  0  0  0  0  0  0  0
   16.3865   37.5849   12.8719 C   0  0  0  0  0  0  0  0  0  0  0  0
   16.9449   38.7195   12.2225 C   0  0  0  0  0  0  0  0  0  0  0  0
   17.4046   38.6965   10.7995 C   0  0  0  0  0  0  0  0  0  0  0  0
   16.6244   40.8106    9.6542 C   0  0  0  0  0  0  0  0  0  0  0  0
   15.7569   41.4736    8.6587 C   0  0  0  0  0  0  0  0  0  0  0  0
   14.4172   41.0814    8.4150 C   0  0  0  0  0  0  0  0  0  0  0  0
   13.6975   41.7057    7.3833 C   0  0  0  0  0  0  0  0  0  0  0  0
   14.2720   42.7103    6.6031 C   0  0  0  0  0  0  0  0  0  0  0  0
   13.8979   44.3586    4.6736 C   0  0  0  0  0  0  0  0  0  0  0  0
   12.9439   44.8597    3.6386 C   0  0  0  0  0  0  0  0  0  0  0  0
   13.5477   44.6966    2.2553 C   0  0  0  0  0  0  0  0  0  0  0  0
   12.5049   43.7164    2.7416 C   0  0  0  0  0  0  0  0  0  0  0  0
   15.5852   43.1122    6.8674 C   0  0  0  0  0  0  0  0  0  0  0  0
   16.3180   42.4983    7.8828 C   0  0  0  0  0  0  0  0  0  0  0  0
   13.4196   40.5426   10.6222 C   0  0  0  0  0  0  0  0  0  0  0  0
   13.7351   39.4462   11.6376 C   0  0  0  0  0  0  0  0  0  0  0  0
   13.0437   38.1255   11.3224 C   0  0  0  0  0  0  0  0  0  0  0  0
   13.8251   37.3864   10.2422 C   0  0  0  0  0  0  0  0  0  0  0  0
   13.3931   37.7350    8.8142 C   0  0  0  0  0  0  0  0  0  0  0  0
   12.8561   39.1535    8.6390 C   0  0  0  0  0  0  0  0  0  0  0  0
   17.0437   39.9320   12.9179 C   0  0  0  0  0  0  0  0  0  0  0  0
   16.5869   40.0407   14.2313 C   0  0  0  0  0  0  0  0  0  0  0  0
   16.0219   38.9350   14.8641 C   0  0  0  0  0  0  0  0  0  0  0  0
   15.9233   37.7188   14.1865 C   0  0  0  0  0  0  0  0  0  0  0  0
   16.2573   36.3155   12.2855 O   0  0  0  0  0  0  0  0  0  0  0  0
   17.5628   41.4615   10.1907 O   0  0  0  0  0  0  0  0  0  0  0  0
   15.0340   44.8942    4.7815 O   0  0  0  0  0  0  0  0  0  0  0  0
   16.4722   39.4175    9.9418 N   0  0  0  0  0  0  0  0  0  0  0  0
   13.4883   43.3087    5.5619 N   0  0  0  0  0  0  0  0  0  0  0  0
   13.7395   40.1368    9.2562 N   0  0  0  0  0  0  0  0  0  0  0  0
  1 26  1  0
  2 26  1  0
  3 22  2  0
  4  3  1  0
  4 29  1  0
  5  6  1  0
  6  7  2  0
  7 31  1  0
  8  9  2  0
  9 30  1  0
 11 10  1  0
 11 12  1  0
 12 13  1  0
 13 11  1  0
 14 15  2  0
 16 31  1  0
 16 17  1  0
 17 18  1  0
 18 19  1  0
 19 20  1  0
 20 21  1  0
 21 31  1  0
 23 24  2  0
 25  2  2  0
 29  5  1  0
 30 10  1  0
  2  3  1  0
  5 27  2  0
  7  8  1  0
  9 14  1  0
 10 28  2  0
 15  6  1  0
 22 23  1  0
 24 25  1  0
M  END
>  <rmsd>  (1) 
0.244235694

$$$$
