MolPort-020-295-331 MCULE-2719425301 PubChem-110267413
     RDKit          3D

 28 31  0  0  0  0  0  0  0  0999 V2000
   15.0175   47.4365    2.0027 C   0  0  0  0  0  0  0  0  0  0  0  0
   14.5995   46.3516    2.9279 C   0  0  0  0  0  0  0  0  0  0  0  0
   15.4631   45.9084    3.9309 C   0  0  0  0  0  0  0  0  0  0  0  0
   13.8476   44.3263    4.6725 C   0  0  0  0  0  0  0  0  0  0  0  0
   12.9589   44.7467    3.6790 C   0  0  0  0  0  0  0  0  0  0  0  0
   13.3396   45.7652    2.8034 C   0  0  0  0  0  0  0  0  0  0  0  0
   14.2293   42.7315    6.6344 C   0  0  0  0  0  0  0  0  0  0  0  0
   16.2228   42.6666    7.9097 C   0  0  0  0  0  0  0  0  0  0  0  0
   15.6980   41.6465    8.6995 C   0  0  0  0  0  0  0  0  0  0  0  0
   14.4068   41.1849    8.4204 C   0  0  0  0  0  0  0  0  0  0  0  0
   13.7846   40.0916    9.2288 C   0  0  2  0  0  0  0  0  0  0  0  0
   13.6369   40.5045   10.6957 C   0  0  0  0  0  0  0  0  0  0  0  0
   12.9892   39.3815   11.5023 C   0  0  0  0  0  0  0  0  0  0  0  0
   13.8253   38.1115   11.3843 C   0  0  0  0  0  0  0  0  0  0  0  0
   14.5847   38.7935    9.1051 C   0  0  0  0  0  0  0  0  0  0  0  0
   13.7674   36.4480    9.4727 C   0  0  0  0  0  0  0  0  0  0  0  0
   12.8313   35.5121   10.1388 C   0  0  0  0  0  0  0  0  0  0  0  0
   12.7831   34.1238    9.9955 C   0  0  0  0  0  0  0  0  0  0  0  0
   10.9974   34.3692   11.3677 C   0  0  0  0  0  0  0  0  0  0  0  0
   13.7508   33.3346    9.1826 C   0  0  0  0  0  0  0  0  0  0  0  0
   15.0731   44.9147    4.7741 N   0  0  0  0  0  0  0  0  0  0  0  0
   13.4479   43.2804    5.5664 N   0  0  0  0  0  0  0  0  0  0  0  0
   15.4842   43.1887    6.8967 N   0  0  0  0  0  0  0  0  0  0  0  0
   13.7035   41.7364    7.3966 N   0  0  0  0  0  0  0  0  0  0  0  0
   14.0008   37.7752    9.9738 N   0  0  0  0  0  0  0  0  0  0  0  0
   11.7800   33.5083   10.6782 N   0  0  0  0  0  0  0  0  0  0  0  0
   14.3617   36.0742    8.4253 O   0  0  0  0  0  0  0  0  0  0  0  0
   11.5476   35.9410   11.1383 S   0  0  0  0  0  0  0  0  0  0  0  0
  1  2  1  0
  3 21  2  0
  4  5  2  0
  4 22  1  0
  6  2  2  0
  7 24  2  0
  8 23  2  0
  9 10  2  0
 11 10  1  6
 11 12  1  0
 12 13  1  0
 13 14  1  0
 14 25  1  0
 15 25  1  0
 15 11  1  0
 16 17  1  0
 17 28  1  0
 18 26  1  0
 19 28  1  0
 20 18  1  0
 22  7  1  0
 25 16  1  0
  2  3  1  0
  4 21  1  0
  5  6  1  0
  7 23  1  0
  8  9  1  0
 10 24  1  0
 16 27  2  0
 17 18  2  0
 19 26  2  0
M  END
>  <rmsd>  (1) 
0.240967542

$$$$
