Molport-053-318-354 PubChem-110097713
     RDKit          3D

 26 29  0  0  0  0  0  0  0  0999 V2000
    8.9378   38.6126    7.6625 C   0  0  0  0  0  0  0  0  0  0  0  0
   10.9597   37.5760    8.6558 C   0  0  0  0  0  0  0  0  0  0  0  0
   12.2586   37.3892    8.2322 C   0  0  0  0  0  0  0  0  0  0  0  0
   12.3620   37.9363    6.9669 C   0  0  0  0  0  0  0  0  0  0  0  0
   13.3722   36.7545    9.0168 C   0  0  0  0  0  0  0  0  0  0  0  0
   13.1187   38.0800   11.0106 C   0  0  0  0  0  0  0  0  0  0  0  0
   13.6116   39.3314   11.7339 C   0  0  0  0  0  0  0  0  0  0  0  0
   13.6920   40.5249   10.7774 C   0  0  0  0  0  0  0  0  0  0  0  0
   13.8453   40.0990    9.3130 C   0  0  2  0  0  0  0  0  0  0  0  0
   14.6514   38.8011    9.1892 C   0  0  0  0  0  0  0  0  0  0  0  0
   14.4342   41.1921    8.4821 C   0  0  0  0  0  0  0  0  0  0  0  0
   13.6859   41.7256    7.4305 C   0  0  0  0  0  0  0  0  0  0  0  0
   14.2282   42.7447    6.6439 C   0  0  0  0  0  0  0  0  0  0  0  0
   16.2308   42.7042    7.9280 C   0  0  0  0  0  0  0  0  0  0  0  0
   15.7206   41.6852    8.7339 C   0  0  0  0  0  0  0  0  0  0  0  0
   13.8489   44.3221    4.6675 C   0  0  0  0  0  0  0  0  0  0  0  0
   15.4470   45.8989    3.9149 C   0  0  0  0  0  0  0  0  0  0  0  0
   14.5763   46.3198    2.9117 C   0  0  0  0  0  0  0  0  0  0  0  0
   13.3289   45.7051    2.8191 C   0  0  0  0  0  0  0  0  0  0  0  0
   10.3313   38.2100    7.6523 N   0  0  0  0  0  0  0  0  0  0  0  0
   11.1529   38.4320    6.6401 N   0  0  0  0  0  0  0  0  0  0  0  0
   14.0449   37.6803    9.9367 N   0  0  0  0  0  0  0  0  0  0  0  0
   15.4819   43.2075    6.9104 N   0  0  0  0  0  0  0  0  0  0  0  0
   13.4493   43.2822    5.5684 N   0  0  0  0  0  0  0  0  0  0  0  0
   15.0710   44.9131    4.7706 N   0  0  0  0  0  0  0  0  0  0  0  0
   12.9890   44.7226    3.6936 N   0  0  0  0  0  0  0  0  0  0  0  0
  1 20  1  0
  3  4  1  0
  5  3  1  0
  5 22  1  0
  6 22  1  0
  6  7  1  0
  7  8  1  0
  8  9  1  0
  9 10  1  0
  9 11  1  6
 10 22  1  0
 12 13  2  0
 13 24  1  0
 14 23  2  0
 15 11  2  0
 16 26  2  0
 17 25  2  0
 18 19  2  0
 20  2  1  0
 20 21  1  0
 24 16  1  0
  2  3  2  0
  4 21  2  0
 11 12  1  0
 13 23  1  0
 14 15  1  0
 16 25  1  0
 17 18  1  0
 19 26  1  0
M  END
>  <rmsd>  (1) 
0.249506682

$$$$
