Molport-020-292-488 MCULE-5409681055 PubChem-110264956
     RDKit          3D

 28 31  0  0  0  0  0  0  0  0999 V2000
   11.6128   44.1483    3.5010 C   0  0  0  0  0  0  0  0  0  0  0  0
   12.9639   44.7576    3.6578 C   0  0  0  0  0  0  0  0  0  0  0  0
   13.8479   44.3317    4.6633 C   0  0  0  0  0  0  0  0  0  0  0  0
   15.4726   45.9102    3.9259 C   0  0  0  0  0  0  0  0  0  0  0  0
   14.6190   46.3566    2.9170 C   0  0  0  0  0  0  0  0  0  0  0  0
   13.3585   45.7742    2.7861 C   0  0  0  0  0  0  0  0  0  0  0  0
   14.2119   42.7302    6.6469 C   0  0  0  0  0  0  0  0  0  0  0  0
   13.6464   41.7031    7.4064 C   0  0  0  0  0  0  0  0  0  0  0  0
   14.3671   41.1471    8.4667 C   0  0  0  0  0  0  0  0  0  0  0  0
   16.1903   42.6064    8.0309 C   0  0  0  0  0  0  0  0  0  0  0  0
   15.4980   43.1848    6.9657 C   0  0  0  0  0  0  0  0  0  0  0  0
   17.5549   43.0828    8.3753 C   0  0  0  0  0  0  0  0  0  0  0  0
   13.7584   40.0468    9.2706 C   0  0  2  0  0  0  0  0  0  0  0  0
   13.6283   40.4559   10.7393 C   0  0  0  0  0  0  0  0  0  0  0  0
   13.0004   39.3256   11.5528 C   0  0  0  0  0  0  0  0  0  0  0  0
   13.8430   38.0599   11.4253 C   0  0  0  0  0  0  0  0  0  0  0  0
   14.5846   38.7676    9.1414 C   0  0  0  0  0  0  0  0  0  0  0  0
   13.6276   36.4602    9.4943 C   0  0  0  0  0  0  0  0  0  0  0  0
   13.7832   36.1494    8.0360 C   0  0  0  0  0  0  0  0  0  0  0  0
   14.6411   34.9194    7.8250 C   0  0  0  0  0  0  0  0  0  0  0  0
   14.0686   34.2472    6.6000 C   0  0  0  0  0  0  0  0  0  0  0  0
   12.5880   34.5604    6.6263 C   0  0  0  0  0  0  0  0  0  0  0  0
   12.4391   35.8652    7.3875 C   0  0  0  0  0  0  0  0  0  0  0  0
   15.0735   44.9192    4.7673 N   0  0  0  0  0  0  0  0  0  0  0  0
   13.4516   43.2853    5.5646 N   0  0  0  0  0  0  0  0  0  0  0  0
   15.6168   41.6079    8.7535 N   0  0  0  0  0  0  0  0  0  0  0  0
   14.0250   37.7378   10.0127 N   0  0  0  0  0  0  0  0  0  0  0  0
   13.1355   35.5920   10.2671 O   0  0  0  0  0  0  0  0  0  0  0  0
  1  2  1  0
  3 24  2  0
  3 25  1  0
  4  5  2  0
  6  2  2  0
  8  9  2  0
 10 26  2  0
 11  7  2  0
 12 10  1  0
 13  9  1  6
 13 14  1  0
 14 15  1  0
 15 16  1  0
 16 27  1  0
 17 27  1  0
 17 13  1  0
 19 18  1  0
 19 20  1  0
 20 21  1  0
 21 22  1  0
 22 23  1  0
 23 19  1  0
 25  7  1  0
 27 18  1  0
  2  3  1  0
  4 24  1  0
  5  6  1  0
  7  8  1  0
  9 26  1  0
 10 11  1  0
 18 28  2  0
M  END
>  <rmsd>  (1) 
0.244508579

$$$$
