MolPort-035-369-422 215047053 CSSS00160379462 MCULE-4057324543 PubChem-77079754 ZINC000215047053
     RDKit          3D

 21 22  0  0  0  0  0  0  0  0999 V2000
   17.8088   41.6609   11.5397 C   0  0  0  0  0  0  0  0  0  0  0  0
   15.4625   41.7843   12.0403 C   0  0  0  0  0  0  0  0  0  0  0  0
   15.4125   40.4330   12.7096 C   0  0  0  0  0  0  0  0  0  0  0  0
   16.0688   40.0307   13.8536 C   0  0  0  0  0  0  0  0  0  0  0  0
   17.0357   40.8350   14.6505 C   0  0  0  0  0  0  0  0  0  0  0  0
   14.5862   39.3711   12.4091 C   0  0  0  0  0  0  0  0  0  0  0  0
   13.5980   39.3035   11.2981 C   0  0  0  0  0  0  0  0  0  0  0  0
   16.2458   40.9243    9.9319 C   0  0  0  0  0  0  0  0  0  0  0  0
   15.5333   41.5629    8.7879 C   0  0  0  0  0  0  0  0  0  0  0  0
   14.2489   41.1333    8.4431 C   0  0  0  0  0  0  0  0  0  0  0  0
   13.5787   41.7207    7.3661 C   0  0  0  0  0  0  0  0  0  0  0  0
   14.1865   42.7390    6.6235 C   0  0  0  0  0  0  0  0  0  0  0  0
   13.9208   44.3622    4.6577 C   0  0  0  0  0  0  0  0  0  0  0  0
   13.0327   44.8378    3.5658 C   0  0  0  0  0  0  0  0  0  0  0  0
   15.4787   43.1631    6.9699 C   0  0  0  0  0  0  0  0  0  0  0  0
   16.1501   42.5767    8.0464 C   0  0  0  0  0  0  0  0  0  0  0  0
   16.4837   41.9016   10.9880 N   0  0  0  0  0  0  0  0  0  0  0  0
   15.6701   38.7902   14.1927 N   0  0  0  0  0  0  0  0  0  0  0  0
   14.7655   38.3875   13.3111 N   0  0  0  0  0  0  0  0  0  0  0  0
   13.4661   43.3169    5.5263 N   0  0  0  0  0  0  0  0  0  0  0  0
   15.0572   44.8854    4.8012 O   0  0  0  0  0  0  0  0  0  0  0  0
  1 17  1  0
  2 17  1  0
  2  3  1  0
  4 18  1  0
  5  4  1  0
  6  3  1  0
  7  6  1  0
  8 17  1  0
  8  9  1  0
 10 11  2  0
 12 20  1  0
 12 15  2  0
 14 13  1  0
 16  9  2  0
 18 19  1  0
 20 13  1  0
  3  4  2  0
  6 19  2  0
  9 10  1  0
 11 12  1  0
 13 21  2  0
 15 16  1  0
M  END
>  <rmsd>  (1) 
0.248797596

$$$$
