Molport-047-861-766 PubChem-165910249
     RDKit          3D

 19 19  0  0  0  0  0  0  0  0999 V2000
   15.0744   44.7802    1.5701 C   0  0  0  0  0  0  0  0  0  0  0  0
   13.8621   45.3281    1.5818 C   0  0  0  0  0  0  0  0  0  0  0  0
   13.2896   45.9067    2.8361 C   0  0  0  0  0  0  0  0  0  0  0  0
   13.8817   44.3904    4.6965 C   0  0  0  0  0  0  0  0  0  0  0  0
   14.2894   42.6798    6.5628 C   0  0  0  0  0  0  0  0  0  0  0  0
   15.6131   43.0719    6.8159 C   0  0  0  0  0  0  0  0  0  0  0  0
   16.3627   42.4322    7.8069 C   0  0  0  0  0  0  0  0  0  0  0  0
   15.7947   41.3958    8.5519 C   0  0  0  0  0  0  0  0  0  0  0  0
   14.4766   40.9972    8.3052 C   0  0  0  0  0  0  0  0  0  0  0  0
   13.7288   41.6405    7.3129 C   0  0  0  0  0  0  0  0  0  0  0  0
   13.8646   39.8970    9.1064 C   0  0  0  0  0  0  0  0  0  0  0  0
   13.4215   40.3997   10.4776 C   0  0  1  0  0  0  0  0  0  0  0  0
   12.0944   41.0993   10.4512 C   0  0  0  0  0  0  0  0  0  0  0  0
   12.9647   44.8756    3.7617 O   0  0  0  0  0  0  0  0  0  0  0  0
   15.0313   44.9023    4.7852 O   0  0  0  0  0  0  0  0  0  0  0  0
   11.3823   41.1155    9.4116 O   0  0  0  0  0  0  0  0  0  0  0  0
   11.6378   41.7313   11.6000 O   0  0  0  0  0  0  0  0  0  0  0  0
   13.4888   43.3119    5.5546 N   0  0  0  0  0  0  0  0  0  0  0  0
   13.3589   39.3352   11.3565 F   0  0  0  0  0  0  0  0  0  0  0  0
  3  2  1  0
  3 14  1  0
  4 14  1  0
  4 18  1  0
  6  7  2  0
  8  9  2  0
 10  5  2  0
 11  9  1  0
 11 12  1  0
 12 13  1  0
 12 19  1  1
 13 17  1  0
 18  5  1  0
  1  2  2  0
  4 15  2  0
  5  6  1  0
  7  8  1  0
  9 10  1  0
 13 16  2  0
M  END
>  <rmsd>  (1) 
0.246359602

$$$$
