MolPort-047-073-926 MCULE-9516720595 PubChem-132768183
     RDKit          3D

 34 37  0  0  0  0  0  0  0  0999 V2000
   15.2315   45.8795    3.8145 C   0  0  0  0  0  0  0  0  0  0  0  0
   16.4607   46.6758    3.7053 C   0  0  0  0  0  0  0  0  0  0  0  0
   17.7787   48.4817    2.5383 C   0  0  0  0  0  0  0  0  0  0  0  0
   17.6258   49.4162    1.3511 C   0  0  0  0  0  0  0  0  0  0  0  0
   16.5701   49.2160   -0.7410 C   0  0  0  0  0  0  0  0  0  0  0  0
   18.8923   48.7512   -0.6133 C   0  0  0  0  0  0  0  0  0  0  0  0
   19.9684   47.9207    0.0589 C   0  0  0  0  0  0  0  0  0  0  0  0
   21.2575   48.6678   -0.1925 C   0  0  0  0  0  0  0  0  0  0  0  0
   20.8723   50.1311   -0.2498 C   0  0  0  0  0  0  0  0  0  0  0  0
   19.4374   50.1755   -0.7410 C   0  0  0  0  0  0  0  0  0  0  0  0
   14.1447   46.0485    2.9516 C   0  0  0  0  0  0  0  0  0  0  0  0
   13.8824   44.3191    4.6890 C   0  0  0  0  0  0  0  0  0  0  0  0
   14.1966   42.7171    6.6392 C   0  0  0  0  0  0  0  0  0  0  0  0
   13.6327   41.7055    7.4159 C   0  0  0  0  0  0  0  0  0  0  0  0
   14.3826   41.1696    8.4628 C   0  0  0  0  0  0  0  0  0  0  0  0
   13.7999   40.0857    9.3069 C   0  0  2  0  0  0  0  0  0  0  0  0
   13.6613   40.5441   10.7599 C   0  0  0  0  0  0  0  0  0  0  0  0
   13.1654   39.4037   11.6529 C   0  0  0  0  0  0  0  0  0  0  0  0
   13.7650   38.0471   11.2594 C   0  0  0  0  0  0  0  0  0  0  0  0
   15.5244   36.8980   10.2164 C   0  0  0  0  0  0  0  0  0  0  0  0
   16.6407   36.6299   11.1272 C   0  0  0  0  0  0  0  0  0  0  0  0
   14.6229   38.7905    9.1732 C   0  0  0  0  0  0  0  0  0  0  0  0
   16.1731   42.6232    7.9393 C   0  0  0  0  0  0  0  0  0  0  0  0
   17.5450   43.1200    8.2205 C   0  0  0  0  0  0  0  0  0  0  0  0
   16.5815   47.6695    2.6855 N   0  0  0  0  0  0  0  0  0  0  0  0
   17.6110   48.6524    0.1041 N   0  0  0  0  0  0  0  0  0  0  0  0
   13.4378   43.2755    5.5614 N   0  0  0  0  0  0  0  0  0  0  0  0
   14.9865   38.2228   10.4743 N   0  0  0  0  0  0  0  0  0  0  0  0
   17.5220   36.4180   11.8465 N   0  0  0  0  0  0  0  0  0  0  0  0
   15.6375   41.6374    8.7050 N   0  0  0  0  0  0  0  0  0  0  0  0
   15.4550   43.1554    6.9163 N   0  0  0  0  0  0  0  0  0  0  0  0
   15.0842   44.9237    4.7733 N   0  0  0  0  0  0  0  0  0  0  0  0
   17.4082   46.4786    4.5138 O   0  0  0  0  0  0  0  0  0  0  0  0
   12.9678   44.9426    3.4343 S   0  0  0  0  0  0  0  0  0  0  0  0
  1  2  1  0
  1 32  1  0
  2 25  1  0
  3 25  1  0
  3  4  1  0
  4 26  1  0
  5 26  1  0
  6 26  1  0
  6  7  1  0
  7  8  1  0
  8  9  1  0
  9 10  1  0
 10  6  1  0
 11 34  1  0
 12 34  1  0
 12 27  1  0
 13 31  2  0
 14 15  2  0
 16 15  1  6
 16 17  1  0
 17 18  1  0
 18 19  1  0
 19 28  1  0
 20 28  1  0
 20 21  1  0
 22 28  1  0
 22 16  1  0
 23 30  2  0
 24 23  1  0
 27 13  1  0
  1 11  2  0
  2 33  2  0
 12 32  2  0
 13 14  1  0
 15 30  1  0
 23 31  1  0
 21 29  3  0
M  END
>  <rmsd>  (1) 
0.24601005

$$$$
