MolPort-047-015-607 MCULE-8485505057 PubChem-155985351
     RDKit          3D

 25 28  0  0  0  0  0  0  0  0999 V2000
   14.3535   41.1493    8.4431 C   0  0  0  0  0  0  0  0  0  0  0  0
   13.7106   40.0628    9.2393 C   0  0  2  0  0  0  0  0  0  0  0  0
   13.5690   40.4775   10.6971 C   0  0  0  0  0  0  0  0  0  0  0  0
   12.9293   39.3455   11.4838 C   0  0  0  0  0  0  0  0  0  0  0  0
   13.7689   38.0734   11.3353 C   0  0  0  0  0  0  0  0  0  0  0  0
   12.6646   37.2641    9.3539 C   0  0  0  0  0  0  0  0  0  0  0  0
   12.4465   35.8048    9.5676 C   0  0  0  0  0  0  0  0  0  0  0  0
   12.7027   33.6983    9.4716 C   0  0  0  0  0  0  0  0  0  0  0  0
   11.5842   33.9809   10.2312 C   0  0  0  0  0  0  0  0  0  0  0  0
   14.5217   38.7651    9.1341 C   0  0  0  0  0  0  0  0  0  0  0  0
   16.2015   42.5608    8.0169 C   0  0  0  0  0  0  0  0  0  0  0  0
   17.5768   43.0100    8.3555 C   0  0  0  0  0  0  0  0  0  0  0  0
   15.5160   43.1526    6.9583 C   0  0  0  0  0  0  0  0  0  0  0  0
   14.2225   42.7087    6.6631 C   0  0  0  0  0  0  0  0  0  0  0  0
   13.8733   44.3154    4.6999 C   0  0  0  0  0  0  0  0  0  0  0  0
   14.0794   46.0333    2.9497 C   0  0  0  0  0  0  0  0  0  0  0  0
   15.1894   45.8831    3.7824 C   0  0  0  0  0  0  0  0  0  0  0  0
   13.9437   37.6732    9.9299 N   0  0  0  0  0  0  0  0  0  0  0  0
   13.2466   34.8552    9.0515 N   0  0  0  0  0  0  0  0  0  0  0  0
   11.4236   35.3156   10.2894 N   0  0  0  0  0  0  0  0  0  0  0  0
   15.6126   41.5734    8.7389 N   0  0  0  0  0  0  0  0  0  0  0  0
   13.4580   43.2714    5.5887 N   0  0  0  0  0  0  0  0  0  0  0  0
   15.0710   44.9322    4.7486 N   0  0  0  0  0  0  0  0  0  0  0  0
   13.6724   41.7172    7.4130 N   0  0  0  0  0  0  0  0  0  0  0  0
   12.9223   44.9217    3.4655 S   0  0  0  0  0  0  0  0  0  0  0  0
  1 24  2  0
  2  1  1  6
  2  3  1  0
  3  4  1  0
  4  5  1  0
  5 18  1  0
  6 18  1  0
  6  7  1  0
  7 19  1  0
  9 20  1  0
 10 18  1  0
 10  2  1  0
 11 21  2  0
 12 11  1  0
 13 14  2  0
 14 22  1  0
 15 25  1  0
 16 25  1  0
 17 23  1  0
 19  8  1  0
 22 15  1  0
  1 21  1  0
  7 20  2  0
  8  9  2  0
 11 13  1  0
 14 24  1  0
 15 23  2  0
 16 17  2  0
M  END
>  <rmsd>  (1) 
0.243933767

$$$$
