MolPort-007-723-513 6818335 ChemDiv-E157-6081 MCULE-5170926731 PubChem-22518058 ZINC000006818335 ZINC06818335
     RDKit          3D

 27 29  0  0  0  0  0  0  0  0999 V2000
   13.5366   39.3474   11.2816 C   0  0  0  0  0  0  0  0  0  0  0  0
   13.8809   41.8213   11.5903 C   0  0  0  0  0  0  0  0  0  0  0  0
   12.8101   41.8720   12.4994 C   0  0  0  0  0  0  0  0  0  0  0  0
   12.4475   43.0773   13.1075 C   0  0  0  0  0  0  0  0  0  0  0  0
   11.3116   43.1137   14.0651 C   0  0  0  0  0  0  0  0  0  0  0  0
   13.1502   44.2476   12.8122 C   0  0  0  0  0  0  0  0  0  0  0  0
   14.2169   44.2122   11.9112 C   0  0  0  0  0  0  0  0  0  0  0  0
   14.5797   43.0062   11.3052 C   0  0  0  0  0  0  0  0  0  0  0  0
   15.1631   41.5226    8.4323 C   0  0  0  0  0  0  0  0  0  0  0  0
   14.2469   42.7406    6.5953 C   0  0  0  0  0  0  0  0  0  0  0  0
   13.9046   44.3693    4.6744 C   0  0  0  0  0  0  0  0  0  0  0  0
   13.0062   44.8692    3.6190 C   0  0  0  0  0  0  0  0  0  0  0  0
   11.7288   44.3141    3.4543 C   0  0  0  0  0  0  0  0  0  0  0  0
   10.8757   44.7878    2.4533 C   0  0  0  0  0  0  0  0  0  0  0  0
    9.5240   44.1935    2.2870 C   0  0  0  0  0  0  0  0  0  0  0  0
   11.2939   45.8202    1.6095 C   0  0  0  0  0  0  0  0  0  0  0  0
   12.5654   46.3783    1.7653 C   0  0  0  0  0  0  0  0  0  0  0  0
   13.4181   45.9049    2.7667 C   0  0  0  0  0  0  0  0  0  0  0  0
   14.2524   40.5762   10.9651 N   0  0  0  0  0  0  0  0  0  0  0  0
   16.0078   42.4568    7.9445 N   0  0  0  0  0  0  0  0  0  0  0  0
   15.4979   43.1365    6.9194 N   0  0  0  0  0  0  0  0  0  0  0  0
   13.4697   43.3105    5.5381 N   0  0  0  0  0  0  0  0  0  0  0  0
   15.5382   40.4918    9.7979 S   0  0  0  0  0  0  0  0  0  0  0  0
   13.7028   41.5007    7.5938 S   0  0  0  0  0  0  0  0  0  0  0  0
   16.8219   40.9379   10.4398 O   0  0  0  0  0  0  0  0  0  0  0  0
   15.7048   39.0795    9.3102 O   0  0  0  0  0  0  0  0  0  0  0  0
   15.0513   44.8757    4.8137 O   0  0  0  0  0  0  0  0  0  0  0  0
  1 19  1  0
  3  4  2  0
  5  4  1  0
  6  7  2  0
  8  2  2  0
  9 24  1  0
 10 22  1  0
 10 24  1  0
 11 12  1  0
 13 14  2  0
 15 14  1  0
 16 17  2  0
 18 12  2  0
 19  2  1  0
 20 21  1  0
 22 11  1  0
 23 19  1  0
 23  9  1  0
  2  3  1  0
  4  6  1  0
  7  8  1  0
  9 20  2  0
 10 21  2  0
 11 27  2  0
 12 13  1  0
 14 16  1  0
 17 18  1  0
 23 25  2  0
 23 26  2  0
M  END
>  <rmsd>  (1) 
0.195551768

$$$$
