MolPort-006-464-632 ChemDiv-V009-4776 MCULE-5161161012 PubChem-45944114 ZINC000035806832 ZINC35806832
     RDKit          3D

 35 39  0  0  0  0  0  0  0  0999 V2000
   20.8704   38.3095   11.7596 C   0  0  0  0  0  0  0  0  0  0  0  0
   19.9235   39.3633   12.2948 C   0  0  0  0  0  0  0  0  0  0  0  0
   18.1843   40.3181   10.8469 C   0  0  0  0  0  0  0  0  0  0  0  0
   16.1061   40.0487   10.7107 C   0  0  0  0  0  0  0  0  0  0  0  0
   15.6762   41.5721    8.7333 C   0  0  0  0  0  0  0  0  0  0  0  0
   16.1149   42.7701    8.1524 C   0  0  0  0  0  0  0  0  0  0  0  0
   15.4017   43.3537    7.1034 C   0  0  0  0  0  0  0  0  0  0  0  0
   14.2422   42.7407    6.6084 C   0  0  0  0  0  0  0  0  0  0  0  0
   13.8074   41.5399    7.1772 C   0  0  0  0  0  0  0  0  0  0  0  0
   14.5247   40.9533    8.2239 C   0  0  0  0  0  0  0  0  0  0  0  0
   13.8703   44.4322    4.7215 C   0  0  0  0  0  0  0  0  0  0  0  0
   12.9016   45.0282    3.7835 C   0  0  0  0  0  0  0  0  0  0  0  0
   13.2981   46.0496    2.9098 C   0  0  0  0  0  0  0  0  0  0  0  0
   12.3785   46.6182    2.0242 C   0  0  0  0  0  0  0  0  0  0  0  0
   11.0468   46.1767    2.0024 C   0  0  0  0  0  0  0  0  0  0  0  0
   10.6509   45.1561    2.8764 C   0  0  0  0  0  0  0  0  0  0  0  0
   11.5718   44.5851    3.7597 C   0  0  0  0  0  0  0  0  0  0  0  0
   14.7362   39.6044   11.0298 C   0  0  0  0  0  0  0  0  0  0  0  0
   13.6611   40.5255   11.0650 C   0  0  0  0  0  0  0  0  0  0  0  0
   12.3654   40.1045   11.4199 C   0  0  0  0  0  0  0  0  0  0  0  0
   12.1927   38.7626   11.7481 C   0  0  0  0  0  0  0  0  0  0  0  0
   13.2238   37.8802   11.7383 C   0  0  0  0  0  0  0  0  0  0  0  0
   14.5176   38.2589   11.3923 C   0  0  0  0  0  0  0  0  0  0  0  0
   11.3606   36.7369   12.3753 C   0  0  0  0  0  0  0  0  0  0  0  0
   19.5194   40.2158   11.2345 O   0  0  0  0  0  0  0  0  0  0  0  0
   15.0444   44.8912    4.7842 O   0  0  0  0  0  0  0  0  0  0  0  0
   10.4574   47.6453    0.2902 O   0  0  0  0  0  0  0  0  0  0  0  0
    8.7925   46.3335    1.0873 O   0  0  0  0  0  0  0  0  0  0  0  0
   12.7665   36.6310   12.1095 O   0  0  0  0  0  0  0  0  0  0  0  0
   11.0350   38.1130   12.1291 O   0  0  0  0  0  0  0  0  0  0  0  0
   17.1780   39.6140   11.4075 N   0  0  0  0  0  0  0  0  0  0  0  0
   16.4635   40.9581    9.7695 N   0  0  0  0  0  0  0  0  0  0  0  0
   17.7715   41.1312    9.8599 N   0  0  0  0  0  0  0  0  0  0  0  0
   13.4792   43.3192    5.5411 N   0  0  0  0  0  0  0  0  0  0  0  0
   10.1010   46.7585    1.0950 N   0  0  0  0  0  0  0  0  0  0  0  0
  1  2  1  0
  2 25  1  0
  3 25  1  0
  3 31  1  0
  4 32  1  0
  4 18  1  0
  6  7  2  0
  8  9  2  0
  8 34  1  0
 10  5  2  0
 11 12  1  0
 13 14  2  0
 15 16  2  0
 15 35  1  0
 17 12  2  0
 19 20  2  0
 21 22  2  0
 21 30  1  0
 22 29  1  0
 23 18  2  0
 24 29  1  0
 24 30  1  0
 32 33  1  0
 32  5  1  0
 34 11  1  0
 35 28  1  0
  3 33  2  0
  4 31  2  0
  5  6  1  0
  7  8  1  0
  9 10  1  0
 11 26  2  0
 12 13  1  0
 14 15  1  0
 16 17  1  0
 18 19  1  0
 20 21  1  0
 22 23  1  0
 35 27  2  0
M  CHG  2  28  -1  35   1
M  END
>  <rmsd>  (1) 
0.238016143

$$$$
