MolPort-046-971-810 MCULE-8808227310 PubChem-110111796
     RDKit          3D

 27 30  0  0  0  0  0  0  0  0999 V2000
   11.6290   44.1612    3.4725 C   0  0  0  0  0  0  0  0  0  0  0  0
   12.9809   44.7638    3.6472 C   0  0  0  0  0  0  0  0  0  0  0  0
   13.8514   44.3302    4.6609 C   0  0  0  0  0  0  0  0  0  0  0  0
   15.4917   45.9038    3.9490 C   0  0  0  0  0  0  0  0  0  0  0  0
   14.6519   46.3580    2.9319 C   0  0  0  0  0  0  0  0  0  0  0  0
   13.3903   45.7818    2.7839 C   0  0  0  0  0  0  0  0  0  0  0  0
   14.2116   42.7358    6.6316 C   0  0  0  0  0  0  0  0  0  0  0  0
   16.2054   42.6767    7.9280 C   0  0  0  0  0  0  0  0  0  0  0  0
   15.6844   41.6561    8.7247 C   0  0  0  0  0  0  0  0  0  0  0  0
   14.3968   41.1705    8.4619 C   0  0  0  0  0  0  0  0  0  0  0  0
   13.6584   41.7149    7.4088 C   0  0  0  0  0  0  0  0  0  0  0  0
   13.7943   40.0773    9.2859 C   0  0  2  0  0  0  0  0  0  0  0  0
   13.6534   40.5014   10.7423 C   0  0  0  0  0  0  0  0  0  0  0  0
   13.0382   39.3646   11.5413 C   0  0  0  0  0  0  0  0  0  0  0  0
   13.8972   38.1049   11.3957 C   0  0  0  0  0  0  0  0  0  0  0  0
   14.6228   38.7892    9.1831 C   0  0  0  0  0  0  0  0  0  0  0  0
   12.7868   37.2658    9.4314 C   0  0  0  0  0  0  0  0  0  0  0  0
   12.6095   35.7791    9.5398 C   0  0  0  0  0  0  0  0  0  0  0  0
   13.5137   34.8752   10.0703 C   0  0  0  0  0  0  0  0  0  0  0  0
   12.8764   33.6477    9.9315 C   0  0  0  0  0  0  0  0  0  0  0  0
   10.3386   35.6923    8.5027 C   0  0  0  0  0  0  0  0  0  0  0  0
   15.0785   44.9114    4.7819 N   0  0  0  0  0  0  0  0  0  0  0  0
   13.4422   43.2842    5.5548 N   0  0  0  0  0  0  0  0  0  0  0  0
   15.4660   43.1900    6.9087 N   0  0  0  0  0  0  0  0  0  0  0  0
   14.0669   37.6960    9.9925 N   0  0  0  0  0  0  0  0  0  0  0  0
   11.6708   33.8266    9.3529 N   0  0  0  0  0  0  0  0  0  0  0  0
   11.5209   35.1163    9.1209 N   0  0  0  0  0  0  0  0  0  0  0  0
  1  2  1  0
  3 22  2  0
  3 23  1  0
  4  5  2  0
  6  2  2  0
  8 24  2  0
  9 10  2  0
 11  7  2  0
 12 10  1  6
 12 13  1  0
 13 14  1  0
 14 15  1  0
 15 25  1  0
 16 25  1  0
 16 12  1  0
 17 25  1  0
 17 18  1  0
 19 20  1  0
 21 27  1  0
 23  7  1  0
 27 26  1  0
 27 18  1  0
  2  3  1  0
  4 22  1  0
  5  6  1  0
  7 24  1  0
  8  9  1  0
 10 11  1  0
 18 19  2  0
 20 26  2  0
M  END
>  <rmsd>  (1) 
0.246968269

$$$$
