MolPort-002-790-894 CSC047813045 CSSS00047813045 LN01163820 MCULE-2071410921 PubChem-17161563
     RDKit          3D

 21 22  0  0  0  0  0  0  0  0999 V2000
   15.4393   37.5545    8.5980 C   0  0  0  0  0  0  0  0  0  0  0  0
   14.4344   37.7665    9.7137 C   0  0  0  0  0  0  0  0  0  0  0  0
   14.3445   39.2400   10.0664 C   0  0  2  0  0  0  0  0  0  0  0  0
   13.5394   39.4019   11.3388 C   0  0  0  0  0  0  0  0  0  0  0  0
   14.3328   40.9930    8.3180 C   0  0  0  0  0  0  0  0  0  0  0  0
   15.6407   41.4009    8.6241 C   0  0  0  0  0  0  0  0  0  0  0  0
   16.2377   42.4423    7.9100 C   0  0  0  0  0  0  0  0  0  0  0  0
   15.5318   43.0811    6.8876 C   0  0  0  0  0  0  0  0  0  0  0  0
   14.2242   42.6829    6.5723 C   0  0  0  0  0  0  0  0  0  0  0  0
   13.9020   44.3902    4.6875 C   0  0  0  0  0  0  0  0  0  0  0  0
   12.9876   44.9009    3.6272 C   0  0  0  0  0  0  0  0  0  0  0  0
   13.1113   44.0774    2.3906 C   0  0  0  0  0  0  0  0  0  0  0  0
   14.0587   44.4132    1.4164 C   0  0  0  0  0  0  0  0  0  0  0  0
   14.1876   43.6293    0.2656 C   0  0  0  0  0  0  0  0  0  0  0  0
   13.3724   42.5070    0.0891 C   0  0  0  0  0  0  0  0  0  0  0  0
   12.4291   42.1672    1.0638 C   0  0  0  0  0  0  0  0  0  0  0  0
   12.2997   42.9506    2.2147 C   0  0  0  0  0  0  0  0  0  0  0  0
   13.6341   41.6387    7.2926 C   0  0  0  0  0  0  0  0  0  0  0  0
   13.7077   39.9535    9.0128 O   0  0  0  0  0  0  0  0  0  0  0  0
   15.0503   44.8938    4.8079 O   0  0  0  0  0  0  0  0  0  0  0  0
   13.4691   43.3135    5.5290 N   0  0  0  0  0  0  0  0  0  0  0  0
  1  2  1  0
  3  2  1  0
  3  4  1  1
  3 19  1  0
  5 19  1  0
  6  7  2  0
  8  9  2  0
  9 21  1  0
 11 10  1  0
 11 12  1  0
 13 14  2  0
 15 16  2  0
 17 12  2  0
 18  5  2  0
 21 10  1  0
  5  6  1  0
  7  8  1  0
  9 18  1  0
 10 20  2  0
 12 13  1  0
 14 15  1  0
 16 17  1  0
M  END
>  <rmsd>  (1) 
0.248961866

$$$$
