@<TRIPOS>MOLECULE
MolPort-020-280-781 MCULE-7982223215 PubChem-110256834
 26 28 0 0 0
SMALL
GASTEIGER

@<TRIPOS>ATOM
      1 C          14.1567   39.4016   11.0635 C.3     1  UNL1        0.0737
      2 C          13.2874   40.2424   10.2001 C.ar    1  UNL1        0.1406
      3 C          11.2444   41.3826    9.8569 C.ar    1  UNL1        0.0644
      4 C          11.6805   41.7986    8.5992 C.ar    1  UNL1        0.0492
      5 C          12.9488   41.4102    8.1684 C.ar    1  UNL1        0.1358
      6 N          12.0546   40.6129   10.6334 N.ar    1  UNL1       -0.2348
      7 N          13.7263   40.6400    8.9775 N.ar    1  UNL1       -0.2159
      8 C           9.8901   41.7867   10.3368 C.3     1  UNL1        0.0603
      9 C           9.5673   41.1223   11.6787 C.3     1  UNL1        0.0094
     10 C           8.1399   41.4095   12.1718 C.3     1  UNL1        0.0219
     11 C           7.3048   42.2073   11.1696 C.3     1  UNL1        0.0934
     12 C           8.8222   41.4484    9.2938 C.3     1  UNL1        0.0992
     13 C           6.3340   41.2651    9.0284 C.2     1  UNL1        0.2252
     14 N           7.4703   41.6535    9.8250 N.am    1  UNL1       -0.2792
     15 O           6.5141   40.7771    7.8805 O.2     1  UNL1       -0.2749
     16 C           4.9209   41.4170    9.5109 C.3     1  UNL1        0.0767
     17 C           4.4941   42.8725    9.5408 C.3     1  UNL1        0.0096
     18 C           4.7216   40.7674   10.8675 C.3     1  UNL1        0.0096
     19 N          13.4064   41.8321    6.8783 N.pl3   1  UNL1       -0.2820
     20 H          13.0413   41.3549    6.0985 H       1  UNL1        0.1551
     21 C          14.3445   42.8821    6.6144 C.ar    1  UNL1        0.1526
     22 C          16.4188   43.9568    7.0255 C.ar    1  UNL1        0.1210
     23 C          16.1094   44.9220    6.0661 C.ar    1  UNL1        0.1196
     24 C          14.0383   43.8496    5.6550 C.ar    1  UNL1        0.1332
     25 N          15.5309   42.9595    7.2784 N.ar    1  UNL1       -0.2258
     26 N          14.9261   44.8474    5.4019 N.ar    1  UNL1       -0.2378
@<TRIPOS>BOND
     1     1     2    1
     2     2     7   ar
     3     3     6   ar
     4     4     5   ar
     5     5    19    1
     6    22    25   ar
     7    23    26   ar
     8    24    21   ar
     9     8     3    1
    10     8     9    1
    11     9    10    1
    12    10    11    1
    13    11    14    1
    14    12    14    1
    15    12     8    1
    16    16    13    1
    17    16    17    1
    18    16    18    1
    19    19    21    1
    20    14    13   am
    21     2     6   ar
    22     3     4   ar
    23     5     7   ar
    24    21    25   ar
    25    22    23   ar
    26    24    26   ar
    27    13    15    2
    28    19    20    1
@<TRIPOS>MOLECULE
MolPort-020-280-781 MCULE-7982223215 PubChem-110256834
 26 28 0 0 0
SMALL
GASTEIGER

@<TRIPOS>ATOM
      1 C          12.9557   40.1974   10.5984 C.3     1  UNL1        0.0737
      2 C          12.1824   40.7061    9.4360 C.ar    1  UNL1        0.1406
      3 C          10.1012   41.0888    8.3806 C.ar    1  UNL1        0.0644
      4 C          10.7538   41.6485    7.2824 C.ar    1  UNL1        0.0492
      5 C          12.1464   41.7216    7.2973 C.ar    1  UNL1        0.1358
      6 N          10.8265   40.6282    9.4359 N.ar    1  UNL1       -0.2348
      7 N          12.8323   41.2489    8.3737 N.ar    1  UNL1       -0.2159
      8 C           8.6113   41.0004    8.3844 C.3     1  UNL1        0.0603
      9 C           8.0974   40.4120    7.0669 C.3     1  UNL1        0.0094
     10 C           6.5636   40.3996    6.9635 C.3     1  UNL1        0.0219
     11 C           5.8739   41.0759    8.1490 C.3     1  UNL1        0.0934
     12 C           7.9874   42.3737    8.6445 C.3     1  UNL1        0.0992
     13 C           5.7892   43.5780    8.5323 C.2     1  UNL1        0.2252
     14 N           6.5331   42.3462    8.4553 N.am    1  UNL1       -0.2792
     15 O           6.3917   44.6562    8.7830 O.2     1  UNL1       -0.2749
     16 C           4.3041   43.6378    8.3239 C.3     1  UNL1        0.0767
     17 C           3.8591   45.0141    7.8663 C.3     1  UNL1        0.0096
     18 C           3.5484   43.2116    9.5685 C.3     1  UNL1        0.0096
     19 N          12.8265   42.2947    6.1745 N.pl3   1  UNL1       -0.2820
     20 H          12.4766   42.0729    5.2814 H       1  UNL1        0.1551
     21 C          13.9671   43.1599    6.2268 C.ar    1  UNL1        0.1526
     22 C          15.0470   45.1977    5.6725 C.ar    1  UNL1        0.1210
     23 C          16.1877   44.7810    6.3601 C.ar    1  UNL1        0.1196
     24 C          15.1102   42.7461    6.9141 C.ar    1  UNL1        0.1332
     25 N          13.9633   44.3794    5.6208 N.ar    1  UNL1       -0.2258
     26 N          16.1945   43.5643    6.9659 N.ar    1  UNL1       -0.2378
@<TRIPOS>BOND
     1     1     2    1
     2     2     7   ar
     3     3     6   ar
     4     4     5   ar
     5     5    19    1
     6    22    25   ar
     7    23    26   ar
     8    24    21   ar
     9     8     3    1
    10     8     9    1
    11     9    10    1
    12    10    11    1
    13    11    14    1
    14    12    14    1
    15    12     8    1
    16    16    13    1
    17    16    17    1
    18    16    18    1
    19    19    21    1
    20    14    13   am
    21     2     6   ar
    22     3     4   ar
    23     5     7   ar
    24    21    25   ar
    25    22    23   ar
    26    24    26   ar
    27    13    15    2
    28    19    20    1
@<TRIPOS>MOLECULE
MolPort-020-280-781 MCULE-7982223215 PubChem-110256834
 26 28 0 0 0
SMALL
GASTEIGER

@<TRIPOS>ATOM
      1 C          13.0634   40.1155   10.4661 C.3     1  UNL1        0.0737
      2 C          12.3226   40.6802    9.3083 C.ar    1  UNL1        0.1406
      3 C          10.2698   41.1423    8.2293 C.ar    1  UNL1        0.0644
      4 C          10.9542   41.7262    7.1635 C.ar    1  UNL1        0.0492
      5 C          12.3475   41.7697    7.2063 C.ar    1  UNL1        0.1358
      6 N          10.9656   40.6305    9.2808 N.ar    1  UNL1       -0.2348
      7 N          13.0032   41.2459    8.2777 N.ar    1  UNL1       -0.2159
      8 C           8.7786   41.0848    8.2030 C.3     1  UNL1        0.0603
      9 C           8.2069   42.1885    7.3078 C.3     1  UNL1        0.0094
     10 C           6.6712   42.2536    7.3280 C.3     1  UNL1        0.0219
     11 C           6.0392   41.2760    8.3196 C.3     1  UNL1        0.0934
     12 C           8.2071   41.1854    9.6193 C.3     1  UNL1        0.0992
     13 C           6.0462   41.5680   10.8355 C.2     1  UNL1        0.2252
     14 N           6.7477   41.3309    9.5992 N.am    1  UNL1       -0.2792
     15 O           6.6902   41.6244   11.9174 O.2     1  UNL1       -0.2749
     16 C           4.5582   41.7545   10.8957 C.3     1  UNL1        0.0767
     17 C           3.8211   40.4538   10.6379 C.3     1  UNL1        0.0096
     18 C           4.0926   42.8380    9.9410 C.3     1  UNL1        0.0096
     19 N          13.0601   42.3672    6.1169 N.pl3   1  UNL1       -0.2820
     20 H          12.6981   42.2188    5.2134 H       1  UNL1        0.1551
     21 C          14.2491   43.1601    6.2161 C.ar    1  UNL1        0.1526
     22 C          16.4622   43.4830    7.0063 C.ar    1  UNL1        0.1210
     23 C          16.5075   44.7258    6.3731 C.ar    1  UNL1        0.1196
     24 C          14.2980   44.4042    5.5837 C.ar    1  UNL1        0.1332
     25 N          15.3357   42.7283    6.9142 N.ar    1  UNL1       -0.2258
     26 N          15.4245   45.1593    5.6757 N.ar    1  UNL1       -0.2378
@<TRIPOS>BOND
     1     1     2    1
     2     2     7   ar
     3     3     6   ar
     4     4     5   ar
     5     5    19    1
     6    22    25   ar
     7    23    26   ar
     8    24    21   ar
     9     8     3    1
    10     8     9    1
    11     9    10    1
    12    10    11    1
    13    11    14    1
    14    12    14    1
    15    12     8    1
    16    16    13    1
    17    16    17    1
    18    16    18    1
    19    19    21    1
    20    14    13   am
    21     2     6   ar
    22     3     4   ar
    23     5     7   ar
    24    21    25   ar
    25    22    23   ar
    26    24    26   ar
    27    13    15    2
    28    19    20    1
@<TRIPOS>MOLECULE
MolPort-020-280-781 MCULE-7982223215 PubChem-110256834
 26 28 0 0 0
SMALL
GASTEIGER

@<TRIPOS>ATOM
      1 C          17.2765   38.0656   10.8873 C.3     1  UNL1        0.0737
      2 C          16.4738   39.0962   10.1792 C.ar    1  UNL1        0.1406
      3 C          14.3652   39.9635    9.5516 C.ar    1  UNL1        0.0644
      4 C          14.9904   41.0055    8.8673 C.ar    1  UNL1        0.0492
      5 C          16.3840   41.0611    8.8611 C.ar    1  UNL1        0.1358
      6 N          15.1173   39.0289   10.1942 N.ar    1  UNL1       -0.2348
      7 N          17.0971   40.1054    9.5172 N.ar    1  UNL1       -0.2159
      8 C          12.8749   39.8851    9.5700 C.3     1  UNL1        0.0603
      9 C          12.3409   39.3574    8.2348 C.3     1  UNL1        0.0094
     10 C          10.8060   39.3598    8.1499 C.3     1  UNL1        0.0219
     11 C          10.1355   39.9891    9.3716 C.3     1  UNL1        0.0934
     12 C          12.2642   41.2501    9.8964 C.3     1  UNL1        0.0992
     13 C          10.0737   42.4729    9.8630 C.2     1  UNL1        0.2252
     14 N          10.8076   41.2406    9.7240 N.am    1  UNL1       -0.2792
     15 O          10.6870   43.5353   10.1523 O.2     1  UNL1       -0.2749
     16 C           8.5866   42.5518    9.6756 C.3     1  UNL1        0.0767
     17 C           7.8481   41.7301   10.7153 C.3     1  UNL1        0.0096
     18 C           8.1785   42.1416    8.2730 C.3     1  UNL1        0.0096
     19 N          17.0361   42.1273    8.1613 N.pl3   1  UNL1       -0.2820
     20 H          18.0112   42.2025    8.2735 H       1  UNL1        0.1551
     21 C          16.4049   43.0945    7.3137 C.ar    1  UNL1        0.1526
     22 C          14.5048   43.8911    6.1385 C.ar    1  UNL1        0.1210
     23 C          15.2439   44.9839    5.6831 C.ar    1  UNL1        0.1196
     24 C          17.1415   44.1893    6.8563 C.ar    1  UNL1        0.1332
     25 N          15.1005   42.9716    6.9426 N.ar    1  UNL1       -0.2258
     26 N          16.5460   45.1091    6.0519 N.ar    1  UNL1       -0.2378
@<TRIPOS>BOND
     1     1     2    1
     2     2     7   ar
     3     3     6   ar
     4     4     5   ar
     5     5    19    1
     6    22    25   ar
     7    23    26   ar
     8    24    21   ar
     9     8     3    1
    10     8     9    1
    11     9    10    1
    12    10    11    1
    13    11    14    1
    14    12    14    1
    15    12     8    1
    16    16    13    1
    17    16    17    1
    18    16    18    1
    19    19    21    1
    20    14    13   am
    21     2     6   ar
    22     3     4   ar
    23     5     7   ar
    24    21    25   ar
    25    22    23   ar
    26    24    26   ar
    27    13    15    2
    28    19    20    1
@<TRIPOS>MOLECULE
MolPort-020-280-781 MCULE-7982223215 PubChem-110256834
 26 28 0 0 0
SMALL
GASTEIGER

@<TRIPOS>ATOM
      1 C          10.2480   39.4678    5.2763 C.3     1  UNL1        0.0737
      2 C          10.7628   40.2435    6.4344 C.ar    1  UNL1        0.1406
      3 C          10.3774   41.3032    8.5129 C.ar    1  UNL1        0.0644
      4 C          11.7187   41.6798    8.5769 C.ar    1  UNL1        0.0492
      5 C          12.5672   41.3135    7.5324 C.ar    1  UNL1        0.1358
      6 N           9.9244   40.5930    7.4442 N.ar    1  UNL1       -0.2348
      7 N          12.0719   40.6029    6.4825 N.ar    1  UNL1       -0.2159
      8 C           9.4523   41.6858    9.6200 C.3     1  UNL1        0.0603
      9 C           9.7912   40.9194   10.9022 C.3     1  UNL1        0.0094
     10 C           8.8029   41.1854   12.0491 C.3     1  UNL1        0.0219
     11 C           7.6275   42.0733   11.6385 C.3     1  UNL1        0.0934
     12 C           7.9954   41.4480    9.2156 C.3     1  UNL1        0.0992
     13 C           5.6883   41.3211   10.1935 C.2     1  UNL1        0.2252
     14 N           7.0871   41.6280   10.3533 N.am    1  UNL1       -0.2792
     15 O           5.2599   40.9253    9.0762 O.2     1  UNL1       -0.2749
     16 C           4.7002   41.4530   11.3155 C.3     1  UNL1        0.0767
     17 C           4.0643   40.1193   11.6597 C.3     1  UNL1        0.0096
     18 C           3.6400   42.4933   11.0059 C.3     1  UNL1        0.0096
     19 N          13.9466   41.6952    7.5882 N.pl3   1  UNL1       -0.2820
     20 H          14.5550   41.0954    8.0774 H       1  UNL1        0.1551
     21 C          14.5256   42.8662    7.0003 C.ar    1  UNL1        0.1526
     22 C          16.3476   44.3598    6.7250 C.ar    1  UNL1        0.1210
     23 C          15.5867   45.1261    5.8410 C.ar    1  UNL1        0.1196
     24 C          13.7671   43.6353    6.1152 C.ar    1  UNL1        0.1332
     25 N          15.8014   43.2483    7.2846 N.ar    1  UNL1       -0.2258
     26 N          14.3131   44.7471    5.5554 N.ar    1  UNL1       -0.2378
@<TRIPOS>BOND
     1     1     2    1
     2     2     7   ar
     3     3     6   ar
     4     4     5   ar
     5     5    19    1
     6    22    25   ar
     7    23    26   ar
     8    24    21   ar
     9     8     3    1
    10     8     9    1
    11     9    10    1
    12    10    11    1
    13    11    14    1
    14    12    14    1
    15    12     8    1
    16    16    13    1
    17    16    17    1
    18    16    18    1
    19    19    21    1
    20    14    13   am
    21     2     6   ar
    22     3     4   ar
    23     5     7   ar
    24    21    25   ar
    25    22    23   ar
    26    24    26   ar
    27    13    15    2
    28    19    20    1
@<TRIPOS>MOLECULE
MolPort-020-280-781 MCULE-7982223215 PubChem-110256834
 26 28 0 0 0
SMALL
GASTEIGER

@<TRIPOS>ATOM
      1 C          10.1160   41.8232   10.7406 C.3     1  UNL1        0.0737
      2 C          11.3252   41.5639    9.9168 C.ar    1  UNL1        0.1406
      3 C          13.2420   40.2555    9.4631 C.ar    1  UNL1        0.0644
      4 C          13.5631   41.0865    8.3900 C.ar    1  UNL1        0.0492
      5 C          12.7264   42.1655    8.1055 C.ar    1  UNL1        0.1358
      6 N          12.1304   40.5090   10.2060 N.ar    1  UNL1       -0.2348
      7 N          11.6247   42.3821    8.8746 N.ar    1  UNL1       -0.2159
      8 C          14.1244   39.0956    9.7850 C.3     1  UNL1        0.0603
      9 C          13.9293   38.6497   11.2374 C.3     1  UNL1        0.0094
     10 C          14.8923   37.5302   11.6646 C.3     1  UNL1        0.0219
     11 C          15.9155   37.1710   10.5864 C.3     1  UNL1        0.0934
     12 C          15.5915   39.4396    9.5162 C.3     1  UNL1        0.0992
     13 C          17.9126   38.5976    9.9613 C.2     1  UNL1        0.2252
     14 N          16.4876   38.3893   10.0116 N.am    1  UNL1       -0.2792
     15 O          18.3704   39.6656    9.4733 O.2     1  UNL1       -0.2749
     16 C          18.8946   37.5841   10.4724 C.3     1  UNL1        0.0767
     17 C          19.2676   36.5774    9.4004 C.3     1  UNL1        0.0096
     18 C          18.3776   36.8837   11.7151 C.3     1  UNL1        0.0096
     19 N          13.0471   43.0251    7.0056 N.pl3   1  UNL1       -0.2820
     20 H          12.3044   43.2893    6.4158 H       1  UNL1        0.1551
     21 C          14.3452   43.5373    6.6816 C.ar    1  UNL1        0.1526
     22 C          16.6973   43.5600    6.9872 C.ar    1  UNL1        0.1210
     23 C          16.8140   44.5582    6.0189 C.ar    1  UNL1        0.1196
     24 C          14.4657   44.5361    5.7131 C.ar    1  UNL1        0.1332
     25 N          15.4673   43.0720    7.2970 N.ar    1  UNL1       -0.2258
     26 N          15.6958   45.0245    5.4030 N.ar    1  UNL1       -0.2378
@<TRIPOS>BOND
     1     1     2    1
     2     2     7   ar
     3     3     6   ar
     4     4     5   ar
     5     5    19    1
     6    22    25   ar
     7    23    26   ar
     8    24    21   ar
     9     8     3    1
    10     8     9    1
    11     9    10    1
    12    10    11    1
    13    11    14    1
    14    12    14    1
    15    12     8    1
    16    16    13    1
    17    16    17    1
    18    16    18    1
    19    19    21    1
    20    14    13   am
    21     2     6   ar
    22     3     4   ar
    23     5     7   ar
    24    21    25   ar
    25    22    23   ar
    26    24    26   ar
    27    13    15    2
    28    19    20    1
@<TRIPOS>MOLECULE
MolPort-020-280-781 MCULE-7982223215 PubChem-110256834
 26 28 0 0 0
SMALL
GASTEIGER

@<TRIPOS>ATOM
      1 C          13.9495   38.8470   11.7899 C.3     1  UNL1        0.0737
      2 C          13.6324   39.6118   10.5560 C.ar    1  UNL1        0.1406
      3 C          12.0349   40.4199    9.0111 C.ar    1  UNL1        0.0644
      4 C          13.0487   41.0281    8.2712 C.ar    1  UNL1        0.0492
      5 C          14.3658   40.9045    8.7128 C.ar    1  UNL1        0.1358
      6 N          12.3448   39.7235   10.1384 N.ar    1  UNL1       -0.2348
      7 N          14.6307   40.1989    9.8461 N.ar    1  UNL1       -0.2159
      8 C          10.6186   40.5394    8.5555 C.3     1  UNL1        0.0603
      9 C          10.5093   41.4935    7.3621 C.3     1  UNL1        0.0094
     10 C           9.0599   41.7471    6.9169 C.3     1  UNL1        0.0219
     11 C           8.0250   41.0815    7.8248 C.3     1  UNL1        0.0934
     12 C           9.7172   41.0014    9.7029 C.3     1  UNL1        0.0992
     13 C           7.4124   41.8881   10.1462 C.2     1  UNL1        0.2252
     14 N           8.3650   41.3154    9.2291 N.am    1  UNL1       -0.2792
     15 O           7.7441   42.0901   11.3452 O.2     1  UNL1       -0.2749
     16 C           6.0189   42.2621    9.7327 C.3     1  UNL1        0.0767
     17 C           5.2507   41.0633    9.2088 C.3     1  UNL1        0.0096
     18 C           6.0219   43.3884    8.7162 C.3     1  UNL1        0.0096
     19 N          15.4146   41.5254    7.9603 N.pl3   1  UNL1       -0.2820
     20 H          16.2909   41.0768    7.9642 H       1  UNL1        0.1551
     21 C          15.3102   42.7367    7.2026 C.ar    1  UNL1        0.1526
     22 C          16.2740   44.7165    6.3207 C.ar    1  UNL1        0.1210
     23 C          15.0519   45.0516    5.7359 C.ar    1  UNL1        0.1196
     24 C          14.0889   43.0750    6.6159 C.ar    1  UNL1        0.1332
     25 N          16.3764   43.5682    7.0403 N.ar    1  UNL1       -0.2258
     26 N          13.9861   44.2236    5.8962 N.ar    1  UNL1       -0.2378
@<TRIPOS>BOND
     1     1     2    1
     2     2     7   ar
     3     3     6   ar
     4     4     5   ar
     5     5    19    1
     6    22    25   ar
     7    23    26   ar
     8    24    21   ar
     9     8     3    1
    10     8     9    1
    11     9    10    1
    12    10    11    1
    13    11    14    1
    14    12    14    1
    15    12     8    1
    16    16    13    1
    17    16    17    1
    18    16    18    1
    19    19    21    1
    20    14    13   am
    21     2     6   ar
    22     3     4   ar
    23     5     7   ar
    24    21    25   ar
    25    22    23   ar
    26    24    26   ar
    27    13    15    2
    28    19    20    1
@<TRIPOS>MOLECULE
MolPort-020-280-781 MCULE-7982223215 PubChem-110256834
 26 28 0 0 0
SMALL
GASTEIGER

@<TRIPOS>ATOM
      1 C           8.9770   41.8227    9.7471 C.3     1  UNL1        0.0737
      2 C          10.2769   41.3870    9.1741 C.ar    1  UNL1        0.1406
      3 C          12.1516   39.9470    9.2329 C.ar    1  UNL1        0.0644
      4 C          12.6833   40.5830    8.1113 C.ar    1  UNL1        0.0492
      5 C          11.9703   41.6357    7.5381 C.ar    1  UNL1        0.1358
      6 N          10.9598   40.3602    9.7434 N.ar    1  UNL1       -0.2348
      7 N          10.7818   42.0162    8.0812 N.ar    1  UNL1       -0.2159
      8 C          12.8990   38.8186    9.8622 C.3     1  UNL1        0.0603
      9 C          13.9648   39.3436   10.8290 C.3     1  UNL1        0.0094
     10 C          14.8453   38.2333   11.4248 C.3     1  UNL1        0.0219
     11 C          14.5456   36.8500   10.8459 C.3     1  UNL1        0.0934
     12 C          13.5307   37.9238    8.7931 C.3     1  UNL1        0.0992
     13 C          15.2134   36.0819    8.5267 C.2     1  UNL1        0.2252
     14 N          14.4300   36.9300    9.3890 N.am    1  UNL1       -0.2792
     15 O          15.0999   36.1884    7.2760 O.2     1  UNL1       -0.2749
     16 C          16.1757   35.0599    9.0579 C.3     1  UNL1        0.0767
     17 C          17.6135   35.5268    8.9307 C.3     1  UNL1        0.0096
     18 C          15.9839   33.7120    8.3883 C.3     1  UNL1        0.0096
     19 N          12.5075   42.2956    6.3859 N.pl3   1  UNL1       -0.2820
     20 H          12.0100   42.1941    5.5424 H       1  UNL1        0.1551
     21 C          13.6993   43.0893    6.3435 C.ar    1  UNL1        0.1526
     22 C          14.8448   45.0731    5.7281 C.ar    1  UNL1        0.1210
     23 C          16.0189   44.5704    6.2909 C.ar    1  UNL1        0.1196
     24 C          14.8759   42.5895    6.9057 C.ar    1  UNL1        0.1332
     25 N          13.7124   44.3227    5.7665 N.ar    1  UNL1       -0.2258
     26 N          16.0088   43.3397    6.8674 N.ar    1  UNL1       -0.2378
@<TRIPOS>BOND
     1     1     2    1
     2     2     7   ar
     3     3     6   ar
     4     4     5   ar
     5     5    19    1
     6    22    25   ar
     7    23    26   ar
     8    24    21   ar
     9     8     3    1
    10     8     9    1
    11     9    10    1
    12    10    11    1
    13    11    14    1
    14    12    14    1
    15    12     8    1
    16    16    13    1
    17    16    17    1
    18    16    18    1
    19    19    21    1
    20    14    13   am
    21     2     6   ar
    22     3     4   ar
    23     5     7   ar
    24    21    25   ar
    25    22    23   ar
    26    24    26   ar
    27    13    15    2
    28    19    20    1
@<TRIPOS>MOLECULE
MolPort-020-280-781 MCULE-7982223215 PubChem-110256834
 26 28 0 0 0
SMALL
GASTEIGER

@<TRIPOS>ATOM
      1 C           8.2806   40.8559    7.7502 C.3     1  UNL1        0.0737
      2 C           9.7498   40.7987    7.5352 C.ar    1  UNL1        0.1406
      3 C          11.8098   39.6717    7.8150 C.ar    1  UNL1        0.0644
      4 C          12.4695   40.6957    7.1357 C.ar    1  UNL1        0.0492
      5 C          11.7227   41.7741    6.6621 C.ar    1  UNL1        0.1358
      6 N          10.4637   39.7418    8.0023 N.ar    1  UNL1       -0.2348
      7 N          10.3782   41.8036    6.8715 N.ar    1  UNL1       -0.2159
      8 C          12.5904   38.5088    8.3307 C.3     1  UNL1        0.0603
      9 C          11.9695   37.9655    9.6212 C.3     1  UNL1        0.0094
     10 C          12.7924   36.8374   10.2642 C.3     1  UNL1        0.0219
     11 C          14.1129   36.5674    9.5419 C.3     1  UNL1        0.0934
     12 C          14.0544   38.8952    8.5546 C.3     1  UNL1        0.0992
     13 C          16.1512   38.0665    9.6554 C.2     1  UNL1        0.2252
     14 N          14.7901   37.8305    9.2452 N.am    1  UNL1       -0.2792
     15 O          16.6982   39.1720    9.3966 O.2     1  UNL1       -0.2749
     16 C          16.9620   37.0389   10.3898 C.3     1  UNL1        0.0767
     17 C          17.8971   37.6808   11.3975 C.3     1  UNL1        0.0096
     18 C          17.7292   36.1456    9.4332 C.3     1  UNL1        0.0096
     19 N          12.3905   42.8310    5.9630 N.pl3   1  UNL1       -0.2820
     20 H          11.8830   43.2844    5.2516 H       1  UNL1        0.1551
     21 C          13.7261   43.2915    6.2001 C.ar    1  UNL1        0.1526
     22 C          15.8173   43.0987    7.3029 C.ar    1  UNL1        0.1210
     23 C          16.2836   44.2206    6.6160 C.ar    1  UNL1        0.1196
     24 C          14.1960   44.4137    5.5145 C.ar    1  UNL1        0.1332
     25 N          14.5507   42.6593    7.0804 N.ar    1  UNL1       -0.2258
     26 N          15.4628   44.8536    5.7369 N.ar    1  UNL1       -0.2378
@<TRIPOS>BOND
     1     1     2    1
     2     2     7   ar
     3     3     6   ar
     4     4     5   ar
     5     5    19    1
     6    22    25   ar
     7    23    26   ar
     8    24    21   ar
     9     8     3    1
    10     8     9    1
    11     9    10    1
    12    10    11    1
    13    11    14    1
    14    12    14    1
    15    12     8    1
    16    16    13    1
    17    16    17    1
    18    16    18    1
    19    19    21    1
    20    14    13   am
    21     2     6   ar
    22     3     4   ar
    23     5     7   ar
    24    21    25   ar
    25    22    23   ar
    26    24    26   ar
    27    13    15    2
    28    19    20    1
@<TRIPOS>MOLECULE
MolPort-020-280-781 MCULE-7982223215 PubChem-110256834
 26 28 0 0 0
SMALL
GASTEIGER

@<TRIPOS>ATOM
      1 C          14.2327   38.7591   11.8308 C.3     1  UNL1        0.0737
      2 C          13.8949   39.5004   10.5881 C.ar    1  UNL1        0.1406
      3 C          12.2891   40.1780    8.9899 C.ar    1  UNL1        0.0644
      4 C          13.2727   40.8735    8.2871 C.ar    1  UNL1        0.0492
      5 C          14.5794   40.8597    8.7742 C.ar    1  UNL1        0.1358
      6 N          12.6177   39.5048   10.1260 N.ar    1  UNL1       -0.2348
      7 N          14.8638   40.1734    9.9146 N.ar    1  UNL1       -0.2159
      8 C          10.8844   40.1794    8.4853 C.3     1  UNL1        0.0603
      9 C          10.8518   39.9939    6.9651 C.3     1  UNL1        0.0094
     10 C           9.4385   40.0995    6.3697 C.3     1  UNL1        0.0219
     11 C           8.3755   40.4753    7.4027 C.3     1  UNL1        0.0934
     12 C          10.1645   41.4681    8.8896 C.3     1  UNL1        0.0992
     13 C           8.0865   42.7858    8.3991 C.2     1  UNL1        0.2252
     14 N           8.8549   41.5775    8.2380 N.am    1  UNL1       -0.2792
     15 O           8.5369   43.7212    9.1137 O.2     1  UNL1       -0.2749
     16 C           6.7511   42.9861    7.7438 C.3     1  UNL1        0.0767
     17 C           6.8930   43.2570    6.2578 C.3     1  UNL1        0.0096
     18 C           5.9571   44.0876    8.4206 C.3     1  UNL1        0.0096
     19 N          15.5972   41.5709    8.0601 N.pl3   1  UNL1       -0.2820
     20 H          16.5188   41.2356    8.1468 H       1  UNL1        0.1551
     21 C          15.4024   42.7233    7.2317 C.ar    1  UNL1        0.1526
     22 C          14.0538   44.0220    5.7754 C.ar    1  UNL1        0.1210
     23 C          15.0834   44.9563    5.6541 C.ar    1  UNL1        0.1196
     24 C          16.4305   43.6603    7.1082 C.ar    1  UNL1        0.1332
     25 N          14.2354   42.9276    6.5603 N.ar    1  UNL1       -0.2258
     26 N          16.2492   44.7551    6.3231 N.ar    1  UNL1       -0.2378
@<TRIPOS>BOND
     1     1     2    1
     2     2     7   ar
     3     3     6   ar
     4     4     5   ar
     5     5    19    1
     6    22    25   ar
     7    23    26   ar
     8    24    21   ar
     9     8     3    1
    10     8     9    1
    11     9    10    1
    12    10    11    1
    13    11    14    1
    14    12    14    1
    15    12     8    1
    16    16    13    1
    17    16    17    1
    18    16    18    1
    19    19    21    1
    20    14    13   am
    21     2     6   ar
    22     3     4   ar
    23     5     7   ar
    24    21    25   ar
    25    22    23   ar
    26    24    26   ar
    27    13    15    2
    28    19    20    1
