@<TRIPOS>MOLECULE
MolPort-001-901-439 830104 CSSS00159729154 MCULE-6437410963 PubChem-1104026 ZINC000000830104 ZINC00830104
 29 31 0 0 0
SMALL
GASTEIGER

@<TRIPOS>ATOM
      1 C           9.4705   41.1744    5.7526 C.ar    1  UNL1        0.0503
      2 C          10.4782   40.6897    4.9084 C.ar    1  UNL1        0.0159
      3 C          11.8217   40.9083    5.2177 C.ar    1  UNL1        0.0156
      4 C          12.1797   41.6307    6.3602 C.ar    1  UNL1        0.0466
      5 C          11.1664   42.1061    7.2228 C.ar    1  UNL1       -0.0071
      6 C          11.4774   42.7802    8.5153 C.3     1  UNL1        0.0324
      7 C           9.8234   41.8809    6.9050 C.ar    1  UNL1        0.0116
      8 C           7.0556   40.6104    6.3789 C.2     1  UNL1        0.2524
      9 O           6.0792   39.9355    5.9575 O.2     1  UNL1       -0.2697
     10 N           8.0820   40.9876    5.4497 N.am    1  UNL1       -0.2803
     11 H           7.8063   41.1317    4.5156 H       1  UNL1        0.1552
     12 C           8.0752   40.5108    8.6903 C.ar    1  UNL1        0.1430
     13 C           7.0937   41.0058    7.8035 C.ar    1  UNL1        0.0876
     14 C           6.1440   41.9252    8.2713 C.ar    1  UNL1        0.0076
     15 C           6.1402   42.3273    9.6083 C.ar    1  UNL1        0.0003
     16 C           7.0930   41.8196   10.4914 C.ar    1  UNL1        0.0031
     17 C           8.0568   40.9189   10.0350 C.ar    1  UNL1        0.0371
     18 C           8.7720   38.3626    7.6689 C.3     1  UNL1        0.2525
     19 O           9.0653   39.6381    8.2226 O.3     1  UNL1       -0.4713
     20 C          14.2842   43.0503    6.5107 C.2     1  UNL1        0.2495
     21 O          13.7571   44.0219    5.9023 O.2     1  UNL1       -0.2698
     22 N          13.5742   41.8117    6.6383 N.am    1  UNL1       -0.2806
     23 H          14.0833   41.0249    6.9401 H       1  UNL1        0.1552
     24 C          15.6484   43.1750    7.0523 C.ar    1  UNL1        0.0537
     25 C          16.1081   42.2783    8.0280 C.ar    1  UNL1        0.0045
     26 C          17.4018   42.3969    8.5441 C.ar    1  UNL1        0.0001
     27 C          18.2454   43.4134    8.0884 C.ar    1  UNL1        0.0000
     28 C          17.7957   44.3117    7.1170 C.ar    1  UNL1        0.0001
     29 C          16.5017   44.1930    6.6009 C.ar    1  UNL1        0.0045
@<TRIPOS>BOND
     1    18    19    1
     2    12    19    1
     3    13    14   ar
     4    13     8    1
     5    15    16   ar
     6    17    12   ar
     7     8    10   am
     8     2     3   ar
     9     4    22    1
    10     4     5   ar
    11    20    24    1
    12    25    26   ar
    13    27    28   ar
    14    29    24   ar
    15     6     5    1
    16     7     1   ar
    17    10     1    1
    18    22    20   am
    19    12    13   ar
    20    14    15   ar
    21    16    17   ar
    22     8     9    2
    23     1     2   ar
    24     3     4   ar
    25    20    21    2
    26    24    25   ar
    27    26    27   ar
    28    28    29   ar
    29     5     7   ar
    30    10    11    1
    31    22    23    1
@<TRIPOS>MOLECULE
MolPort-001-901-439 830104 CSSS00159729154 MCULE-6437410963 PubChem-1104026 ZINC000000830104 ZINC00830104
 29 31 0 0 0
SMALL
GASTEIGER

@<TRIPOS>ATOM
      1 C          14.2396   39.6641   10.6503 C.ar    1  UNL1        0.0503
      2 C          13.0038   39.5470   11.3002 C.ar    1  UNL1        0.0159
      3 C          11.8435   40.0400   10.7010 C.ar    1  UNL1        0.0156
      4 C          11.9008   40.6752    9.4566 C.ar    1  UNL1        0.0466
      5 C          13.1428   40.7797    8.7907 C.ar    1  UNL1       -0.0071
      6 C          13.2594   41.3379    7.4136 C.3     1  UNL1        0.0324
      7 C          14.2994   40.2815    9.3985 C.ar    1  UNL1        0.0116
      8 C          15.9331   37.8382   11.2334 C.2     1  UNL1        0.2524
      9 O          16.6189   37.4302   12.2080 O.2     1  UNL1       -0.2697
     10 N          15.4520   39.1900   11.2502 N.am    1  UNL1       -0.2803
     11 H          16.0073   39.8549   11.7181 H       1  UNL1        0.1552
     12 C          14.4603   36.2022    9.9898 C.ar    1  UNL1        0.1430
     13 C          15.6718   36.9192   10.1046 C.ar    1  UNL1        0.0876
     14 C          16.6473   36.7872    9.1060 C.ar    1  UNL1        0.0076
     15 C          16.4455   35.9309    8.0219 C.ar    1  UNL1        0.0003
     16 C          15.2603   35.2024    7.9204 C.ar    1  UNL1        0.0031
     17 C          14.2721   35.3391    8.8968 C.ar    1  UNL1        0.0371
     18 C          12.1100   35.9588   10.7379 C.3     1  UNL1        0.2525
     19 O          13.4538   36.3699   10.9486 O.3     1  UNL1       -0.4713
     20 C           9.9048   42.2489    9.3775 C.2     1  UNL1        0.2495
     21 O          10.1448   42.7241   10.5214 O.2     1  UNL1       -0.2698
     22 N          10.6767   41.1482    8.8801 N.am    1  UNL1       -0.2806
     23 H          10.3402   40.6814    8.0813 H       1  UNL1        0.1552
     24 C           8.8014   42.7975    8.5703 C.ar    1  UNL1        0.0537
     25 C           8.4857   42.2334    7.3256 C.ar    1  UNL1        0.0045
     26 C           7.4400   42.7545    6.5578 C.ar    1  UNL1        0.0001
     27 C           6.7026   43.8438    7.0291 C.ar    1  UNL1        0.0000
     28 C           7.0106   44.4125    8.2679 C.ar    1  UNL1        0.0001
     29 C           8.0563   43.8914    9.0357 C.ar    1  UNL1        0.0045
@<TRIPOS>BOND
     1    18    19    1
     2    12    19    1
     3    13    14   ar
     4    13     8    1
     5    15    16   ar
     6    17    12   ar
     7     8    10   am
     8     2     3   ar
     9     4    22    1
    10     4     5   ar
    11    20    24    1
    12    25    26   ar
    13    27    28   ar
    14    29    24   ar
    15     6     5    1
    16     7     1   ar
    17    10     1    1
    18    22    20   am
    19    12    13   ar
    20    14    15   ar
    21    16    17   ar
    22     8     9    2
    23     1     2   ar
    24     3     4   ar
    25    20    21    2
    26    24    25   ar
    27    26    27   ar
    28    28    29   ar
    29     5     7   ar
    30    10    11    1
    31    22    23    1
@<TRIPOS>MOLECULE
MolPort-001-901-439 830104 CSSS00159729154 MCULE-6437410963 PubChem-1104026 ZINC000000830104 ZINC00830104
 29 31 0 0 0
SMALL
GASTEIGER

@<TRIPOS>ATOM
      1 C          12.0535   40.6028    9.9721 C.ar    1  UNL1        0.0503
      2 C          13.2788   40.5415    9.2954 C.ar    1  UNL1        0.0159
      3 C          13.7882   39.3133    8.8708 C.ar    1  UNL1        0.0156
      4 C          13.0951   38.1274    9.1328 C.ar    1  UNL1        0.0466
      5 C          11.8509   38.1873    9.7999 C.ar    1  UNL1       -0.0071
      6 C          11.0040   36.9785   10.0082 C.3     1  UNL1        0.0324
      7 C          11.3482   39.4227   10.2201 C.ar    1  UNL1        0.0116
      8 C          10.5372   42.6529    9.7716 C.2     1  UNL1        0.2524
      9 O          10.5719   43.9015    9.9340 O.2     1  UNL1       -0.2697
     10 N          11.5160   41.8457   10.4422 N.am    1  UNL1       -0.2803
     11 H          11.8500   42.1770   11.3071 H       1  UNL1        0.1552
     12 C           9.7126   41.7255    7.5689 C.ar    1  UNL1        0.1430
     13 C           9.4794   42.0687    8.9190 C.ar    1  UNL1        0.0876
     14 C           8.2207   41.8209    9.4849 C.ar    1  UNL1        0.0076
     15 C           7.1909   41.2715    8.7187 C.ar    1  UNL1        0.0003
     16 C           7.4120   40.9558    7.3782 C.ar    1  UNL1        0.0031
     17 C           8.6660   41.1786    6.8070 C.ar    1  UNL1        0.0371
     18 C          11.4734   41.1276    5.9303 C.3     1  UNL1        0.2525
     19 O          10.9818   41.9127    7.0079 O.3     1  UNL1       -0.4713
     20 C          14.5318   36.0481    9.4142 C.2     1  UNL1        0.2495
     21 O          15.0598   36.4712   10.4793 O.2     1  UNL1       -0.2698
     22 N          13.6561   36.8960    8.6601 N.am    1  UNL1       -0.2806
     23 H          13.4219   36.6106    7.7474 H       1  UNL1        0.1552
     24 C          14.8504   34.6965    8.9225 C.ar    1  UNL1        0.0537
     25 C          13.8867   33.6787    8.9734 C.ar    1  UNL1        0.0045
     26 C          14.1885   32.3952    8.5088 C.ar    1  UNL1        0.0001
     27 C          15.4565   32.1201    7.9901 C.ar    1  UNL1        0.0000
     28 C          16.4231   33.1280    7.9361 C.ar    1  UNL1        0.0001
     29 C          16.1212   34.4115    8.4007 C.ar    1  UNL1        0.0045
@<TRIPOS>BOND
     1    18    19    1
     2    12    19    1
     3    13    14   ar
     4    13     8    1
     5    15    16   ar
     6    17    12   ar
     7     8    10   am
     8     2     3   ar
     9     4    22    1
    10     4     5   ar
    11    20    24    1
    12    25    26   ar
    13    27    28   ar
    14    29    24   ar
    15     6     5    1
    16     7     1   ar
    17    10     1    1
    18    22    20   am
    19    12    13   ar
    20    14    15   ar
    21    16    17   ar
    22     8     9    2
    23     1     2   ar
    24     3     4   ar
    25    20    21    2
    26    24    25   ar
    27    26    27   ar
    28    28    29   ar
    29     5     7   ar
    30    10    11    1
    31    22    23    1
@<TRIPOS>MOLECULE
MolPort-001-901-439 830104 CSSS00159729154 MCULE-6437410963 PubChem-1104026 ZINC000000830104 ZINC00830104
 29 31 0 0 0
SMALL
GASTEIGER

@<TRIPOS>ATOM
      1 C           8.3069   42.5327    8.9997 C.ar    1  UNL1        0.0503
      2 C           9.5327   42.5224    9.6783 C.ar    1  UNL1        0.0159
      3 C          10.3974   41.4337    9.5539 C.ar    1  UNL1        0.0156
      4 C          10.0442   40.3314    8.7695 C.ar    1  UNL1        0.0466
      5 C           8.8164   40.3459    8.0702 C.ar    1  UNL1       -0.0071
      6 C           8.4291   39.2597    7.1257 C.3     1  UNL1        0.0324
      7 C           7.9575   41.4417    8.2001 C.ar    1  UNL1        0.0116
      8 C           5.9568   43.5240    9.1905 C.2     1  UNL1        0.2524
      9 O           5.2648   44.4689    8.7270 O.2     1  UNL1       -0.2697
     10 N           7.3869   43.6245    9.1266 N.am    1  UNL1       -0.2803
     11 H           7.7726   44.5290    9.1744 H       1  UNL1        0.1552
     12 C           5.7275   41.7729   10.9997 C.ar    1  UNL1        0.1430
     13 C           5.2715   42.3643    9.8008 C.ar    1  UNL1        0.0876
     14 C           4.1166   41.8644    9.1823 C.ar    1  UNL1        0.0076
     15 C           3.4366   40.7706    9.7214 C.ar    1  UNL1        0.0003
     16 C           3.9004   40.1693   10.8913 C.ar    1  UNL1        0.0031
     17 C           5.0374   40.6689   11.5287 C.ar    1  UNL1        0.0371
     18 C           7.7625   41.4944   12.3869 C.3     1  UNL1        0.2525
     19 O           6.8448   42.2994   11.6594 O.3     1  UNL1       -0.4713
     20 C          11.9138   38.8676    9.6800 C.2     1  UNL1        0.2495
     21 O          12.1363   39.6366   10.6553 O.2     1  UNL1       -0.2698
     22 N          10.9768   39.2479    8.6641 N.am    1  UNL1       -0.2806
     23 H          10.9735   38.7249    7.8301 H       1  UNL1        0.1552
     24 C          12.6503   37.5972    9.5627 C.ar    1  UNL1        0.0537
     25 C          13.8474   37.5370    8.8344 C.ar    1  UNL1        0.0045
     26 C          14.5462   36.3315    8.7208 C.ar    1  UNL1        0.0001
     27 C          14.0526   35.1772    9.3345 C.ar    1  UNL1        0.0000
     28 C          12.8603   35.2279   10.0617 C.ar    1  UNL1        0.0001
     29 C          12.1615   36.4335   10.1752 C.ar    1  UNL1        0.0045
@<TRIPOS>BOND
     1    18    19    1
     2    12    19    1
     3    13    14   ar
     4    13     8    1
     5    15    16   ar
     6    17    12   ar
     7     8    10   am
     8     2     3   ar
     9     4    22    1
    10     4     5   ar
    11    20    24    1
    12    25    26   ar
    13    27    28   ar
    14    29    24   ar
    15     6     5    1
    16     7     1   ar
    17    10     1    1
    18    22    20   am
    19    12    13   ar
    20    14    15   ar
    21    16    17   ar
    22     8     9    2
    23     1     2   ar
    24     3     4   ar
    25    20    21    2
    26    24    25   ar
    27    26    27   ar
    28    28    29   ar
    29     5     7   ar
    30    10    11    1
    31    22    23    1
@<TRIPOS>MOLECULE
MolPort-001-901-439 830104 CSSS00159729154 MCULE-6437410963 PubChem-1104026 ZINC000000830104 ZINC00830104
 29 31 0 0 0
SMALL
GASTEIGER

@<TRIPOS>ATOM
      1 C           9.2513   40.6271    5.9698 C.ar    1  UNL1        0.0503
      2 C          10.2887   40.6492    5.0284 C.ar    1  UNL1        0.0159
      3 C          11.6007   40.9029    5.4319 C.ar    1  UNL1        0.0156
      4 C          11.8944   41.1591    6.7748 C.ar    1  UNL1        0.0466
      5 C          10.8532   41.1207    7.7293 C.ar    1  UNL1       -0.0071
      6 C          11.1110   41.2679    9.1900 C.3     1  UNL1        0.0324
      7 C           9.5423   40.8643    7.3155 C.ar    1  UNL1        0.0116
      8 C           6.7470   40.4257    6.4496 C.2     1  UNL1        0.2524
      9 O           5.7676   39.6800    6.1824 O.2     1  UNL1       -0.2697
     10 N           7.8908   40.3939    5.5835 N.am    1  UNL1       -0.2803
     11 H           7.7253   40.1929    4.6341 H       1  UNL1        0.1552
     12 C           6.5137   42.7153    7.4961 C.ar    1  UNL1        0.1430
     13 C           6.6703   41.3177    7.6267 C.ar    1  UNL1        0.0876
     14 C           6.7219   40.7472    8.9066 C.ar    1  UNL1        0.0076
     15 C           6.6540   41.5495   10.0472 C.ar    1  UNL1        0.0003
     16 C           6.5253   42.9325    9.9198 C.ar    1  UNL1        0.0031
     17 C           6.4526   43.5122    8.6521 C.ar    1  UNL1        0.0371
     18 C           7.4735   43.9727    5.5880 C.3     1  UNL1        0.2525
     19 O           6.4012   43.2916    6.2249 O.3     1  UNL1       -0.4713
     20 C          14.0593   42.4884    6.6594 C.2     1  UNL1        0.2495
     21 O          13.6629   43.1834    5.6837 O.2     1  UNL1       -0.2698
     22 N          13.2609   41.3976    7.1361 N.am    1  UNL1       -0.2806
     23 H          13.6835   40.7635    7.7594 H       1  UNL1        0.1552
     24 C          15.3645   42.7711    7.2811 C.ar    1  UNL1        0.0537
     25 C          16.0628   43.9444    6.9601 C.ar    1  UNL1        0.0045
     26 C          17.3025   44.2128    7.5480 C.ar    1  UNL1        0.0001
     27 C          17.8529   43.3096    8.4612 C.ar    1  UNL1        0.0000
     28 C          17.1644   42.1378    8.7865 C.ar    1  UNL1        0.0001
     29 C          15.9247   41.8695    8.1984 C.ar    1  UNL1        0.0045
@<TRIPOS>BOND
     1    18    19    1
     2    12    19    1
     3    13    14   ar
     4    13     8    1
     5    15    16   ar
     6    17    12   ar
     7     8    10   am
     8     2     3   ar
     9     4    22    1
    10     4     5   ar
    11    20    24    1
    12    25    26   ar
    13    27    28   ar
    14    29    24   ar
    15     6     5    1
    16     7     1   ar
    17    10     1    1
    18    22    20   am
    19    12    13   ar
    20    14    15   ar
    21    16    17   ar
    22     8     9    2
    23     1     2   ar
    24     3     4   ar
    25    20    21    2
    26    24    25   ar
    27    26    27   ar
    28    28    29   ar
    29     5     7   ar
    30    10    11    1
    31    22    23    1
@<TRIPOS>MOLECULE
MolPort-001-901-439 830104 CSSS00159729154 MCULE-6437410963 PubChem-1104026 ZINC000000830104 ZINC00830104
 29 31 0 0 0
SMALL
GASTEIGER

@<TRIPOS>ATOM
      1 C          11.5335   40.0424    9.7322 C.ar    1  UNL1        0.0503
      2 C          12.6980   40.8203    9.6884 C.ar    1  UNL1        0.0159
      3 C          13.9510   40.2091    9.6174 C.ar    1  UNL1        0.0156
      4 C          14.0625   38.8152    9.6103 C.ar    1  UNL1        0.0466
      5 C          12.8894   38.0280    9.6371 C.ar    1  UNL1       -0.0071
      6 C          12.9282   36.5430    9.5141 C.3     1  UNL1        0.0324
      7 C          11.6387   38.6496    9.7068 C.ar    1  UNL1        0.0116
      8 C           9.5307   41.3148    8.7771 C.2     1  UNL1        0.2524
      9 O           8.7455   42.2517    9.0808 O.2     1  UNL1       -0.2697
     10 N          10.2341   40.6397    9.8301 N.am    1  UNL1       -0.2803
     11 H           9.7814   40.5812   10.7024 H       1  UNL1        0.1552
     12 C           8.6507   40.2692    6.6501 C.ar    1  UNL1        0.1430
     13 C           9.6780   40.9336    7.3558 C.ar    1  UNL1        0.0876
     14 C          10.8627   41.2751    6.6878 C.ar    1  UNL1        0.0076
     15 C          11.0473   40.9353    5.3463 C.ar    1  UNL1        0.0003
     16 C          10.0439   40.2563    4.6550 C.ar    1  UNL1        0.0031
     17 C           8.8514   39.9276    5.3017 C.ar    1  UNL1        0.0371
     18 C           6.1776   40.1053    6.6485 C.3     1  UNL1        0.2525
     19 O           7.4396   39.9750    7.2884 O.3     1  UNL1       -0.4713
     20 C          16.0858   37.6436   10.6106 C.2     1  UNL1        0.2495
     21 O          15.6839   37.8086   11.7952 O.2     1  UNL1       -0.2698
     22 N          15.3727   38.2407    9.5200 N.am    1  UNL1       -0.2806
     23 H          15.8167   38.2575    8.6415 H       1  UNL1        0.1552
     24 C          17.3143   36.8729   10.3518 C.ar    1  UNL1        0.0537
     25 C          17.4040   36.0395    9.2272 C.ar    1  UNL1        0.0045
     26 C          18.5686   35.3061    8.9816 C.ar    1  UNL1        0.0001
     27 C          19.6519   35.4005    9.8592 C.ar    1  UNL1        0.0000
     28 C          19.5710   36.2279   10.9826 C.ar    1  UNL1        0.0001
     29 C          18.4063   36.9613   11.2281 C.ar    1  UNL1        0.0045
@<TRIPOS>BOND
     1    18    19    1
     2    12    19    1
     3    13    14   ar
     4    13     8    1
     5    15    16   ar
     6    17    12   ar
     7     8    10   am
     8     2     3   ar
     9     4    22    1
    10     4     5   ar
    11    20    24    1
    12    25    26   ar
    13    27    28   ar
    14    29    24   ar
    15     6     5    1
    16     7     1   ar
    17    10     1    1
    18    22    20   am
    19    12    13   ar
    20    14    15   ar
    21    16    17   ar
    22     8     9    2
    23     1     2   ar
    24     3     4   ar
    25    20    21    2
    26    24    25   ar
    27    26    27   ar
    28    28    29   ar
    29     5     7   ar
    30    10    11    1
    31    22    23    1
@<TRIPOS>MOLECULE
MolPort-001-901-439 830104 CSSS00159729154 MCULE-6437410963 PubChem-1104026 ZINC000000830104 ZINC00830104
 29 31 0 0 0
SMALL
GASTEIGER

@<TRIPOS>ATOM
      1 C           8.5553   42.8073    9.1177 C.ar    1  UNL1        0.0503
      2 C           9.1597   42.3076   10.2788 C.ar    1  UNL1        0.0159
      3 C           9.8364   41.0871   10.2511 C.ar    1  UNL1        0.0156
      4 C           9.9023   40.3374    9.0725 C.ar    1  UNL1        0.0466
      5 C           9.3087   40.8465    7.8957 C.ar    1  UNL1       -0.0071
      6 C           9.4405   40.1589    6.5798 C.3     1  UNL1        0.0324
      7 C           8.6341   42.0709    7.9332 C.ar    1  UNL1        0.0116
      8 C           6.4446   44.2161    8.7977 C.2     1  UNL1        0.2524
      9 O           6.0760   45.3021    8.2769 O.2     1  UNL1       -0.2697
     10 N           7.8325   44.0452    9.1199 N.am    1  UNL1       -0.2803
     11 H           8.3359   44.8547    9.3657 H       1  UNL1        0.1552
     12 C           4.0487   43.4533    9.0624 C.ar    1  UNL1        0.1430
     13 C           5.4332   43.1739    9.0771 C.ar    1  UNL1        0.0876
     14 C           5.8689   41.8654    9.3303 C.ar    1  UNL1        0.0076
     15 C           4.9508   40.8487    9.6001 C.ar    1  UNL1        0.0003
     16 C           3.5844   41.1285    9.6114 C.ar    1  UNL1        0.0031
     17 C           3.1353   42.4223    9.3413 C.ar    1  UNL1        0.0371
     18 C           3.0583   45.0878    7.4842 C.3     1  UNL1        0.2525
     19 O           3.5977   44.7422    8.7527 O.3     1  UNL1       -0.4713
     20 C          12.0251   38.9582    8.8301 C.2     1  UNL1        0.2495
     21 O          12.6697   39.9118    8.3132 O.2     1  UNL1       -0.2698
     22 N          10.6237   39.0990    9.0966 N.am    1  UNL1       -0.2806
     23 H          10.1179   38.2825    9.3127 H       1  UNL1        0.1552
     24 C          12.7042   37.6834    9.1195 C.ar    1  UNL1        0.0537
     25 C          13.9804   37.4261    8.5975 C.ar    1  UNL1        0.0045
     26 C          14.6251   36.2159    8.8699 C.ar    1  UNL1        0.0001
     27 C          13.9980   35.2540    9.6663 C.ar    1  UNL1        0.0000
     28 C          12.7263   35.5016   10.1901 C.ar    1  UNL1        0.0001
     29 C          12.0816   36.7119    9.9176 C.ar    1  UNL1        0.0045
@<TRIPOS>BOND
     1    18    19    1
     2    12    19    1
     3    13    14   ar
     4    13     8    1
     5    15    16   ar
     6    17    12   ar
     7     8    10   am
     8     2     3   ar
     9     4    22    1
    10     4     5   ar
    11    20    24    1
    12    25    26   ar
    13    27    28   ar
    14    29    24   ar
    15     6     5    1
    16     7     1   ar
    17    10     1    1
    18    22    20   am
    19    12    13   ar
    20    14    15   ar
    21    16    17   ar
    22     8     9    2
    23     1     2   ar
    24     3     4   ar
    25    20    21    2
    26    24    25   ar
    27    26    27   ar
    28    28    29   ar
    29     5     7   ar
    30    10    11    1
    31    22    23    1
@<TRIPOS>MOLECULE
MolPort-001-901-439 830104 CSSS00159729154 MCULE-6437410963 PubChem-1104026 ZINC000000830104 ZINC00830104
 29 31 0 0 0
SMALL
GASTEIGER

@<TRIPOS>ATOM
      1 C          14.4036   40.2937    9.8423 C.ar    1  UNL1        0.0503
      2 C          13.1522   40.2369   10.4700 C.ar    1  UNL1        0.0159
      3 C          12.0365   40.8241    9.8710 C.ar    1  UNL1        0.0156
      4 C          12.1557   41.4940    8.6493 C.ar    1  UNL1        0.0466
      5 C          13.4126   41.5383    8.0053 C.ar    1  UNL1       -0.0071
      6 C          13.5881   42.1319    6.6493 C.3     1  UNL1        0.0324
      7 C          14.5242   40.9459    8.6128 C.ar    1  UNL1        0.0116
      8 C          15.6682   38.4197   11.0384 C.2     1  UNL1        0.2524
      9 O          16.4712   38.2510   11.9941 O.2     1  UNL1       -0.2697
     10 N          15.5725   39.7220   10.4435 N.am    1  UNL1       -0.2803
     11 H          16.3869   40.2752   10.4487 H       1  UNL1        0.1552
     12 C          15.2653   36.5174    9.4225 C.ar    1  UNL1        0.1430
     13 C          14.8766   37.2682   10.5539 C.ar    1  UNL1        0.0876
     14 C          13.7259   36.8974   11.2642 C.ar    1  UNL1        0.0076
     15 C          12.9465   35.8179   10.8441 C.ar    1  UNL1        0.0003
     16 C          13.3148   35.0913    9.7119 C.ar    1  UNL1        0.0031
     17 C          14.4688   35.4368    9.0066 C.ar    1  UNL1        0.0371
     18 C          17.4840   35.9002    8.5062 C.3     1  UNL1        0.2525
     19 O          16.4440   36.8402    8.7391 O.3     1  UNL1       -0.4713
     20 C           9.6317   41.7128    8.4285 C.2     1  UNL1        0.2495
     21 O           9.4110   40.6825    9.1226 O.2     1  UNL1       -0.2698
     22 N          10.9746   42.0647    8.0714 N.am    1  UNL1       -0.2806
     23 H          11.0949   42.7509    7.3758 H       1  UNL1        0.1552
     24 C           8.5047   42.5308    7.9480 C.ar    1  UNL1        0.0537
     25 C           7.9859   42.3349    6.6597 C.ar    1  UNL1        0.0045
     26 C           6.9176   43.1119    6.2019 C.ar    1  UNL1        0.0001
     27 C           6.3605   44.0906    7.0292 C.ar    1  UNL1        0.0000
     28 C           6.8715   44.2930    8.3141 C.ar    1  UNL1        0.0001
     29 C           7.9398   43.5160    8.7718 C.ar    1  UNL1        0.0045
@<TRIPOS>BOND
     1    18    19    1
     2    12    19    1
     3    13    14   ar
     4    13     8    1
     5    15    16   ar
     6    17    12   ar
     7     8    10   am
     8     2     3   ar
     9     4    22    1
    10     4     5   ar
    11    20    24    1
    12    25    26   ar
    13    27    28   ar
    14    29    24   ar
    15     6     5    1
    16     7     1   ar
    17    10     1    1
    18    22    20   am
    19    12    13   ar
    20    14    15   ar
    21    16    17   ar
    22     8     9    2
    23     1     2   ar
    24     3     4   ar
    25    20    21    2
    26    24    25   ar
    27    26    27   ar
    28    28    29   ar
    29     5     7   ar
    30    10    11    1
    31    22    23    1
@<TRIPOS>MOLECULE
MolPort-001-901-439 830104 CSSS00159729154 MCULE-6437410963 PubChem-1104026 ZINC000000830104 ZINC00830104
 29 31 0 0 0
SMALL
GASTEIGER

@<TRIPOS>ATOM
      1 C           9.3350   40.0749    6.2899 C.ar    1  UNL1        0.0503
      2 C          10.1127   40.9205    5.4879 C.ar    1  UNL1        0.0159
      3 C          11.4193   41.2396    5.8611 C.ar    1  UNL1        0.0156
      4 C          11.9621   40.7384    7.0483 C.ar    1  UNL1        0.0466
      5 C          11.1865   39.8716    7.8508 C.ar    1  UNL1       -0.0071
      6 C          11.7400   39.2086    9.0656 C.3     1  UNL1        0.0324
      7 C           9.8789   39.5567    7.4678 C.ar    1  UNL1        0.0116
      8 C           6.7999   40.3243    6.5209 C.2     1  UNL1        0.2524
      9 O           5.7612   39.6161    6.5992 O.2     1  UNL1       -0.2697
     10 N           7.9821   39.7483    5.9466 N.am    1  UNL1       -0.2803
     11 H           7.8517   39.0640    5.2509 H       1  UNL1        0.1552
     12 C           6.5935   42.0389    8.3674 C.ar    1  UNL1        0.1430
     13 C           6.7534   41.7226    7.0001 C.ar    1  UNL1        0.0876
     14 C           6.9068   42.7582    6.0672 C.ar    1  UNL1        0.0076
     15 C           6.8689   44.0936    6.4727 C.ar    1  UNL1        0.0003
     16 C           6.6852   44.4081    7.8192 C.ar    1  UNL1        0.0031
     17 C           6.5512   43.3872    8.7617 C.ar    1  UNL1        0.0371
     18 C           6.3223   41.2612   10.7050 C.3     1  UNL1        0.2525
     19 O           6.4987   41.0141    9.3168 O.3     1  UNL1       -0.4713
     20 C          14.0399   42.1852    6.8114 C.2     1  UNL1        0.2495
     21 O          13.5938   42.7825    5.7934 O.2     1  UNL1       -0.2698
     22 N          13.3141   41.0851    7.3748 N.am    1  UNL1       -0.2806
     23 H          13.7798   40.5246    8.0368 H       1  UNL1        0.1552
     24 C          15.3301   42.5911    7.3953 C.ar    1  UNL1        0.0537
     25 C          15.9811   41.7620    8.3206 C.ar    1  UNL1        0.0045
     26 C          17.2045   42.1470    8.8767 C.ar    1  UNL1        0.0001
     27 C          17.7857   43.3643    8.5119 C.ar    1  UNL1        0.0000
     28 C          17.1438   44.1969    7.5912 C.ar    1  UNL1        0.0001
     29 C          15.9203   43.8118    7.0350 C.ar    1  UNL1        0.0045
@<TRIPOS>BOND
     1    18    19    1
     2    12    19    1
     3    13    14   ar
     4    13     8    1
     5    15    16   ar
     6    17    12   ar
     7     8    10   am
     8     2     3   ar
     9     4    22    1
    10     4     5   ar
    11    20    24    1
    12    25    26   ar
    13    27    28   ar
    14    29    24   ar
    15     6     5    1
    16     7     1   ar
    17    10     1    1
    18    22    20   am
    19    12    13   ar
    20    14    15   ar
    21    16    17   ar
    22     8     9    2
    23     1     2   ar
    24     3     4   ar
    25    20    21    2
    26    24    25   ar
    27    26    27   ar
    28    28    29   ar
    29     5     7   ar
    30    10    11    1
    31    22    23    1
@<TRIPOS>MOLECULE
MolPort-001-901-439 830104 CSSS00159729154 MCULE-6437410963 PubChem-1104026 ZINC000000830104 ZINC00830104
 29 31 0 0 0
SMALL
GASTEIGER

@<TRIPOS>ATOM
      1 C          11.6894   39.8136   10.5470 C.ar    1  UNL1        0.0503
      2 C          11.0741   38.8630    9.7218 C.ar    1  UNL1        0.0159
      3 C          11.7113   37.6521    9.4458 C.ar    1  UNL1        0.0156
      4 C          12.9787   37.3800    9.9703 C.ar    1  UNL1        0.0466
      5 C          13.5946   38.3292   10.8167 C.ar    1  UNL1       -0.0071
      6 C          14.8893   38.0571   11.5033 C.3     1  UNL1        0.0324
      7 C          12.9477   39.5389   11.0883 C.ar    1  UNL1        0.0116
      8 C          10.9237   42.1701    9.9125 C.2     1  UNL1        0.2524
      9 O          10.9255   43.3439   10.3695 O.2     1  UNL1       -0.2697
     10 N          11.0719   41.0760   10.8291 N.am    1  UNL1       -0.2803
     11 H          10.7156   41.2046   11.7379 H       1  UNL1        0.1552
     12 C           9.4668   41.9157    7.8620 C.ar    1  UNL1        0.1430
     13 C          10.7461   41.9659    8.4586 C.ar    1  UNL1        0.0876
     14 C          11.8871   41.8530    7.6515 C.ar    1  UNL1        0.0076
     15 C          11.7689   41.6584    6.2740 C.ar    1  UNL1        0.0003
     16 C          10.5059   41.5828    5.6868 C.ar    1  UNL1        0.0031
     17 C           9.3614   41.7135    6.4752 C.ar    1  UNL1        0.0371
     18 C           7.2404   41.1627    8.6490 C.3     1  UNL1        0.2525
     19 O           8.3205   42.0862    8.6477 O.3     1  UNL1       -0.4713
     20 C          14.6463   35.9132    8.7315 C.2     1  UNL1        0.2495
     21 O          14.9622   36.8314    7.9257 O.2     1  UNL1       -0.2698
     22 N          13.5799   36.1144    9.6679 N.am    1  UNL1       -0.2806
     23 H          13.2337   35.3225   10.1395 H       1  UNL1        0.1552
     24 C          15.3453   34.6175    8.6802 C.ar    1  UNL1        0.0537
     25 C          16.7466   34.5695    8.6436 C.ar    1  UNL1        0.0045
     26 C          17.4110   33.3405    8.5930 C.ar    1  UNL1        0.0001
     27 C          16.6787   32.1505    8.5783 C.ar    1  UNL1        0.0000
     28 C          15.2822   32.1889    8.6139 C.ar    1  UNL1        0.0001
     29 C          14.6179   33.4180    8.6645 C.ar    1  UNL1        0.0045
@<TRIPOS>BOND
     1    18    19    1
     2    12    19    1
     3    13    14   ar
     4    13     8    1
     5    15    16   ar
     6    17    12   ar
     7     8    10   am
     8     2     3   ar
     9     4    22    1
    10     4     5   ar
    11    20    24    1
    12    25    26   ar
    13    27    28   ar
    14    29    24   ar
    15     6     5    1
    16     7     1   ar
    17    10     1    1
    18    22    20   am
    19    12    13   ar
    20    14    15   ar
    21    16    17   ar
    22     8     9    2
    23     1     2   ar
    24     3     4   ar
    25    20    21    2
    26    24    25   ar
    27    26    27   ar
    28    28    29   ar
    29     5     7   ar
    30    10    11    1
    31    22    23    1
