@<TRIPOS>MOLECULE
MolPort-005-291-984 12422538 CSSS03437107179 MCULE-1450102348 PubChem-16880185 ZINC000012422538
 27 30 0 0 0
SMALL
GASTEIGER

@<TRIPOS>ATOM
      1 N           6.7565   41.1017    8.9892 N.am    1  UNL1       -0.2552
      2 C           7.8993   41.3931    8.1795 C.ar    1  UNL1        0.0543
      3 C           8.0638   41.2522    6.8015 C.ar    1  UNL1        0.0162
      4 C           9.2916   41.6732    6.2409 C.ar    1  UNL1        0.0160
      5 C          10.3266   42.2211    7.0437 C.ar    1  UNL1        0.0507
      6 C          10.1032   42.3898    8.4344 C.ar    1  UNL1        0.0148
      7 C          10.9732   43.0243    9.3447 C.ar    1  UNL1        0.0013
      8 C          10.5932   43.1753   10.7036 C.ar    1  UNL1        0.0002
      9 C           9.3396   42.7110   11.1660 C.ar    1  UNL1        0.0046
     10 C           8.5055   42.0876   10.2388 C.ar    1  UNL1        0.0551
     11 C           8.8915   41.9458    8.9382 C.ar    1  UNL1        0.0193
     12 C           7.1415   41.5659   10.2931 C.2     1  UNL1        0.2528
     13 O           6.3911   41.5575   11.3041 O.2     1  UNL1       -0.2696
     14 N          11.5334   42.6505    6.3999 N.am    1  UNL1       -0.2778
     15 C          12.8555   42.2329    6.7565 C.2     1  UNL1        0.2869
     16 O          13.0321   41.2312    7.5017 O.2     1  UNL1       -0.2664
     17 H          11.4458   43.2842    5.6516 H       1  UNL1        0.1553
     18 N          15.1393   44.1893    4.8634 N.ar    1  UNL1       -0.0812
     19 C          14.0108   42.9482    6.2072 C.ar    1  UNL1        0.2298
     20 C          15.2841   42.9701    6.7491 C.ar    1  UNL1        0.0629
     21 C          15.9556   43.7757    5.8490 C.ar    1  UNL1        0.1012
     22 C          17.3916   44.1480    5.9409 C.3     1  UNL1        0.0557
     23 O          13.9756   43.6707    5.1129 O.2     1  UNL1       -0.3490
     24 C           5.3999   40.8405    8.5245 C.3     1  UNL1        0.0985
     25 C           4.4445   41.9196    9.0122 C.3     1  UNL1        0.0219
     26 C           3.1228   41.3100    9.4372 C.3     1  UNL1        0.0018
     27 C           3.3529   40.3659   10.5977 C.3     1  UNL1        0.0001
@<TRIPOS>BOND
     1     1     2    1
     2    14    15   am
     3    18    23   ar
     4    24     1    1
     5    24    25    1
     6    25    26    1
     7    26    27    1
     8     3     4   ar
     9     5     6   ar
    10     5    14    1
    11     7     8   ar
    12     9    10   ar
    13    10    12    1
    14    11     2   ar
    15    11     6   ar
    16    12     1   am
    17    15    19    1
    18    19    23   ar
    19    20    21   ar
    20    22    21    1
    21     2     3   ar
    22     4     5   ar
    23     6     7   ar
    24     8     9   ar
    25    10    11   ar
    26    12    13    2
    27    15    16    2
    28    19    20   ar
    29    21    18   ar
    30    14    17    1
@<TRIPOS>MOLECULE
MolPort-005-291-984 12422538 CSSS03437107179 MCULE-1450102348 PubChem-16880185 ZINC000012422538
 27 30 0 0 0
SMALL
GASTEIGER

@<TRIPOS>ATOM
      1 N          15.1151   43.5317    6.7133 N.am    1  UNL1       -0.2552
      2 C          14.7102   42.2816    7.2789 C.ar    1  UNL1        0.0543
      3 C          15.3309   41.5176    8.2673 C.ar    1  UNL1        0.0162
      4 C          14.6800   40.3350    8.6878 C.ar    1  UNL1        0.0160
      5 C          13.4384   39.9309    8.1300 C.ar    1  UNL1        0.0507
      6 C          12.8175   40.7587    7.1597 C.ar    1  UNL1        0.0148
      7 C          11.5378   40.5662    6.5997 C.ar    1  UNL1        0.0013
      8 C          11.0156   41.5111    5.6787 C.ar    1  UNL1        0.0002
      9 C          11.7538   42.6625    5.3179 C.ar    1  UNL1        0.0046
     10 C          13.0156   42.8198    5.8899 C.ar    1  UNL1        0.0551
     11 C          13.5032   41.8971    6.7682 C.ar    1  UNL1        0.0193
     12 C          14.0225   43.8781    5.8473 C.2     1  UNL1        0.2528
     13 O          13.9416   44.9519    5.1948 O.2     1  UNL1       -0.2696
     14 N          12.8260   38.7336    8.6264 N.am    1  UNL1       -0.2778
     15 C          11.7816   38.6821    9.6042 C.2     1  UNL1        0.2869
     16 O          11.1313   39.7203    9.9027 O.2     1  UNL1       -0.2664
     17 H          13.1500   37.8768    8.2654 H       1  UNL1        0.1553
     18 N          10.1960   35.8160   10.9819 N.ar    1  UNL1       -0.0812
     19 C          11.4356   37.3995   10.2235 C.ar    1  UNL1        0.2298
     20 C          12.3336   36.4534   10.6857 C.ar    1  UNL1        0.0629
     21 C          11.4839   35.4701   11.1563 C.ar    1  UNL1        0.1012
     22 C          11.9173   34.1910   11.7769 C.3     1  UNL1        0.0557
     23 O          10.2063   36.9847   10.4170 O.2     1  UNL1       -0.3490
     24 C          16.1354   44.4352    7.2303 C.3     1  UNL1        0.0985
     25 C          17.5182   44.0203    6.7500 C.3     1  UNL1        0.0219
     26 C          18.5055   44.0211    7.9009 C.3     1  UNL1        0.0018
     27 C          17.7565   43.8743    9.2080 C.3     1  UNL1        0.0001
@<TRIPOS>BOND
     1     1     2    1
     2    14    15   am
     3    18    23   ar
     4    24     1    1
     5    24    25    1
     6    25    26    1
     7    26    27    1
     8     3     4   ar
     9     5     6   ar
    10     5    14    1
    11     7     8   ar
    12     9    10   ar
    13    10    12    1
    14    11     2   ar
    15    11     6   ar
    16    12     1   am
    17    15    19    1
    18    19    23   ar
    19    20    21   ar
    20    22    21    1
    21     2     3   ar
    22     4     5   ar
    23     6     7   ar
    24     8     9   ar
    25    10    11   ar
    26    12    13    2
    27    15    16    2
    28    19    20   ar
    29    21    18   ar
    30    14    17    1
@<TRIPOS>MOLECULE
MolPort-005-291-984 12422538 CSSS03437107179 MCULE-1450102348 PubChem-16880185 ZINC000012422538
 27 30 0 0 0
SMALL
GASTEIGER

@<TRIPOS>ATOM
      1 N           7.4828   41.9668    9.6629 N.am    1  UNL1       -0.2552
      2 C           6.1797   41.8096   10.2318 C.ar    1  UNL1        0.0543
      3 C           5.7827   41.0496   11.3321 C.ar    1  UNL1        0.0162
      4 C           4.4250   41.1176   11.7210 C.ar    1  UNL1        0.0160
      5 C           3.4911   41.9277   11.0227 C.ar    1  UNL1        0.0507
      6 C           3.9438   42.7206    9.9370 C.ar    1  UNL1        0.0148
      7 C           3.1782   43.6634    9.2207 C.ar    1  UNL1        0.0013
      8 C           3.7797   44.4326    8.1911 C.ar    1  UNL1        0.0002
      9 C           5.1502   44.2824    7.8747 C.ar    1  UNL1        0.0046
     10 C           5.8762   43.3402    8.6022 C.ar    1  UNL1        0.0551
     11 C           5.2785   42.6056    9.5838 C.ar    1  UNL1        0.0193
     12 C           7.2861   42.9577    8.6415 C.2     1  UNL1        0.2528
     13 O           8.2053   43.4420    7.9303 O.2     1  UNL1       -0.2696
     14 N           2.1373   41.9661   11.4925 N.am    1  UNL1       -0.2778
     15 C           1.6819   42.6785   12.6478 C.2     1  UNL1        0.2869
     16 O           2.4085   43.5568   13.1868 O.2     1  UNL1       -0.2664
     17 H           1.4660   41.4614   10.9789 H       1  UNL1        0.1553
     18 N          -1.7642   42.6983   13.5144 N.ar    1  UNL1       -0.0812
     19 C           0.3392   42.4168   13.1741 C.ar    1  UNL1        0.2298
     20 C          -0.0181   41.3641   13.9983 C.ar    1  UNL1        0.0629
     21 C          -1.3680   41.5985   14.1793 C.ar    1  UNL1        0.1012
     22 C          -2.2796   40.7570   14.9979 C.3     1  UNL1        0.0557
     23 O          -0.7082   43.1645   12.9203 O.2     1  UNL1       -0.3490
     24 C           8.7520   41.5791   10.2657 C.3     1  UNL1        0.0985
     25 C           9.6222   40.8366    9.2625 C.3     1  UNL1        0.0219
     26 C          10.9846   41.4926    9.1492 C.3     1  UNL1        0.0018
     27 C          12.0022   40.6778    9.9184 C.3     1  UNL1        0.0001
@<TRIPOS>BOND
     1     1     2    1
     2    14    15   am
     3    18    23   ar
     4    24     1    1
     5    24    25    1
     6    25    26    1
     7    26    27    1
     8     3     4   ar
     9     5     6   ar
    10     5    14    1
    11     7     8   ar
    12     9    10   ar
    13    10    12    1
    14    11     2   ar
    15    11     6   ar
    16    12     1   am
    17    15    19    1
    18    19    23   ar
    19    20    21   ar
    20    22    21    1
    21     2     3   ar
    22     4     5   ar
    23     6     7   ar
    24     8     9   ar
    25    10    11   ar
    26    12    13    2
    27    15    16    2
    28    19    20   ar
    29    21    18   ar
    30    14    17    1
@<TRIPOS>MOLECULE
MolPort-005-291-984 12422538 CSSS03437107179 MCULE-1450102348 PubChem-16880185 ZINC000012422538
 27 30 0 0 0
SMALL
GASTEIGER

@<TRIPOS>ATOM
      1 N          16.9908   36.5111   10.8202 N.am    1  UNL1       -0.2552
      2 C          17.2543   37.7219   10.1053 C.ar    1  UNL1        0.0543
      3 C          18.4670   38.2186    9.6274 C.ar    1  UNL1        0.0162
      4 C          18.4376   39.4275    8.8946 C.ar    1  UNL1        0.0160
      5 C          17.2221   40.1187    8.6487 C.ar    1  UNL1        0.0507
      6 C          16.0047   39.5573    9.1126 C.ar    1  UNL1        0.0148
      7 C          14.7097   40.0494    8.8503 C.ar    1  UNL1        0.0013
      8 C          13.5725   39.3496    9.3310 C.ar    1  UNL1        0.0002
      9 C          13.7120   38.1474   10.0631 C.ar    1  UNL1        0.0046
     10 C          15.0072   37.6911   10.3049 C.ar    1  UNL1        0.0551
     11 C          16.0879   38.3814    9.8402 C.ar    1  UNL1        0.0193
     12 C          15.5581   36.4876   10.9244 C.2     1  UNL1        0.2528
     13 O          14.8948   35.5466   11.4344 O.2     1  UNL1       -0.2696
     14 N          17.2685   41.3245    7.8748 N.am    1  UNL1       -0.2778
     15 C          16.9498   42.6329    8.3608 C.2     1  UNL1        0.2869
     16 O          16.8647   42.8533    9.5994 O.2     1  UNL1       -0.2664
     17 H          17.5418   41.2466    6.9322 H       1  UNL1        0.1553
     18 N          17.3115   45.3392    6.0867 N.ar    1  UNL1       -0.0812
     19 C          16.7718   43.7328    7.4086 C.ar    1  UNL1        0.2298
     20 C          15.5630   44.1884    6.9122 C.ar    1  UNL1        0.0629
     21 C          15.9729   45.2105    6.0771 C.ar    1  UNL1        0.1012
     22 C          15.0681   46.0668    5.2663 C.3     1  UNL1        0.0557
     23 O          17.7586   44.4317    6.9003 O.2     1  UNL1       -0.3490
     24 C          17.8933   35.3781   10.9828 C.3     1  UNL1        0.0985
     25 C          18.7364   35.5349   12.2395 C.3     1  UNL1        0.0219
     26 C          19.6499   34.3385   12.4222 C.3     1  UNL1        0.0018
     27 C          19.6366   33.4971   11.1641 C.3     1  UNL1        0.0001
@<TRIPOS>BOND
     1     1     2    1
     2    14    15   am
     3    18    23   ar
     4    24     1    1
     5    24    25    1
     6    25    26    1
     7    26    27    1
     8     3     4   ar
     9     5     6   ar
    10     5    14    1
    11     7     8   ar
    12     9    10   ar
    13    10    12    1
    14    11     2   ar
    15    11     6   ar
    16    12     1   am
    17    15    19    1
    18    19    23   ar
    19    20    21   ar
    20    22    21    1
    21     2     3   ar
    22     4     5   ar
    23     6     7   ar
    24     8     9   ar
    25    10    11   ar
    26    12    13    2
    27    15    16    2
    28    19    20   ar
    29    21    18   ar
    30    14    17    1
@<TRIPOS>MOLECULE
MolPort-005-291-984 12422538 CSSS03437107179 MCULE-1450102348 PubChem-16880185 ZINC000012422538
 27 30 0 0 0
SMALL
GASTEIGER

@<TRIPOS>ATOM
      1 N          16.0473   42.3396    8.5998 N.am    1  UNL1       -0.2552
      2 C          15.7527   40.9500    8.7695 C.ar    1  UNL1        0.0543
      3 C          16.4325   39.9886    9.5174 C.ar    1  UNL1        0.0162
      4 C          15.8879   38.6844    9.5593 C.ar    1  UNL1        0.0160
      5 C          14.6921   38.3552    8.8681 C.ar    1  UNL1        0.0507
      6 C          14.0062   39.3724    8.1559 C.ar    1  UNL1        0.0148
      7 C          12.7535   39.2424    7.5220 C.ar    1  UNL1        0.0013
      8 C          12.1549   40.3652    6.8937 C.ar    1  UNL1        0.0002
      9 C          12.7888   41.6298    6.9030 C.ar    1  UNL1        0.0046
     10 C          14.0269   41.7212    7.5376 C.ar    1  UNL1        0.0551
     11 C          14.5892   40.6288    8.1302 C.ar    1  UNL1        0.0193
     12 C          14.9343   42.8278    7.8337 C.2     1  UNL1        0.2528
     13 O          14.7617   44.0334    7.5142 O.2     1  UNL1       -0.2696
     14 N          14.1866   37.0184    8.9797 N.am    1  UNL1       -0.2778
     15 C          14.9869   35.8405    9.1271 C.2     1  UNL1        0.2869
     16 O          16.2038   35.9280    9.4454 O.2     1  UNL1       -0.2664
     17 H          13.2096   36.9008    8.9528 H       1  UNL1        0.1553
     18 N          13.0637   32.8605    9.3459 N.ar    1  UNL1       -0.0812
     19 C          14.3692   34.5224    8.9551 C.ar    1  UNL1        0.2298
     20 C          14.6825   33.6020    7.9703 C.ar    1  UNL1        0.0629
     21 C          13.8186   32.5665    8.2725 C.ar    1  UNL1        0.1012
     22 C          13.7213   31.2875    7.5215 C.3     1  UNL1        0.0557
     23 O          13.4235   34.0472    9.7300 O.2     1  UNL1       -0.3490
     24 C          16.9778   43.1382    9.3878 C.3     1  UNL1        0.0985
     25 C          17.8637   43.9834    8.4846 C.3     1  UNL1        0.0219
     26 C          18.2596   45.2718    9.1793 C.3     1  UNL1        0.0018
     27 C          17.6834   45.2877   10.5789 C.3     1  UNL1        0.0001
@<TRIPOS>BOND
     1     1     2    1
     2    14    15   am
     3    18    23   ar
     4    24     1    1
     5    24    25    1
     6    25    26    1
     7    26    27    1
     8     3     4   ar
     9     5     6   ar
    10     5    14    1
    11     7     8   ar
    12     9    10   ar
    13    10    12    1
    14    11     2   ar
    15    11     6   ar
    16    12     1   am
    17    15    19    1
    18    19    23   ar
    19    20    21   ar
    20    22    21    1
    21     2     3   ar
    22     4     5   ar
    23     6     7   ar
    24     8     9   ar
    25    10    11   ar
    26    12    13    2
    27    15    16    2
    28    19    20   ar
    29    21    18   ar
    30    14    17    1
@<TRIPOS>MOLECULE
MolPort-005-291-984 12422538 CSSS03437107179 MCULE-1450102348 PubChem-16880185 ZINC000012422538
 27 30 0 0 0
SMALL
GASTEIGER

@<TRIPOS>ATOM
      1 N           7.7282   42.2006    7.7170 N.am    1  UNL1       -0.2552
      2 C           6.8523   42.0358    8.8359 C.ar    1  UNL1        0.0543
      3 C           7.0336   41.2815    9.9952 C.ar    1  UNL1        0.0162
      4 C           6.0215   41.3398   10.9808 C.ar    1  UNL1        0.0160
      5 C           4.8581   42.1348   10.8060 C.ar    1  UNL1        0.0507
      6 C           4.7324   42.9226    9.6330 C.ar    1  UNL1        0.0148
      7 C           3.7070   43.8518    9.3623 C.ar    1  UNL1        0.0013
      8 C           3.7392   44.6180    8.1682 C.ar    1  UNL1        0.0002
      9 C           4.7980   44.4783    7.2406 C.ar    1  UNL1        0.0046
     10 C           5.7938   43.5494    7.5401 C.ar    1  UNL1        0.0551
     11 C           5.7417   42.8175    8.6899 C.ar    1  UNL1        0.0193
     12 C           7.0586   43.1808    6.9077 C.2     1  UNL1        0.2528
     13 O           7.5251   43.6678    5.8444 O.2     1  UNL1       -0.2696
     14 N           3.8881   42.1642   11.8611 N.am    1  UNL1       -0.2778
     15 C           2.4699   42.0809   11.6842 C.2     1  UNL1        0.2869
     16 O           1.9823   41.6977   10.5864 O.2     1  UNL1       -0.2664
     17 H           4.2247   42.2485   12.7825 H       1  UNL1        0.1553
     18 N           0.4773   42.0977   14.6264 N.ar    1  UNL1       -0.0812
     19 C           1.5830   42.3964   12.8076 C.ar    1  UNL1        0.2298
     20 C           0.9470   43.6062   13.0242 C.ar    1  UNL1        0.0629
     21 C           0.2592   43.3531   14.1960 C.ar    1  UNL1        0.1012
     22 C          -0.6124   44.3274   14.9033 C.3     1  UNL1        0.0557
     23 O           1.2800   41.5517   13.7644 O.2     1  UNL1       -0.3490
     24 C           9.1363   41.8304    7.6475 C.3     1  UNL1        0.0985
     25 C           9.3584   40.7431    6.6067 C.3     1  UNL1        0.0219
     26 C           8.3399   39.6317    6.7701 C.3     1  UNL1        0.0018
     27 C           9.0260   38.3937    7.3063 C.3     1  UNL1        0.0001
@<TRIPOS>BOND
     1     1     2    1
     2    14    15   am
     3    18    23   ar
     4    24     1    1
     5    24    25    1
     6    25    26    1
     7    26    27    1
     8     3     4   ar
     9     5     6   ar
    10     5    14    1
    11     7     8   ar
    12     9    10   ar
    13    10    12    1
    14    11     2   ar
    15    11     6   ar
    16    12     1   am
    17    15    19    1
    18    19    23   ar
    19    20    21   ar
    20    22    21    1
    21     2     3   ar
    22     4     5   ar
    23     6     7   ar
    24     8     9   ar
    25    10    11   ar
    26    12    13    2
    27    15    16    2
    28    19    20   ar
    29    21    18   ar
    30    14    17    1
@<TRIPOS>MOLECULE
MolPort-005-291-984 12422538 CSSS03437107179 MCULE-1450102348 PubChem-16880185 ZINC000012422538
 27 30 0 0 0
SMALL
GASTEIGER

@<TRIPOS>ATOM
      1 N           7.5976   40.7567   12.5132 N.am    1  UNL1       -0.2552
      2 C           8.4937   41.2140   11.4961 C.ar    1  UNL1        0.0543
      3 C           8.2750   41.3563   10.1259 C.ar    1  UNL1        0.0162
      4 C           9.3262   41.8906    9.3457 C.ar    1  UNL1        0.0160
      5 C          10.5643   42.2716    9.9271 C.ar    1  UNL1        0.0507
      6 C          10.7311   42.1535   11.3309 C.ar    1  UNL1        0.0148
      7 C          11.8435   42.5962   12.0755 C.ar    1  UNL1        0.0013
      8 C          11.8503   42.4662   13.4886 C.ar    1  UNL1        0.0002
      9 C          10.7458   41.9093   14.1748 C.ar    1  UNL1        0.0046
     10 C           9.6640   41.4810   13.4066 C.ar    1  UNL1        0.0551
     11 C           9.6790   41.6083   12.0486 C.ar    1  UNL1        0.0193
     12 C           8.3409   40.9498   13.7274 C.2     1  UNL1        0.2528
     13 O           7.8901   40.7315   14.8826 O.2     1  UNL1       -0.2696
     14 N          11.5732   42.8308    9.0760 N.am    1  UNL1       -0.2778
     15 C          11.5672   42.7858    7.6451 C.2     1  UNL1        0.2869
     16 O          10.5169   42.4805    7.0179 O.2     1  UNL1       -0.2664
     17 H          12.3322   43.2825    9.5109 H       1  UNL1        0.1553
     18 N          14.1579   44.3748    5.8037 N.ar    1  UNL1       -0.0812
     19 C          12.7805   43.1477    6.9067 C.ar    1  UNL1        0.2298
     20 C          13.8469   42.3079    6.6371 C.ar    1  UNL1        0.0629
     21 C          14.6902   43.1466    5.9332 C.ar    1  UNL1        0.1012
     22 C          16.0160   42.7605    5.3831 C.3     1  UNL1        0.0557
     23 O          13.0068   44.3376    6.4030 O.2     1  UNL1       -0.3490
     24 C           6.1550   40.5858   12.3944 C.3     1  UNL1        0.0985
     25 C           5.6769   40.9785   11.0044 C.3     1  UNL1        0.0219
     26 C           4.1864   40.7372   10.8646 C.3     1  UNL1        0.0018
     27 C           3.7255   39.7868   11.9486 C.3     1  UNL1        0.0001
@<TRIPOS>BOND
     1     1     2    1
     2    14    15   am
     3    18    23   ar
     4    24     1    1
     5    24    25    1
     6    25    26    1
     7    26    27    1
     8     3     4   ar
     9     5     6   ar
    10     5    14    1
    11     7     8   ar
    12     9    10   ar
    13    10    12    1
    14    11     2   ar
    15    11     6   ar
    16    12     1   am
    17    15    19    1
    18    19    23   ar
    19    20    21   ar
    20    22    21    1
    21     2     3   ar
    22     4     5   ar
    23     6     7   ar
    24     8     9   ar
    25    10    11   ar
    26    12    13    2
    27    15    16    2
    28    19    20   ar
    29    21    18   ar
    30    14    17    1
@<TRIPOS>MOLECULE
MolPort-005-291-984 12422538 CSSS03437107179 MCULE-1450102348 PubChem-16880185 ZINC000012422538
 27 30 0 0 0
SMALL
GASTEIGER

@<TRIPOS>ATOM
      1 N          14.7527   41.1478    8.6532 N.am    1  UNL1       -0.2552
      2 C          13.3985   40.9105    9.0488 C.ar    1  UNL1        0.0543
      3 C          12.9036   40.4420   10.2659 C.ar    1  UNL1        0.0162
      4 C          11.5002   40.3523   10.4126 C.ar    1  UNL1        0.0160
      5 C          10.6176   40.7236    9.3643 C.ar    1  UNL1        0.0507
      6 C          11.1590   41.2383    8.1582 C.ar    1  UNL1        0.0148
      7 C          10.4243   41.7616    7.0745 C.ar    1  UNL1        0.0013
      8 C          11.1023   42.2997    5.9500 C.ar    1  UNL1        0.0002
      9 C          12.5155   42.3360    5.8993 C.ar    1  UNL1        0.0046
     10 C          13.2094   41.8087    6.9877 C.ar    1  UNL1        0.0551
     11 C          12.5397   41.2898    8.0567 C.ar    1  UNL1        0.0193
     12 C          14.6233   41.7390    7.3502 C.2     1  UNL1        0.2528
     13 O          15.5869   42.1655    6.6611 O.2     1  UNL1       -0.2696
     14 N           9.2061   40.6307    9.5968 N.am    1  UNL1       -0.2778
     15 C           8.3600   41.7140    9.9971 C.2     1  UNL1        0.2869
     16 O           8.7606   42.9063    9.9091 O.2     1  UNL1       -0.2664
     17 H           8.7842   39.7501    9.4711 H       1  UNL1        0.1553
     18 N           5.3985   41.0639   11.8501 N.ar    1  UNL1       -0.0812
     19 C           6.9998   41.4323   10.4646 C.ar    1  UNL1        0.2298
     20 C           5.8860   41.2573    9.6619 C.ar    1  UNL1        0.0629
     21 C           4.8995   41.0263   10.6018 C.ar    1  UNL1        0.1012
     22 C           3.4686   40.7681   10.2935 C.3     1  UNL1        0.0557
     23 O           6.6671   41.3111   11.7276 O.2     1  UNL1       -0.3490
     24 C          15.9195   41.2100    9.5245 C.3     1  UNL1        0.0985
     25 C          17.1249   41.7581    8.7753 C.3     1  UNL1        0.0219
     26 C          17.3429   43.2204    9.1120 C.3     1  UNL1        0.0018
     27 C          18.0302   43.9081    7.9520 C.3     1  UNL1        0.0001
@<TRIPOS>BOND
     1     1     2    1
     2    14    15   am
     3    18    23   ar
     4    24     1    1
     5    24    25    1
     6    25    26    1
     7    26    27    1
     8     3     4   ar
     9     5     6   ar
    10     5    14    1
    11     7     8   ar
    12     9    10   ar
    13    10    12    1
    14    11     2   ar
    15    11     6   ar
    16    12     1   am
    17    15    19    1
    18    19    23   ar
    19    20    21   ar
    20    22    21    1
    21     2     3   ar
    22     4     5   ar
    23     6     7   ar
    24     8     9   ar
    25    10    11   ar
    26    12    13    2
    27    15    16    2
    28    19    20   ar
    29    21    18   ar
    30    14    17    1
@<TRIPOS>MOLECULE
MolPort-005-291-984 12422538 CSSS03437107179 MCULE-1450102348 PubChem-16880185 ZINC000012422538
 27 30 0 0 0
SMALL
GASTEIGER

@<TRIPOS>ATOM
      1 N           9.2362   41.2545   13.8947 N.am    1  UNL1       -0.2552
      2 C           8.6857   41.3130   12.5756 C.ar    1  UNL1        0.0543
      3 C           7.3878   41.6292   12.1740 C.ar    1  UNL1        0.0162
      4 C           7.1218   41.6688   10.7859 C.ar    1  UNL1        0.0160
      5 C           8.1332   41.3979    9.8269 C.ar    1  UNL1        0.0507
      6 C           9.4512   41.1249   10.2746 C.ar    1  UNL1        0.0148
      7 C          10.5879   40.9558    9.4576 C.ar    1  UNL1        0.0013
      8 C          11.8617   40.7453   10.0467 C.ar    1  UNL1        0.0002
      9 C          12.0192   40.7162   11.4521 C.ar    1  UNL1        0.0046
     10 C          10.8737   40.8856   12.2288 C.ar    1  UNL1        0.0551
     11 C           9.6569   41.0800   11.6439 C.ar    1  UNL1        0.0193
     12 C          10.6321   41.0038   13.6652 C.2     1  UNL1        0.2528
     13 O          11.5046   40.9428   14.5709 O.2     1  UNL1       -0.2696
     14 N           7.7944   41.4837    8.4366 N.am    1  UNL1       -0.2778
     15 C           7.6359   42.6991    7.6967 C.2     1  UNL1        0.2869
     16 O           8.0560   43.7926    8.1629 O.2     1  UNL1       -0.2664
     17 H           7.6597   40.6380    7.9510 H       1  UNL1        0.1553
     18 N           6.1585   41.8151    4.5882 N.ar    1  UNL1       -0.0812
     19 C           7.0250   42.6586    6.3650 C.ar    1  UNL1        0.2298
     20 C           6.7316   43.7552    5.5735 C.ar    1  UNL1        0.0629
     21 C           6.1826   43.1533    4.4570 C.ar    1  UNL1        0.1012
     22 C           5.6791   43.8733    3.2581 C.3     1  UNL1        0.0557
     23 O           6.6741   41.5540    5.7507 O.2     1  UNL1       -0.3490
     24 C           8.6354   41.7755   15.1162 C.3     1  UNL1        0.0985
     25 C           8.3611   40.6523   16.1051 C.3     1  UNL1        0.0219
     26 C           7.0178   40.8514   16.7799 C.3     1  UNL1        0.0018
     27 C           7.0664   42.0934   17.6435 C.3     1  UNL1        0.0001
@<TRIPOS>BOND
     1     1     2    1
     2    14    15   am
     3    18    23   ar
     4    24     1    1
     5    24    25    1
     6    25    26    1
     7    26    27    1
     8     3     4   ar
     9     5     6   ar
    10     5    14    1
    11     7     8   ar
    12     9    10   ar
    13    10    12    1
    14    11     2   ar
    15    11     6   ar
    16    12     1   am
    17    15    19    1
    18    19    23   ar
    19    20    21   ar
    20    22    21    1
    21     2     3   ar
    22     4     5   ar
    23     6     7   ar
    24     8     9   ar
    25    10    11   ar
    26    12    13    2
    27    15    16    2
    28    19    20   ar
    29    21    18   ar
    30    14    17    1
@<TRIPOS>MOLECULE
MolPort-005-291-984 12422538 CSSS03437107179 MCULE-1450102348 PubChem-16880185 ZINC000012422538
 27 30 0 0 0
SMALL
GASTEIGER

@<TRIPOS>ATOM
      1 N          12.1070   40.1149    8.5542 N.am    1  UNL1       -0.2552
      2 C          11.0044   40.9497    8.1883 C.ar    1  UNL1        0.0543
      3 C          10.2399   40.9411    7.0215 C.ar    1  UNL1        0.0162
      4 C           9.1583   41.8479    6.9393 C.ar    1  UNL1        0.0160
      5 C           8.8529   42.7396    8.0012 C.ar    1  UNL1        0.0507
      6 C           9.6263   42.6859    9.1892 C.ar    1  UNL1        0.0148
      7 C           9.3816   43.4114   10.3733 C.ar    1  UNL1        0.0013
      8 C          10.2063   43.2139   11.5111 C.ar    1  UNL1        0.0002
      9 C          11.2714   42.2833   11.4869 C.ar    1  UNL1        0.0046
     10 C          11.4850   41.5848   10.2993 C.ar    1  UNL1        0.0551
     11 C          10.6855   41.7934    9.2140 C.ar    1  UNL1        0.0193
     12 C          12.3932   40.5096    9.9056 C.2     1  UNL1        0.2528
     13 O          13.2652   39.9712   10.6370 O.2     1  UNL1       -0.2696
     14 N           7.7242   43.6113    7.8557 N.am    1  UNL1       -0.2778
     15 C           6.4308   43.3936    8.4296 C.2     1  UNL1        0.2869
     16 O           6.2704   42.5391    9.3428 O.2     1  UNL1       -0.2664
     17 H           7.8486   44.4261    7.3173 H       1  UNL1        0.1553
     18 N           4.2482   45.8056    6.9994 N.ar    1  UNL1       -0.0812
     19 C           5.2972   44.2087    7.9839 C.ar    1  UNL1        0.2298
     20 C           3.9643   43.9696    8.2689 C.ar    1  UNL1        0.0629
     21 C           3.3474   45.0193    7.6150 C.ar    1  UNL1        0.1012
     22 C           1.8817   45.2645    7.5844 C.3     1  UNL1        0.0557
     23 O           5.4124   45.2857    7.2438 O.2     1  UNL1       -0.3490
     24 C          12.5201   38.8778    7.9035 C.3     1  UNL1        0.0985
     25 C          12.5491   37.7273    8.8988 C.3     1  UNL1        0.0219
     26 C          11.4618   37.8965    9.9420 C.3     1  UNL1        0.0018
     27 C          10.5455   36.6921    9.9155 C.3     1  UNL1        0.0001
@<TRIPOS>BOND
     1     1     2    1
     2    14    15   am
     3    18    23   ar
     4    24     1    1
     5    24    25    1
     6    25    26    1
     7    26    27    1
     8     3     4   ar
     9     5     6   ar
    10     5    14    1
    11     7     8   ar
    12     9    10   ar
    13    10    12    1
    14    11     2   ar
    15    11     6   ar
    16    12     1   am
    17    15    19    1
    18    19    23   ar
    19    20    21   ar
    20    22    21    1
    21     2     3   ar
    22     4     5   ar
    23     6     7   ar
    24     8     9   ar
    25    10    11   ar
    26    12    13    2
    27    15    16    2
    28    19    20   ar
    29    21    18   ar
    30    14    17    1
