@<TRIPOS>MOLECULE
MolPort-007-711-013 ChemDiv-D485-0047 MCULE-7198466673 PubChem-46269987
 33 37 0 0 0
SMALL
GASTEIGER

@<TRIPOS>ATOM
      1 C          12.5338   41.6726    7.0355 C.ar    1  UNL1        0.1548
      2 C          13.8098   41.4743    7.5418 C.ar    1  UNL1        0.0860
      3 C          14.5614   42.5322    7.0709 C.ar    1  UNL1        0.0507
      4 C          15.8818   42.9193    7.2933 C.ar    1  UNL1        0.0044
      5 C          16.3308   44.0957    6.6673 C.ar    1  UNL1        0.0002
      6 C          15.4597   44.8545    5.8560 C.ar    1  UNL1        0.0031
      7 C          14.1254   44.4523    5.6671 C.ar    1  UNL1        0.0375
      8 C          13.7075   43.2839    6.2995 C.ar    1  UNL1        0.1462
      9 O          12.5043   42.7591    6.2844 O.2     1  UNL1       -0.4548
     10 C          15.4233   40.3647    9.1777 C.2     1  UNL1        0.2843
     11 O          16.4137   41.0610    8.8285 O.2     1  UNL1       -0.2665
     12 N          14.1864   40.4424    8.4625 N.am    1  UNL1       -0.2756
     13 H          13.5345   39.7211    8.6170 H       1  UNL1        0.1553
     14 C          15.5510   39.4206   10.2921 C.ar    1  UNL1        0.1988
     15 C          16.6854   38.7045   10.6115 C.ar    1  UNL1        0.0455
     16 C          16.3315   37.9594   11.7227 C.ar    1  UNL1        0.0440
     17 C          15.0120   38.2704   12.0041 C.ar    1  UNL1        0.1798
     18 O          14.5823   39.1458   11.1278 O.2     1  UNL1       -0.4458
     19 C          11.3454   40.7903    7.3025 C.3     1  UNL1        0.1426
     20 C           9.9852   42.1608    8.9865 C.ar    1  UNL1        0.1364
     21 C          10.1599   41.6433    7.6841 C.ar    1  UNL1        0.0335
     22 C           9.1933   41.8947    6.7034 C.ar    1  UNL1        0.0005
     23 C           8.0640   42.6603    7.0000 C.ar    1  UNL1       -0.0001
     24 C           7.8899   43.1783    8.2840 C.ar    1  UNL1        0.0031
     25 C           8.8443   42.9297    9.2723 C.ar    1  UNL1        0.0366
     26 C          10.7533   40.9522   11.0084 C.3     1  UNL1        0.2525
     27 O          10.9449   41.9067    9.9735 O.3     1  UNL1       -0.4717
     28 C           9.7770   39.2086    6.4153 C.3     1  UNL1        0.1052
     29 C           9.3278   38.4195    5.1737 C.3     1  UNL1        0.1595
     30 C          10.4208   39.8241    3.7774 C.3     1  UNL1        0.1595
     31 C          10.9227   40.6883    4.9465 C.3     1  UNL1        0.1052
     32 O          10.3021   38.4736    4.1585 O.3     1  UNL1       -0.3508
     33 N          11.0588   39.8884    6.1733 N.3     1  UNL1       -0.2598
@<TRIPOS>BOND
     1    26    27    1
     2    20    27    1
     3    21    22   ar
     4    23    24   ar
     5    25    20   ar
     6    19    21    1
     7    19    33    1
     8    19     1    1
     9    28    33    1
    10    28    29    1
    11    29    32    1
    12    30    32    1
    13    30    31    1
    14    31    33    1
    15     1     9   ar
    16     2    12    1
    17     2     3   ar
    18    10    14    1
    19    14    18   ar
    20    15    16   ar
    21    17    18   ar
    22     4     5   ar
    23     6     7   ar
    24     8     9   ar
    25     8     3   ar
    26    12    10   am
    27    20    21   ar
    28    22    23   ar
    29    24    25   ar
    30     1     2   ar
    31    10    11    2
    32    14    15   ar
    33    16    17   ar
    34     3     4   ar
    35     5     6   ar
    36     7     8   ar
    37    12    13    1
@<TRIPOS>MOLECULE
MolPort-007-711-013 ChemDiv-D485-0047 MCULE-7198466673 PubChem-46269987
 33 37 0 0 0
SMALL
GASTEIGER

@<TRIPOS>ATOM
      1 C          12.3834   41.9334    7.1360 C.ar    1  UNL1        0.1548
      2 C          13.6530   41.5716    7.5614 C.ar    1  UNL1        0.0860
      3 C          14.5064   42.5066    7.0104 C.ar    1  UNL1        0.0507
      4 C          15.8795   42.7127    7.1325 C.ar    1  UNL1        0.0044
      5 C          16.4389   43.8036    6.4438 C.ar    1  UNL1        0.0002
      6 C          15.6241   44.6588    5.6708 C.ar    1  UNL1        0.0031
      7 C          14.2376   44.4402    5.5835 C.ar    1  UNL1        0.0375
      8 C          13.7104   43.3531    6.2763 C.ar    1  UNL1        0.1462
      9 O          12.4490   42.9986    6.3571 O.2     1  UNL1       -0.4548
     10 C          15.1628   40.3671    9.2289 C.2     1  UNL1        0.2843
     11 O          16.1981   41.0094    8.9079 O.2     1  UNL1       -0.2665
     12 N          13.9499   40.5162    8.4845 N.am    1  UNL1       -0.2756
     13 H          13.2557   39.8311    8.6188 H       1  UNL1        0.1553
     14 C          15.2111   39.4119   10.3402 C.ar    1  UNL1        0.1988
     15 C          14.1673   39.1183   11.1922 C.ar    1  UNL1        0.0455
     16 C          14.6790   38.1744   12.0654 C.ar    1  UNL1        0.0440
     17 C          15.9934   37.9575   11.6882 C.ar    1  UNL1        0.1798
     18 O          16.2727   38.7147   10.6549 O.2     1  UNL1       -0.4458
     19 C          11.1079   41.2284    7.5076 C.3     1  UNL1        0.1426
     20 C           9.0326   42.5955    8.1309 C.ar    1  UNL1        0.1364
     21 C          10.3119   42.0926    8.4552 C.ar    1  UNL1        0.0335
     22 C          10.8939   42.4211    9.6851 C.ar    1  UNL1        0.0005
     23 C          10.2162   43.2331   10.5965 C.ar    1  UNL1       -0.0001
     24 C           8.9497   43.7278   10.2827 C.ar    1  UNL1        0.0031
     25 C           8.3610   43.4118    9.0567 C.ar    1  UNL1        0.0366
     26 C           7.2659   42.9022    6.4211 C.3     1  UNL1        0.2525
     27 O           8.4485   42.2764    6.8994 O.3     1  UNL1       -0.4717
     28 C          11.2472   40.6794    5.1778 C.3     1  UNL1        0.1052
     29 C          10.5285   40.0506    3.9720 C.3     1  UNL1        0.1595
     30 C           9.0791   38.9374    5.3053 C.3     1  UNL1        0.1595
     31 C           9.7260   39.5052    6.5800 C.3     1  UNL1        0.1052
     32 O           9.1600   39.8570    4.2418 O.3     1  UNL1       -0.3508
     33 N          10.3341   40.8194    6.3224 N.3     1  UNL1       -0.2598
@<TRIPOS>BOND
     1    26    27    1
     2    20    27    1
     3    21    22   ar
     4    23    24   ar
     5    25    20   ar
     6    19    21    1
     7    19    33    1
     8    19     1    1
     9    28    33    1
    10    28    29    1
    11    29    32    1
    12    30    32    1
    13    30    31    1
    14    31    33    1
    15     1     9   ar
    16     2    12    1
    17     2     3   ar
    18    10    14    1
    19    14    18   ar
    20    15    16   ar
    21    17    18   ar
    22     4     5   ar
    23     6     7   ar
    24     8     9   ar
    25     8     3   ar
    26    12    10   am
    27    20    21   ar
    28    22    23   ar
    29    24    25   ar
    30     1     2   ar
    31    10    11    2
    32    14    15   ar
    33    16    17   ar
    34     3     4   ar
    35     5     6   ar
    36     7     8   ar
    37    12    13    1
@<TRIPOS>MOLECULE
MolPort-007-711-013 ChemDiv-D485-0047 MCULE-7198466673 PubChem-46269987
 33 37 0 0 0
SMALL
GASTEIGER

@<TRIPOS>ATOM
      1 C          10.5829   40.4298    8.1342 C.ar    1  UNL1        0.1548
      2 C          11.5518   40.3829    7.1429 C.ar    1  UNL1        0.0860
      3 C          10.8968   39.9492    6.0077 C.ar    1  UNL1        0.0507
      4 C          11.3161   39.7736    4.6901 C.ar    1  UNL1        0.0044
      5 C          10.3614   39.3370    3.7547 C.ar    1  UNL1        0.0002
      6 C           9.0262   39.1017    4.1480 C.ar    1  UNL1        0.0031
      7 C           8.6255   39.3087    5.4801 C.ar    1  UNL1        0.0375
      8 C           9.5915   39.7420    6.3851 C.ar    1  UNL1        0.1462
      9 O           9.4190   40.0290    7.6544 O.2     1  UNL1       -0.4548
     10 C          13.4376   42.0715    6.8210 C.2     1  UNL1        0.2843
     11 O          12.8068   42.7660    5.9800 O.2     1  UNL1       -0.2665
     12 N          12.9074   40.8263    7.2855 N.am    1  UNL1       -0.2756
     13 H          13.5307   40.2184    7.7451 H       1  UNL1        0.1553
     14 C          14.7560   42.5104    7.2889 C.ar    1  UNL1        0.1988
     15 C          15.6058   41.7811    8.0935 C.ar    1  UNL1        0.0455
     16 C          16.7132   42.5932    8.2651 C.ar    1  UNL1        0.0440
     17 C          16.4647   43.7566    7.5568 C.ar    1  UNL1        0.1798
     18 O          15.2865   43.6682    6.9884 O.2     1  UNL1       -0.4458
     19 C          10.8098   40.8783    9.5517 C.3     1  UNL1        0.1426
     20 C           9.3222   41.3071   11.5932 C.ar    1  UNL1        0.1364
     21 C           9.4846   41.2104   10.1936 C.ar    1  UNL1        0.0335
     22 C           8.3804   41.3967    9.3537 C.ar    1  UNL1        0.0005
     23 C           7.1234   41.6866    9.8880 C.ar    1  UNL1       -0.0001
     24 C           6.9594   41.7885   11.2700 C.ar    1  UNL1        0.0031
     25 C           8.0521   41.5993   12.1183 C.ar    1  UNL1        0.0366
     26 C          10.3242   41.1698   13.8551 C.3     1  UNL1        0.2525
     27 O          10.4213   41.1147   12.4386 O.3     1  UNL1       -0.4717
     28 C          11.5180   38.5900    9.6549 C.3     1  UNL1        0.1052
     29 C          12.4840   37.5834   10.3028 C.3     1  UNL1        0.1595
     30 C          13.8886   39.2269   10.9688 C.3     1  UNL1        0.1595
     31 C          12.9976   40.3178   10.3512 C.3     1  UNL1        0.1052
     32 O          13.1179   38.1420   11.4293 O.3     1  UNL1       -0.3508
     33 N          11.5885   39.8967   10.3266 N.3     1  UNL1       -0.2598
@<TRIPOS>BOND
     1    26    27    1
     2    20    27    1
     3    21    22   ar
     4    23    24   ar
     5    25    20   ar
     6    19    21    1
     7    19    33    1
     8    19     1    1
     9    28    33    1
    10    28    29    1
    11    29    32    1
    12    30    32    1
    13    30    31    1
    14    31    33    1
    15     1     9   ar
    16     2    12    1
    17     2     3   ar
    18    10    14    1
    19    14    18   ar
    20    15    16   ar
    21    17    18   ar
    22     4     5   ar
    23     6     7   ar
    24     8     9   ar
    25     8     3   ar
    26    12    10   am
    27    20    21   ar
    28    22    23   ar
    29    24    25   ar
    30     1     2   ar
    31    10    11    2
    32    14    15   ar
    33    16    17   ar
    34     3     4   ar
    35     5     6   ar
    36     7     8   ar
    37    12    13    1
@<TRIPOS>MOLECULE
MolPort-007-711-013 ChemDiv-D485-0047 MCULE-7198466673 PubChem-46269987
 33 37 0 0 0
SMALL
GASTEIGER

@<TRIPOS>ATOM
      1 C          12.6111   41.5563    7.1427 C.ar    1  UNL1        0.1548
      2 C          13.9172   41.3817    7.5757 C.ar    1  UNL1        0.0860
      3 C          14.6189   42.4595    7.0739 C.ar    1  UNL1        0.0507
      4 C          15.9410   42.8733    7.2265 C.ar    1  UNL1        0.0044
      5 C          16.3294   44.0643    6.5877 C.ar    1  UNL1        0.0002
      6 C          15.3987   44.8107    5.8331 C.ar    1  UNL1        0.0031
      7 C          14.0648   44.3812    5.7146 C.ar    1  UNL1        0.0375
      8 C          13.7076   43.1987    6.3581 C.ar    1  UNL1        0.1462
      9 O          12.5169   42.6481    6.4047 O.2     1  UNL1       -0.4548
     10 C          15.5811   40.3632    9.2204 C.2     1  UNL1        0.2843
     11 O          16.5068   41.1699    8.9380 O.2     1  UNL1       -0.2665
     12 N          14.3663   40.3507    8.4644 N.am    1  UNL1       -0.2756
     13 H          13.7858   39.5617    8.5636 H       1  UNL1        0.1553
     14 C          15.7674   39.3855   10.2971 C.ar    1  UNL1        0.1988
     15 C          14.8435   39.0826   11.2750 C.ar    1  UNL1        0.0455
     16 C          15.4575   38.1175   12.0541 C.ar    1  UNL1        0.0440
     17 C          16.7077   37.8986   11.5009 C.ar    1  UNL1        0.1798
     18 O          16.8545   38.6743   10.4542 O.2     1  UNL1       -0.4458
     19 C          11.4584   40.6462    7.4667 C.3     1  UNL1        0.1426
     20 C          10.9765   40.3002    9.9592 C.ar    1  UNL1        0.1364
     21 C          10.8400   41.0636    8.7789 C.ar    1  UNL1        0.0335
     22 C          10.0816   42.2399    8.7987 C.ar    1  UNL1        0.0005
     23 C           9.4678   42.6687    9.9772 C.ar    1  UNL1       -0.0001
     24 C           9.6044   41.9205   11.1471 C.ar    1  UNL1        0.0031
     25 C          10.3538   40.7424   11.1386 C.ar    1  UNL1        0.0366
     26 C          11.1538   37.8427    9.6978 C.3     1  UNL1        0.2525
     27 O          11.7277   39.1190    9.9438 O.3     1  UNL1       -0.4717
     28 C          11.1510   40.1062    5.1510 C.3     1  UNL1        0.1052
     29 C          10.1332   39.8168    4.0347 C.3     1  UNL1        0.1595
     30 C           8.4996   39.3441    5.5265 C.3     1  UNL1        0.1595
     31 C           9.4345   39.6045    6.7197 C.3     1  UNL1        0.1052
     32 O           8.8293   40.1687    4.4336 O.3     1  UNL1       -0.3508
     33 N          10.4774   40.5807    6.3695 N.3     1  UNL1       -0.2598
@<TRIPOS>BOND
     1    26    27    1
     2    20    27    1
     3    21    22   ar
     4    23    24   ar
     5    25    20   ar
     6    19    21    1
     7    19    33    1
     8    19     1    1
     9    28    33    1
    10    28    29    1
    11    29    32    1
    12    30    32    1
    13    30    31    1
    14    31    33    1
    15     1     9   ar
    16     2    12    1
    17     2     3   ar
    18    10    14    1
    19    14    18   ar
    20    15    16   ar
    21    17    18   ar
    22     4     5   ar
    23     6     7   ar
    24     8     9   ar
    25     8     3   ar
    26    12    10   am
    27    20    21   ar
    28    22    23   ar
    29    24    25   ar
    30     1     2   ar
    31    10    11    2
    32    14    15   ar
    33    16    17   ar
    34     3     4   ar
    35     5     6   ar
    36     7     8   ar
    37    12    13    1
@<TRIPOS>MOLECULE
MolPort-007-711-013 ChemDiv-D485-0047 MCULE-7198466673 PubChem-46269987
 33 37 0 0 0
SMALL
GASTEIGER

@<TRIPOS>ATOM
      1 C          11.0281   40.4554    8.3163 C.ar    1  UNL1        0.1548
      2 C          11.5183   40.9962    7.1369 C.ar    1  UNL1        0.0860
      3 C          10.9047   40.2874    6.1236 C.ar    1  UNL1        0.0507
      4 C          10.9376   40.4128    4.7358 C.ar    1  UNL1        0.0044
      5 C          10.1500   39.5247    3.9820 C.ar    1  UNL1        0.0002
      6 C           9.3493   38.5544    4.6225 C.ar    1  UNL1        0.0031
      7 C           9.3181   38.4651    6.0256 C.ar    1  UNL1        0.0375
      8 C          10.1072   39.3576    6.7471 C.ar    1  UNL1        0.1462
      9 O          10.1925   39.4666    8.0525 O.2     1  UNL1       -0.4548
     10 C          13.8104   42.1170    7.0976 C.2     1  UNL1        0.2843
     11 O          14.4236   41.1048    7.5300 O.2     1  UNL1       -0.2665
     12 N          12.3807   42.1372    7.0423 N.am    1  UNL1       -0.2756
     13 H          11.9499   43.0152    6.9289 H       1  UNL1        0.1553
     14 C          14.5618   43.3113    6.6995 C.ar    1  UNL1        0.1988
     15 C          15.8943   43.5469    6.9655 C.ar    1  UNL1        0.0455
     16 C          16.1537   44.7837    6.4013 C.ar    1  UNL1        0.0440
     17 C          14.9678   45.2160    5.8323 C.ar    1  UNL1        0.1798
     18 O          14.0419   44.3093    6.0317 O.2     1  UNL1       -0.4458
     19 C          11.3822   40.9236    9.7010 C.3     1  UNL1        0.1426
     20 C           9.1425   42.1581    9.8558 C.ar    1  UNL1        0.1364
     21 C          10.1253   41.3250   10.4342 C.ar    1  UNL1        0.0335
     22 C           9.9606   40.8678   11.7468 C.ar    1  UNL1        0.0005
     23 C           8.8288   41.2208   12.4844 C.ar    1  UNL1       -0.0001
     24 C           7.8524   42.0393   11.9151 C.ar    1  UNL1        0.0031
     25 C           8.0082   42.5062   10.6085 C.ar    1  UNL1        0.0366
     26 C           8.2325   42.7082    7.6179 C.3     1  UNL1        0.2525
     27 O           9.3052   42.6244    8.5459 O.3     1  UNL1       -0.4717
     28 C          12.0183   38.6137    9.7934 C.3     1  UNL1        0.1052
     29 C          12.9914   37.5833   10.3911 C.3     1  UNL1        0.1595
     30 C          14.4925   39.1861   10.9345 C.3     1  UNL1        0.1595
     31 C          13.5989   40.2986   10.3606 C.3     1  UNL1        0.1052
     32 O          13.7186   38.1351   11.4633 O.3     1  UNL1       -0.3508
     33 N          12.1781   39.9264   10.4376 N.3     1  UNL1       -0.2598
@<TRIPOS>BOND
     1    26    27    1
     2    20    27    1
     3    21    22   ar
     4    23    24   ar
     5    25    20   ar
     6    19    21    1
     7    19    33    1
     8    19     1    1
     9    28    33    1
    10    28    29    1
    11    29    32    1
    12    30    32    1
    13    30    31    1
    14    31    33    1
    15     1     9   ar
    16     2    12    1
    17     2     3   ar
    18    10    14    1
    19    14    18   ar
    20    15    16   ar
    21    17    18   ar
    22     4     5   ar
    23     6     7   ar
    24     8     9   ar
    25     8     3   ar
    26    12    10   am
    27    20    21   ar
    28    22    23   ar
    29    24    25   ar
    30     1     2   ar
    31    10    11    2
    32    14    15   ar
    33    16    17   ar
    34     3     4   ar
    35     5     6   ar
    36     7     8   ar
    37    12    13    1
@<TRIPOS>MOLECULE
MolPort-007-711-013 ChemDiv-D485-0047 MCULE-7198466673 PubChem-46269987
 33 37 0 0 0
SMALL
GASTEIGER

@<TRIPOS>ATOM
      1 C          10.8347   40.2470    8.3691 C.ar    1  UNL1        0.1548
      2 C           9.5111   40.2046    7.9567 C.ar    1  UNL1        0.0860
      3 C           9.5528   39.8658    6.6190 C.ar    1  UNL1        0.0507
      4 C           8.5524   39.6045    5.6843 C.ar    1  UNL1        0.0044
      5 C           8.9519   39.2485    4.3839 C.ar    1  UNL1        0.0002
      6 C          10.3212   39.1503    4.0551 C.ar    1  UNL1        0.0031
      7 C          11.3095   39.3977    5.0246 C.ar    1  UNL1        0.0375
      8 C          10.8855   39.7475    6.3043 C.ar    1  UNL1        0.1462
      9 O          11.6378   39.9802    7.3546 O.2     1  UNL1       -0.4548
     10 C           7.3341   41.3354    8.6588 C.2     1  UNL1        0.2843
     11 O           7.4975   42.3377    7.9130 O.2     1  UNL1       -0.2665
     12 N           8.3703   40.3602    8.8103 N.am    1  UNL1       -0.2756
     13 H           8.2924   39.7394    9.5704 H       1  UNL1        0.1553
     14 C           6.0936   41.1911    9.4269 C.ar    1  UNL1        0.1988
     15 C           4.8270   41.0812    8.8928 C.ar    1  UNL1        0.0455
     16 C           3.9902   40.9665    9.9891 C.ar    1  UNL1        0.0440
     17 C           4.7994   41.0138   11.1116 C.ar    1  UNL1        0.1798
     18 O           6.0477   41.1484   10.7339 O.2     1  UNL1       -0.4458
     19 C          11.3007   40.5442    9.7678 C.3     1  UNL1        0.1426
     20 C          13.7526   40.8253    9.0796 C.ar    1  UNL1        0.1364
     21 C          12.7692   40.2168    9.8902 C.ar    1  UNL1        0.0335
     22 C          13.1467   39.2489   10.8282 C.ar    1  UNL1        0.0005
     23 C          14.4874   38.8880   10.9752 C.ar    1  UNL1       -0.0001
     24 C          15.4632   39.4906   10.1802 C.ar    1  UNL1        0.0031
     25 C          15.0984   40.4534    9.2371 C.ar    1  UNL1        0.0366
     26 C          14.2796   42.3043    7.1629 C.3     1  UNL1        0.2525
     27 O          13.3803   41.7888    8.1346 O.3     1  UNL1       -0.4717
     28 C          10.6596   42.7158    8.9793 C.3     1  UNL1        0.1052
     29 C          10.1210   44.1037    9.3660 C.3     1  UNL1        0.1595
     30 C           9.3120   43.3378   11.3349 C.3     1  UNL1        0.1595
     31 C           9.8047   41.9094   11.0476 C.3     1  UNL1        0.1052
     32 O          10.1692   44.2959   10.7602 O.3     1  UNL1       -0.3508
     33 N          10.9887   41.9253   10.1752 N.3     1  UNL1       -0.2598
@<TRIPOS>BOND
     1    26    27    1
     2    20    27    1
     3    21    22   ar
     4    23    24   ar
     5    25    20   ar
     6    19    21    1
     7    19    33    1
     8    19     1    1
     9    28    33    1
    10    28    29    1
    11    29    32    1
    12    30    32    1
    13    30    31    1
    14    31    33    1
    15     1     9   ar
    16     2    12    1
    17     2     3   ar
    18    10    14    1
    19    14    18   ar
    20    15    16   ar
    21    17    18   ar
    22     4     5   ar
    23     6     7   ar
    24     8     9   ar
    25     8     3   ar
    26    12    10   am
    27    20    21   ar
    28    22    23   ar
    29    24    25   ar
    30     1     2   ar
    31    10    11    2
    32    14    15   ar
    33    16    17   ar
    34     3     4   ar
    35     5     6   ar
    36     7     8   ar
    37    12    13    1
@<TRIPOS>MOLECULE
MolPort-007-711-013 ChemDiv-D485-0047 MCULE-7198466673 PubChem-46269987
 33 37 0 0 0
SMALL
GASTEIGER

@<TRIPOS>ATOM
      1 C          12.8367   42.5600    7.2580 C.ar    1  UNL1        0.1548
      2 C          14.0711   41.9746    7.4973 C.ar    1  UNL1        0.0860
      3 C          14.9990   42.8288    6.9357 C.ar    1  UNL1        0.0507
      4 C          16.3926   42.8192    6.9136 C.ar    1  UNL1        0.0044
      5 C          17.0418   43.8841    6.2641 C.ar    1  UNL1        0.0002
      6 C          16.2955   44.9257    5.6716 C.ar    1  UNL1        0.0031
      7 C          14.8903   44.9213    5.7285 C.ar    1  UNL1        0.0375
      8 C          14.2738   43.8550    6.3786 C.ar    1  UNL1        0.1462
      9 O          12.9876   43.6809    6.5751 O.2     1  UNL1       -0.4548
     10 C          15.3606   40.5933    9.2120 C.2     1  UNL1        0.2843
     11 O          16.3734   41.3427    9.2023 O.2     1  UNL1       -0.2665
     12 N          14.2927   40.7954    8.2813 N.am    1  UNL1       -0.2756
     13 H          13.6514   40.0568    8.1692 H       1  UNL1        0.1553
     14 C          15.2957   39.4652   10.1463 C.ar    1  UNL1        0.1988
     15 C          15.9806   38.2753   10.0167 C.ar    1  UNL1        0.0455
     16 C          15.6081   37.5313   11.1226 C.ar    1  UNL1        0.0440
     17 C          14.7261   38.3142   11.8479 C.ar    1  UNL1        0.1798
     18 O          14.5658   39.4607   11.2323 O.2     1  UNL1       -0.4458
     19 C          11.5117   42.0123    7.7124 C.3     1  UNL1        0.1426
     20 C           9.4641   41.2685    6.3639 C.ar    1  UNL1        0.1364
     21 C          10.8603   41.2617    6.5762 C.ar    1  UNL1        0.0335
     22 C          11.6859   40.5126    5.7299 C.ar    1  UNL1        0.0005
     23 C          11.1414   39.7808    4.6728 C.ar    1  UNL1       -0.0001
     24 C           9.7629   39.7889    4.4559 C.ar    1  UNL1        0.0031
     25 C           8.9284   40.5278    5.2968 C.ar    1  UNL1        0.0366
     26 C           7.6885   41.4081    8.0863 C.3     1  UNL1        0.2525
     27 O           8.6325   42.0100    7.2115 O.3     1  UNL1       -0.4717
     28 C          10.8324   41.8126   10.0031 C.3     1  UNL1        0.1052
     29 C          10.7567   40.8931   11.2338 C.3     1  UNL1        0.1595
     30 C          11.0104   39.0343    9.9696 C.3     1  UNL1        0.1595
     31 C          11.0946   39.8577    8.6732 C.3     1  UNL1        0.1052
     32 O          11.5522   39.7445   11.0584 O.3     1  UNL1       -0.3508
     33 N          11.6367   41.1997    8.9349 N.3     1  UNL1       -0.2598
@<TRIPOS>BOND
     1    26    27    1
     2    20    27    1
     3    21    22   ar
     4    23    24   ar
     5    25    20   ar
     6    19    21    1
     7    19    33    1
     8    19     1    1
     9    28    33    1
    10    28    29    1
    11    29    32    1
    12    30    32    1
    13    30    31    1
    14    31    33    1
    15     1     9   ar
    16     2    12    1
    17     2     3   ar
    18    10    14    1
    19    14    18   ar
    20    15    16   ar
    21    17    18   ar
    22     4     5   ar
    23     6     7   ar
    24     8     9   ar
    25     8     3   ar
    26    12    10   am
    27    20    21   ar
    28    22    23   ar
    29    24    25   ar
    30     1     2   ar
    31    10    11    2
    32    14    15   ar
    33    16    17   ar
    34     3     4   ar
    35     5     6   ar
    36     7     8   ar
    37    12    13    1
@<TRIPOS>MOLECULE
MolPort-007-711-013 ChemDiv-D485-0047 MCULE-7198466673 PubChem-46269987
 33 37 0 0 0
SMALL
GASTEIGER

@<TRIPOS>ATOM
      1 C          10.7838   39.6932    8.3734 C.ar    1  UNL1        0.1548
      2 C          11.6822   39.8762    7.3327 C.ar    1  UNL1        0.0860
      3 C          10.9732   39.5991    6.1810 C.ar    1  UNL1        0.0507
      4 C          11.3080   39.6754    4.8301 C.ar    1  UNL1        0.0044
      5 C          10.3145   39.3426    3.8923 C.ar    1  UNL1        0.0002
      6 C           9.0244   38.9594    4.3184 C.ar    1  UNL1        0.0031
      7 C           8.7075   38.9127    5.6878 C.ar    1  UNL1        0.0375
      8 C           9.7102   39.2481    6.5944 C.ar    1  UNL1        0.1462
      9 O           9.6120   39.3053    7.9022 O.2     1  UNL1       -0.4548
     10 C          13.4989   41.6343    6.9871 C.2     1  UNL1        0.2843
     11 O          12.8405   42.2924    6.1380 O.2     1  UNL1       -0.2665
     12 N          13.0190   40.3750    7.4681 N.am    1  UNL1       -0.2756
     13 H          13.6664   39.7984    7.9347 H       1  UNL1        0.1553
     14 C          14.7990   42.1314    7.4480 C.ar    1  UNL1        0.1988
     15 C          15.2915   43.4027    7.2410 C.ar    1  UNL1        0.0455
     16 C          16.5343   43.4034    7.8497 C.ar    1  UNL1        0.0440
     17 C          16.7142   42.1389    8.3840 C.ar    1  UNL1        0.1798
     18 O          15.6565   41.4094    8.1230 O.2     1  UNL1       -0.4458
     19 C          11.0853   39.9099    9.8309 C.3     1  UNL1        0.1426
     20 C          12.6189   37.9035   10.2633 C.ar    1  UNL1        0.1364
     21 C          12.4246   39.2988   10.1647 C.ar    1  UNL1        0.0335
     22 C          13.4951   40.1663   10.4115 C.ar    1  UNL1        0.0005
     23 C          14.7541   39.6630   10.7445 C.ar    1  UNL1       -0.0001
     24 C          14.9521   38.2848   10.8377 C.ar    1  UNL1        0.0031
     25 C          13.8907   37.4095   10.5993 C.ar    1  UNL1        0.0366
     26 C          11.3889   35.8011   10.7174 C.3     1  UNL1        0.2525
     27 O          11.5503   37.0311   10.0247 O.3     1  UNL1       -0.4717
     28 C          10.6148   42.1204    9.0302 C.3     1  UNL1        0.1052
     29 C          10.3008   43.5755    9.4174 C.3     1  UNL1        0.1595
     30 C           9.6629   42.9750   11.5031 C.3     1  UNL1        0.1595
     31 C           9.9396   41.4884   11.2220 C.3     1  UNL1        0.1052
     32 O          10.5489   43.8011   10.7851 O.3     1  UNL1       -0.3508
     33 N          10.9962   41.3305   10.2110 N.3     1  UNL1       -0.2598
@<TRIPOS>BOND
     1    26    27    1
     2    20    27    1
     3    21    22   ar
     4    23    24   ar
     5    25    20   ar
     6    19    21    1
     7    19    33    1
     8    19     1    1
     9    28    33    1
    10    28    29    1
    11    29    32    1
    12    30    32    1
    13    30    31    1
    14    31    33    1
    15     1     9   ar
    16     2    12    1
    17     2     3   ar
    18    10    14    1
    19    14    18   ar
    20    15    16   ar
    21    17    18   ar
    22     4     5   ar
    23     6     7   ar
    24     8     9   ar
    25     8     3   ar
    26    12    10   am
    27    20    21   ar
    28    22    23   ar
    29    24    25   ar
    30     1     2   ar
    31    10    11    2
    32    14    15   ar
    33    16    17   ar
    34     3     4   ar
    35     5     6   ar
    36     7     8   ar
    37    12    13    1
@<TRIPOS>MOLECULE
MolPort-007-711-013 ChemDiv-D485-0047 MCULE-7198466673 PubChem-46269987
 33 37 0 0 0
SMALL
GASTEIGER

@<TRIPOS>ATOM
      1 C          10.9898   39.9801    8.6222 C.ar    1  UNL1        0.1548
      2 C          12.3223   39.8776    8.9932 C.ar    1  UNL1        0.0860
      3 C          12.4439   38.6395    9.5917 C.ar    1  UNL1        0.0507
      4 C          13.5405   37.9445   10.0986 C.ar    1  UNL1        0.0044
      5 C          13.3127   36.6597   10.6228 C.ar    1  UNL1        0.0002
      6 C          12.0162   36.1013   10.6168 C.ar    1  UNL1        0.0031
      7 C          10.9315   36.8164   10.0782 C.ar    1  UNL1        0.0375
      8 C          11.1860   38.0860    9.5653 C.ar    1  UNL1        0.1462
      9 O          10.3292   38.8960    8.9882 O.2     1  UNL1       -0.4548
     10 C          14.7183   40.7508    9.0804 C.2     1  UNL1        0.2843
     11 O          15.0773   39.9652    9.9977 O.2     1  UNL1       -0.2665
     12 N          13.3464   40.8307    8.6816 N.am    1  UNL1       -0.2756
     13 H          13.0818   41.6118    8.1439 H       1  UNL1        0.1553
     14 C          15.7024   41.6367    8.4508 C.ar    1  UNL1        0.1988
     15 C          17.0096   41.8021    8.8577 C.ar    1  UNL1        0.0455
     16 C          17.5412   42.7232    7.9721 C.ar    1  UNL1        0.0440
     17 C          16.5272   43.0551    7.0898 C.ar    1  UNL1        0.1798
     18 O          15.4460   42.3856    7.4089 O.2     1  UNL1       -0.4458
     19 C          10.3754   41.1475    7.9000 C.3     1  UNL1        0.1426
     20 C           7.8766   40.7041    8.2517 C.ar    1  UNL1        0.1364
     21 C           9.0026   40.7661    7.4015 C.ar    1  UNL1        0.0335
     22 C           8.8675   40.4361    6.0479 C.ar    1  UNL1        0.0005
     23 C           7.6276   40.0561    5.5306 C.ar    1  UNL1       -0.0001
     24 C           6.5111   39.9987    6.3656 C.ar    1  UNL1        0.0031
     25 C           6.6344   40.3200    7.7188 C.ar    1  UNL1        0.0366
     26 C           6.9046   41.4044   10.4205 C.3     1  UNL1        0.2525
     27 O           8.0070   41.0259    9.6078 O.3     1  UNL1       -0.4717
     28 C           9.1300   43.1207    8.4519 C.3     1  UNL1        0.1052
     29 C           8.9657   44.2888    9.4390 C.3     1  UNL1        0.1595
     30 C          10.1321   43.2080   11.0480 C.3     1  UNL1        0.1595
     31 C          10.3526   41.9822   10.1455 C.3     1  UNL1        0.1052
     32 O          10.0823   44.3941   10.2905 O.3     1  UNL1       -0.3508
     33 N          10.3633   42.3674    8.7260 N.3     1  UNL1       -0.2598
@<TRIPOS>BOND
     1    26    27    1
     2    20    27    1
     3    21    22   ar
     4    23    24   ar
     5    25    20   ar
     6    19    21    1
     7    19    33    1
     8    19     1    1
     9    28    33    1
    10    28    29    1
    11    29    32    1
    12    30    32    1
    13    30    31    1
    14    31    33    1
    15     1     9   ar
    16     2    12    1
    17     2     3   ar
    18    10    14    1
    19    14    18   ar
    20    15    16   ar
    21    17    18   ar
    22     4     5   ar
    23     6     7   ar
    24     8     9   ar
    25     8     3   ar
    26    12    10   am
    27    20    21   ar
    28    22    23   ar
    29    24    25   ar
    30     1     2   ar
    31    10    11    2
    32    14    15   ar
    33    16    17   ar
    34     3     4   ar
    35     5     6   ar
    36     7     8   ar
    37    12    13    1
@<TRIPOS>MOLECULE
MolPort-007-711-013 ChemDiv-D485-0047 MCULE-7198466673 PubChem-46269987
 33 37 0 0 0
SMALL
GASTEIGER

@<TRIPOS>ATOM
      1 C          13.8538   40.9316    8.6121 C.ar    1  UNL1        0.1548
      2 C          13.2260   40.5336    9.7831 C.ar    1  UNL1        0.0860
      3 C          14.1394   39.7304   10.4362 C.ar    1  UNL1        0.0507
      4 C          14.1165   39.0995   11.6788 C.ar    1  UNL1        0.0044
      5 C          15.2541   38.3655   12.0586 C.ar    1  UNL1        0.0002
      6 C          16.3773   38.2903   11.2068 C.ar    1  UNL1        0.0031
      7 C          16.3817   38.9557    9.9678 C.ar    1  UNL1        0.0375
      8 C          15.2422   39.6757    9.6175 C.ar    1  UNL1        0.1462
      9 O          15.0575   40.3927    8.5335 O.2     1  UNL1       -0.4548
     10 C          10.8438   40.1643   10.6196 C.2     1  UNL1        0.2843
     11 O          10.8176   38.9433   10.3096 O.2     1  UNL1       -0.2665
     12 N          11.9459   40.9924   10.2360 N.am    1  UNL1       -0.2756
     13 H          11.8126   41.9665   10.2879 H       1  UNL1        0.1553
     14 C           9.7094   40.7617   11.3309 C.ar    1  UNL1        0.1988
     15 C           9.7548   41.3146   12.5934 C.ar    1  UNL1        0.0455
     16 C           8.4619   41.7435   12.8377 C.ar    1  UNL1        0.0440
     17 C           7.7198   41.4249   11.7131 C.ar    1  UNL1        0.1798
     18 O           8.5003   40.8403   10.8367 O.2     1  UNL1       -0.4458
     19 C          13.2636   41.8501    7.5777 C.3     1  UNL1        0.1426
     20 C          10.7147   41.6307    7.4384 C.ar    1  UNL1        0.1364
     21 C          11.8642   42.2391    7.9888 C.ar    1  UNL1        0.0335
     22 C          11.7213   43.2644    8.9310 C.ar    1  UNL1        0.0005
     23 C          10.4528   43.6829    9.3373 C.ar    1  UNL1       -0.0001
     24 C           9.3142   43.0810    8.8002 C.ar    1  UNL1        0.0031
     25 C           9.4438   42.0610    7.8555 C.ar    1  UNL1        0.0366
     26 C          10.0153   39.4609    6.4679 C.3     1  UNL1        0.2525
     27 O          10.8511   40.6097    6.4903 O.3     1  UNL1       -0.4717
     28 C          15.5326   42.5902    7.3490 C.3     1  UNL1        0.1052
     29 C          16.4624   43.7187    6.8715 C.3     1  UNL1        0.1595
     30 C          14.8506   44.6099    5.5579 C.3     1  UNL1        0.1595
     31 C          13.8391   43.5248    5.9641 C.3     1  UNL1        0.1052
     32 O          15.7375   44.8980    6.6132 O.3     1  UNL1       -0.3508
     33 N          14.1250   43.0158    7.3141 N.3     1  UNL1       -0.2598
@<TRIPOS>BOND
     1    26    27    1
     2    20    27    1
     3    21    22   ar
     4    23    24   ar
     5    25    20   ar
     6    19    21    1
     7    19    33    1
     8    19     1    1
     9    28    33    1
    10    28    29    1
    11    29    32    1
    12    30    32    1
    13    30    31    1
    14    31    33    1
    15     1     9   ar
    16     2    12    1
    17     2     3   ar
    18    10    14    1
    19    14    18   ar
    20    15    16   ar
    21    17    18   ar
    22     4     5   ar
    23     6     7   ar
    24     8     9   ar
    25     8     3   ar
    26    12    10   am
    27    20    21   ar
    28    22    23   ar
    29    24    25   ar
    30     1     2   ar
    31    10    11    2
    32    14    15   ar
    33    16    17   ar
    34     3     4   ar
    35     5     6   ar
    36     7     8   ar
    37    12    13    1
