@<TRIPOS>MOLECULE
MolPort-016-717-605 19717026 MCULE-1433638228 PubChem-46974456 ZINC000019717026
 28 31 0 0 0
SMALL
GASTEIGER

@<TRIPOS>ATOM
      1 C          13.0988   37.3850    4.0081 C.2     1  UNL1        0.2509
      2 O          13.4642   37.5315    2.8103 O.2     1  UNL1       -0.2698
      3 N          13.8175   36.5103    4.8895 N.am    1  UNL1       -0.2606
      4 H          13.4828   36.4403    5.8127 H       1  UNL1        0.1571
      5 C          17.5034   34.8885    2.1792 C.ar    1  UNL1        0.1566
      6 C          18.5750   33.9732    2.2452 C.ar    1  UNL1        0.0385
      7 C          18.7860   33.1952    3.3992 C.ar    1  UNL1        0.0037
      8 C          17.9328   33.3181    4.5057 C.ar    1  UNL1        0.0083
      9 C          16.8830   34.2277    4.4203 C.ar    1  UNL1        0.0527
     10 C          14.9727   35.7281    4.5627 C.ar    1  UNL1        0.1659
     11 C          16.6624   35.0018    3.2907 C.ar    1  UNL1        0.1230
     12 S          15.7180   34.5843    5.5727 S.2     1  UNL1       -0.0513
     13 N          15.5970   35.8409    3.3659 N.ar    1  UNL1       -0.2208
     14 O          17.2720   35.6776    1.0455 O.3     1  UNL1       -0.4739
     15 C          17.2613   35.2586   -1.3326 C.3     1  UNL1        0.0512
     16 C          18.0908   35.6338   -0.1183 C.3     1  UNL1        0.2056
     17 C          11.9229   38.1194    4.5076 C.ar    1  UNL1        0.0538
     18 C          12.0292   38.9436    5.6356 C.ar    1  UNL1        0.0061
     19 C          10.9145   39.6399    6.1096 C.ar    1  UNL1        0.0194
     20 C           9.6739   39.5252    5.4650 C.ar    1  UNL1        0.0858
     21 C           9.5708   38.6992    4.3363 C.ar    1  UNL1        0.0194
     22 C          10.6850   38.0022    3.8613 C.ar    1  UNL1        0.0061
     23 C           8.2173   40.6871    7.1759 C.ar    1  UNL1        0.1658
     24 C           9.0635   40.5482    8.3953 C.3     1  UNL1        0.0758
     25 N           8.5147   40.2353    5.9394 N.ar    1  UNL1       -0.1952
     26 N           7.4900   40.5779    5.1768 N.ar    1  UNL1       -0.0388
     27 N           6.5959   41.2166    5.9170 N.ar    1  UNL1       -0.0227
     28 N           7.0208   41.3013    7.1702 N.ar    1  UNL1       -0.1123
@<TRIPOS>BOND
     1    15    16    1
     2    16    14    1
     3     5    14    1
     4     6     7   ar
     5     8     9   ar
     6     9    12   ar
     7    10    12   ar
     8    10     3    1
     9     1    17    1
    10    18    19   ar
    11    20    25    1
    12    20    21   ar
    13    23    25   ar
    14    24    23    1
    15    22    17   ar
    16    11    13   ar
    17    11     5   ar
    18     3     1   am
    19    25    26   ar
    20    27    28   ar
    21     5     6   ar
    22     7     8   ar
    23    10    13   ar
    24     1     2    2
    25    17    18   ar
    26    19    20   ar
    27    23    28   ar
    28    21    22   ar
    29    11     9   ar
    30    26    27   ar
    31     3     4    1
@<TRIPOS>MOLECULE
MolPort-016-717-605 19717026 MCULE-1433638228 PubChem-46974456 ZINC000019717026
 28 31 0 0 0
SMALL
GASTEIGER

@<TRIPOS>ATOM
      1 C           2.7361   41.7159   12.1956 C.2     1  UNL1        0.2509
      2 O           2.8748   40.6596   12.8699 O.2     1  UNL1       -0.2698
      3 N           1.7123   42.6650   12.5265 N.am    1  UNL1       -0.2606
      4 H           1.6567   43.4701   11.9626 H       1  UNL1        0.1571
      5 C          -0.0143   43.1184   17.0404 C.ar    1  UNL1        0.1566
      6 C          -1.1824   42.8501   17.7848 C.ar    1  UNL1        0.0385
      7 C          -2.3042   42.2586   17.1740 C.ar    1  UNL1        0.0037
      8 C          -2.2797   41.9263   15.8116 C.ar    1  UNL1        0.0083
      9 C          -1.1184   42.2006   15.0955 C.ar    1  UNL1        0.0527
     10 C           0.7626   42.5603   13.5943 C.ar    1  UNL1        0.1659
     11 C          -0.0051   42.7835   15.6827 C.ar    1  UNL1        0.1230
     12 S          -0.8042   41.9167   13.4728 S.2     1  UNL1       -0.0513
     13 N           1.0473   42.9862   14.8483 N.ar    1  UNL1       -0.2208
     14 O           1.1150   43.7091   17.6212 O.3     1  UNL1       -0.4739
     15 C           0.3622   46.0034   17.6496 C.3     1  UNL1        0.0512
     16 C           1.5117   45.0530   17.3690 C.3     1  UNL1        0.2056
     17 C           3.6342   41.9784   11.0571 C.ar    1  UNL1        0.0538
     18 C           4.9691   41.5544   11.0955 C.ar    1  UNL1        0.0061
     19 C           5.8209   41.8032   10.0164 C.ar    1  UNL1        0.0194
     20 C           5.3543   42.4799    8.8797 C.ar    1  UNL1        0.0858
     21 C           4.0176   42.9031    8.8444 C.ar    1  UNL1        0.0194
     22 C           3.1647   42.6549    9.9232 C.ar    1  UNL1        0.0061
     23 C           6.7964   41.8931    6.8860 C.ar    1  UNL1        0.1658
     24 C           6.6673   40.4080    6.8825 C.3     1  UNL1        0.0758
     25 N           6.2178   42.7449    7.7585 N.ar    1  UNL1       -0.1952
     26 N           6.6021   43.9544    7.3866 N.ar    1  UNL1       -0.0388
     27 N           7.3878   43.8500    6.3250 N.ar    1  UNL1       -0.0227
     28 N           7.5285   42.5754    5.9876 N.ar    1  UNL1       -0.1123
@<TRIPOS>BOND
     1    15    16    1
     2    16    14    1
     3     5    14    1
     4     6     7   ar
     5     8     9   ar
     6     9    12   ar
     7    10    12   ar
     8    10     3    1
     9     1    17    1
    10    18    19   ar
    11    20    25    1
    12    20    21   ar
    13    23    25   ar
    14    24    23    1
    15    22    17   ar
    16    11    13   ar
    17    11     5   ar
    18     3     1   am
    19    25    26   ar
    20    27    28   ar
    21     5     6   ar
    22     7     8   ar
    23    10    13   ar
    24     1     2    2
    25    17    18   ar
    26    19    20   ar
    27    23    28   ar
    28    21    22   ar
    29    11     9   ar
    30    26    27   ar
    31     3     4    1
@<TRIPOS>MOLECULE
MolPort-016-717-605 19717026 MCULE-1433638228 PubChem-46974456 ZINC000019717026
 28 31 0 0 0
SMALL
GASTEIGER

@<TRIPOS>ATOM
      1 C          12.4112   37.7143    3.9265 C.2     1  UNL1        0.2509
      2 O          12.4753   37.6678    2.6682 O.2     1  UNL1       -0.2698
      3 N          13.3479   36.9861    4.7333 N.am    1  UNL1       -0.2606
      4 H          13.2456   37.0646    5.7093 H       1  UNL1        0.1571
      5 C          15.8597   32.8918    4.0340 C.ar    1  UNL1        0.1566
      6 C          17.0473   32.4417    3.4194 C.ar    1  UNL1        0.0385
      7 C          17.8967   33.3430    2.7502 C.ar    1  UNL1        0.0037
      8 C          17.5751   34.7065    2.6822 C.ar    1  UNL1        0.0083
      9 C          16.3987   35.1292    3.2936 C.ar    1  UNL1        0.0527
     10 C          14.4172   36.1563    4.2629 C.ar    1  UNL1        0.1659
     11 C          15.5511   34.2535    3.9562 C.ar    1  UNL1        0.1230
     12 S          15.7653   36.6800    3.3729 S.2     1  UNL1       -0.0513
     13 N          14.4437   34.8227    4.4988 N.ar    1  UNL1       -0.2208
     14 O          14.9946   32.0172    4.7033 O.3     1  UNL1       -0.4739
     15 C          14.2012   31.2878    6.8642 C.3     1  UNL1        0.0512
     16 C          15.3585   31.3074    5.8826 C.3     1  UNL1        0.2056
     17 C          11.3647   38.5243    4.5747 C.ar    1  UNL1        0.0538
     18 C          11.7072   39.4935    5.5268 C.ar    1  UNL1        0.0061
     19 C          10.7152   40.2616    6.1418 C.ar    1  UNL1        0.0194
     20 C           9.3635   40.0751    5.8163 C.ar    1  UNL1        0.0858
     21 C           9.0240   39.1041    4.8630 C.ar    1  UNL1        0.0194
     22 C          10.0152   38.3352    4.2474 C.ar    1  UNL1        0.0061
     23 C           8.1923   41.2565    7.7220 C.ar    1  UNL1        0.1658
     24 C           9.1307   40.9646    8.8429 C.3     1  UNL1        0.0758
     25 N           8.3280   40.8575    6.4398 N.ar    1  UNL1       -0.1952
     26 N           7.2751   41.3396    5.8012 N.ar    1  UNL1       -0.0388
     27 N           6.5201   42.0100    6.6590 N.ar    1  UNL1       -0.0227
     28 N           7.0659   41.9769    7.8669 N.ar    1  UNL1       -0.1123
@<TRIPOS>BOND
     1    15    16    1
     2    16    14    1
     3     5    14    1
     4     6     7   ar
     5     8     9   ar
     6     9    12   ar
     7    10    12   ar
     8    10     3    1
     9     1    17    1
    10    18    19   ar
    11    20    25    1
    12    20    21   ar
    13    23    25   ar
    14    24    23    1
    15    22    17   ar
    16    11    13   ar
    17    11     5   ar
    18     3     1   am
    19    25    26   ar
    20    27    28   ar
    21     5     6   ar
    22     7     8   ar
    23    10    13   ar
    24     1     2    2
    25    17    18   ar
    26    19    20   ar
    27    23    28   ar
    28    21    22   ar
    29    11     9   ar
    30    26    27   ar
    31     3     4    1
@<TRIPOS>MOLECULE
MolPort-016-717-605 19717026 MCULE-1433638228 PubChem-46974456 ZINC000019717026
 28 31 0 0 0
SMALL
GASTEIGER

@<TRIPOS>ATOM
      1 C          10.8157   41.7867    9.4991 C.2     1  UNL1        0.2509
      2 O          10.9775   42.8811    8.8944 O.2     1  UNL1       -0.2698
      3 N           9.4980   41.3087    9.8048 N.am    1  UNL1       -0.2606
      4 H           9.4387   40.4469   10.2771 H       1  UNL1        0.1571
      5 C           4.6861   41.8244    9.4288 C.ar    1  UNL1        0.1566
      6 C           3.7283   42.7699    9.0054 C.ar    1  UNL1        0.0385
      7 C           4.1282   44.0206    8.4979 C.ar    1  UNL1        0.0037
      8 C           5.4887   44.3487    8.4056 C.ar    1  UNL1        0.0083
      9 C           6.4168   43.4025    8.8300 C.ar    1  UNL1        0.0527
     10 C           8.2594   41.9580    9.4927 C.ar    1  UNL1        0.1659
     11 C           6.0386   42.1662    9.3328 C.ar    1  UNL1        0.1230
     12 S           8.0900   43.5157    8.8379 S.2     1  UNL1       -0.0513
     13 N           7.0641   41.3567    9.7040 N.ar    1  UNL1       -0.2208
     14 O           4.3167   40.5742    9.9408 O.3     1  UNL1       -0.4739
     15 C           3.3297   41.5733   11.9052 C.3     1  UNL1        0.0512
     16 C           4.0071   40.3513   11.3124 C.3     1  UNL1        0.2056
     17 C          11.9910   40.9907    9.8951 C.ar    1  UNL1        0.0538
     18 C          11.9850   40.2676   11.0951 C.ar    1  UNL1        0.0061
     19 C          13.0992   39.5130   11.4710 C.ar    1  UNL1        0.0194
     20 C          14.2390   39.4674   10.6546 C.ar    1  UNL1        0.0858
     21 C          14.2418   40.1925    9.4541 C.ar    1  UNL1        0.0194
     22 C          13.1281   40.9476    9.0771 C.ar    1  UNL1        0.0061
     23 C          16.7037   38.9100   10.7701 C.ar    1  UNL1        0.1658
     24 C          17.2790   40.0539   10.0067 C.3     1  UNL1        0.0758
     25 N          15.3961   38.6951   11.0259 N.ar    1  UNL1       -0.1952
     26 N          15.3476   37.5749   11.7271 N.ar    1  UNL1       -0.0388
     27 N          16.5797   37.1181   11.8959 N.ar    1  UNL1       -0.0227
     28 N          17.4494   37.9298   11.3103 N.ar    1  UNL1       -0.1123
@<TRIPOS>BOND
     1    15    16    1
     2    16    14    1
     3     5    14    1
     4     6     7   ar
     5     8     9   ar
     6     9    12   ar
     7    10    12   ar
     8    10     3    1
     9     1    17    1
    10    18    19   ar
    11    20    25    1
    12    20    21   ar
    13    23    25   ar
    14    24    23    1
    15    22    17   ar
    16    11    13   ar
    17    11     5   ar
    18     3     1   am
    19    25    26   ar
    20    27    28   ar
    21     5     6   ar
    22     7     8   ar
    23    10    13   ar
    24     1     2    2
    25    17    18   ar
    26    19    20   ar
    27    23    28   ar
    28    21    22   ar
    29    11     9   ar
    30    26    27   ar
    31     3     4    1
@<TRIPOS>MOLECULE
MolPort-016-717-605 19717026 MCULE-1433638228 PubChem-46974456 ZINC000019717026
 28 31 0 0 0
SMALL
GASTEIGER

@<TRIPOS>ATOM
      1 C          12.1132   38.1434    4.7288 C.2     1  UNL1        0.2509
      2 O          12.1667   37.8090    3.5143 O.2     1  UNL1       -0.2698
      3 N          13.0512   37.6113    5.6751 N.am    1  UNL1       -0.2606
      4 H          12.9574   37.9125    6.6077 H       1  UNL1        0.1571
      5 C          16.7831   34.6645    6.6499 C.ar    1  UNL1        0.1566
      6 C          17.6851   33.8045    5.9884 C.ar    1  UNL1        0.0385
      7 C          17.6217   33.6319    4.5928 C.ar    1  UNL1        0.0037
      8 C          16.6577   34.3129    3.8350 C.ar    1  UNL1        0.0083
      9 C          15.7770   35.1550    4.5071 C.ar    1  UNL1        0.0527
     10 C          14.1105   36.6862    5.4010 C.ar    1  UNL1        0.1659
     11 C          15.8263   35.3351    5.8817 C.ar    1  UNL1        0.1230
     12 S          14.5358   36.0858    3.8705 S.2     1  UNL1       -0.0513
     13 N          14.8977   36.1891    6.3849 N.ar    1  UNL1       -0.2208
     14 O          16.8210   34.8524    8.0373 O.3     1  UNL1       -0.4739
     15 C          16.7911   36.7970    9.4686 C.3     1  UNL1        0.0512
     16 C          17.6433   35.8257    8.6725 C.3     1  UNL1        0.2056
     17 C          11.0780   39.0899    5.1805 C.ar    1  UNL1        0.0538
     18 C           9.7730   38.6457    5.4314 C.ar    1  UNL1        0.0061
     19 C           8.7912   39.5429    5.8594 C.ar    1  UNL1        0.0194
     20 C           9.0957   40.8996    6.0446 C.ar    1  UNL1        0.0858
     21 C          10.4028   41.3411    5.7924 C.ar    1  UNL1        0.0194
     22 C          11.3856   40.4447    5.3642 C.ar    1  UNL1        0.0061
     23 C           7.6092   42.0729    7.7217 C.ar    1  UNL1        0.1658
     24 C           8.0139   41.3799    8.9780 C.3     1  UNL1        0.0758
     25 N           8.0968   41.8382    6.4852 N.ar    1  UNL1       -0.1952
     26 N           7.4592   42.6751    5.6840 N.ar    1  UNL1       -0.0388
     27 N           6.6112   43.3974    6.4012 N.ar    1  UNL1       -0.0227
     28 N           6.6813   43.0454    7.6777 N.ar    1  UNL1       -0.1123
@<TRIPOS>BOND
     1    15    16    1
     2    16    14    1
     3     5    14    1
     4     6     7   ar
     5     8     9   ar
     6     9    12   ar
     7    10    12   ar
     8    10     3    1
     9     1    17    1
    10    18    19   ar
    11    20    25    1
    12    20    21   ar
    13    23    25   ar
    14    24    23    1
    15    22    17   ar
    16    11    13   ar
    17    11     5   ar
    18     3     1   am
    19    25    26   ar
    20    27    28   ar
    21     5     6   ar
    22     7     8   ar
    23    10    13   ar
    24     1     2    2
    25    17    18   ar
    26    19    20   ar
    27    23    28   ar
    28    21    22   ar
    29    11     9   ar
    30    26    27   ar
    31     3     4    1
@<TRIPOS>MOLECULE
MolPort-016-717-605 19717026 MCULE-1433638228 PubChem-46974456 ZINC000019717026
 28 31 0 0 0
SMALL
GASTEIGER

@<TRIPOS>ATOM
      1 C           5.7902   41.2835    9.9515 C.2     1  UNL1        0.2509
      2 O           6.8783   41.2210   10.5853 O.2     1  UNL1       -0.2698
      3 N           5.7554   41.0568    8.5352 N.am    1  UNL1       -0.2606
      4 H           4.8750   41.1185    8.0989 H       1  UNL1        0.1571
      5 C          10.3408   41.2041    6.9493 C.ar    1  UNL1        0.1566
      6 C          11.1497   40.6690    5.9247 C.ar    1  UNL1        0.0385
      7 C          10.6087   39.7925    4.9653 C.ar    1  UNL1        0.0037
      8 C           9.2534   39.4347    5.0129 C.ar    1  UNL1        0.0083
      9 C           8.4735   39.9725    6.0323 C.ar    1  UNL1        0.0527
     10 C           6.8718   40.7497    7.6910 C.ar    1  UNL1        0.1659
     11 C           8.9919   40.8369    6.9853 C.ar    1  UNL1        0.1230
     12 S           6.8428   39.7263    6.3361 S.2     1  UNL1       -0.0513
     13 N           8.1012   41.2732    7.9133 N.ar    1  UNL1       -0.2208
     14 O          10.8530   42.0755    7.9188 O.3     1  UNL1       -0.4739
     15 C          13.0344   41.7382    6.9395 C.3     1  UNL1        0.0512
     16 C          12.2454   42.3076    8.1042 C.3     1  UNL1        0.2056
     17 C           4.5423   41.5919   10.6721 C.ar    1  UNL1        0.0538
     18 C           3.7359   42.6631   10.2657 C.ar    1  UNL1        0.0061
     19 C           2.5528   42.9559   10.9488 C.ar    1  UNL1        0.0194
     20 C           2.1543   42.1836   12.0499 C.ar    1  UNL1        0.0858
     21 C           2.9638   41.1120   12.4543 C.ar    1  UNL1        0.0194
     22 C           4.1474   40.8183   11.7719 C.ar    1  UNL1        0.0061
     23 C           0.6877   43.3918   13.7198 C.ar    1  UNL1        0.1658
     24 C           1.6608   44.3730   14.2789 C.3     1  UNL1        0.0758
     25 N           0.9384   42.4706   12.7657 N.ar    1  UNL1       -0.1952
     26 N          -0.2018   41.8264   12.5813 N.ar    1  UNL1       -0.0388
     27 N          -1.1192   42.3328   13.3919 N.ar    1  UNL1       -0.0227
     28 N          -0.5950   43.3123   14.1158 N.ar    1  UNL1       -0.1123
@<TRIPOS>BOND
     1    15    16    1
     2    16    14    1
     3     5    14    1
     4     6     7   ar
     5     8     9   ar
     6     9    12   ar
     7    10    12   ar
     8    10     3    1
     9     1    17    1
    10    18    19   ar
    11    20    25    1
    12    20    21   ar
    13    23    25   ar
    14    24    23    1
    15    22    17   ar
    16    11    13   ar
    17    11     5   ar
    18     3     1   am
    19    25    26   ar
    20    27    28   ar
    21     5     6   ar
    22     7     8   ar
    23    10    13   ar
    24     1     2    2
    25    17    18   ar
    26    19    20   ar
    27    23    28   ar
    28    21    22   ar
    29    11     9   ar
    30    26    27   ar
    31     3     4    1
@<TRIPOS>MOLECULE
MolPort-016-717-605 19717026 MCULE-1433638228 PubChem-46974456 ZINC000019717026
 28 31 0 0 0
SMALL
GASTEIGER

@<TRIPOS>ATOM
      1 C          10.4229   41.0352   11.1276 C.2     1  UNL1        0.2509
      2 O          10.7776   41.1097   12.3352 O.2     1  UNL1       -0.2698
      3 N          11.3400   40.5780   10.1235 N.am    1  UNL1       -0.2606
      4 H          11.0020   40.5412    9.1996 H       1  UNL1        0.1571
      5 C          16.1484   40.5324    9.4603 C.ar    1  UNL1        0.1566
      6 C          17.3017   39.8783    9.9427 C.ar    1  UNL1        0.0385
      7 C          17.2034   38.8889   10.9390 C.ar    1  UNL1        0.0037
      8 C          15.9543   38.5367   11.4709 C.ar    1  UNL1        0.0083
      9 C          14.8297   39.1949   10.9824 C.ar    1  UNL1        0.0527
     10 C          12.6980   40.1694   10.3286 C.ar    1  UNL1        0.1659
     11 C          14.9102   40.1724   10.0014 C.ar    1  UNL1        0.1230
     12 S          13.2259   38.9852   11.4254 S.2     1  UNL1       -0.0513
     13 N          13.7225   40.7191    9.6335 N.ar    1  UNL1       -0.2208
     14 O          16.2170   41.5227    8.4724 O.3     1  UNL1       -0.4739
     15 C          16.9613   43.7149    7.7858 C.3     1  UNL1        0.0512
     16 C          17.3692   42.3295    8.2525 C.3     1  UNL1        0.2056
     17 C           9.0533   41.4208   10.7439 C.ar    1  UNL1        0.0538
     18 C           8.7633   41.7817    9.4216 C.ar    1  UNL1        0.0061
     19 C           7.4649   42.1475    9.0575 C.ar    1  UNL1        0.0194
     20 C           6.4333   42.1591   10.0080 C.ar    1  UNL1        0.0858
     21 C           6.7270   41.7975   11.3309 C.ar    1  UNL1        0.0194
     22 C           8.0252   41.4315   11.6962 C.ar    1  UNL1        0.0061
     23 C           3.9336   41.8483    9.7768 C.ar    1  UNL1        0.1658
     24 C           3.7745   40.4789   10.3439 C.3     1  UNL1        0.0758
     25 N           5.0896   42.5333    9.6508 N.ar    1  UNL1       -0.1952
     26 N           4.7616   43.6923    9.1048 N.ar    1  UNL1       -0.0388
     27 N           3.4526   43.7187    8.9027 N.ar    1  UNL1       -0.0227
     28 N           2.9066   42.5819    9.3122 N.ar    1  UNL1       -0.1123
@<TRIPOS>BOND
     1    15    16    1
     2    16    14    1
     3     5    14    1
     4     6     7   ar
     5     8     9   ar
     6     9    12   ar
     7    10    12   ar
     8    10     3    1
     9     1    17    1
    10    18    19   ar
    11    20    25    1
    12    20    21   ar
    13    23    25   ar
    14    24    23    1
    15    22    17   ar
    16    11    13   ar
    17    11     5   ar
    18     3     1   am
    19    25    26   ar
    20    27    28   ar
    21     5     6   ar
    22     7     8   ar
    23    10    13   ar
    24     1     2    2
    25    17    18   ar
    26    19    20   ar
    27    23    28   ar
    28    21    22   ar
    29    11     9   ar
    30    26    27   ar
    31     3     4    1
@<TRIPOS>MOLECULE
MolPort-016-717-605 19717026 MCULE-1433638228 PubChem-46974456 ZINC000019717026
 28 31 0 0 0
SMALL
GASTEIGER

@<TRIPOS>ATOM
      1 C           3.7383   42.3926   10.2321 C.2     1  UNL1        0.2509
      2 O           3.7880   43.3020    9.3601 O.2     1  UNL1       -0.2698
      3 N           4.7083   41.3354   10.2414 N.am    1  UNL1       -0.2606
      4 H           4.6158   40.6567   10.9485 H       1  UNL1        0.1571
      5 C           9.3184   41.3426    8.7221 C.ar    1  UNL1        0.1566
      6 C          10.0779   41.0640    7.5661 C.ar    1  UNL1        0.0385
      7 C           9.4516   40.6364    6.3802 C.ar    1  UNL1        0.0037
      8 C           8.0589   40.4789    6.3282 C.ar    1  UNL1        0.0083
      9 C           7.3288   40.7576    7.4797 C.ar    1  UNL1        0.0527
     10 C           5.7978   41.1669    9.3261 C.ar    1  UNL1        0.1659
     11 C           7.9312   41.1791    8.6560 C.ar    1  UNL1        0.1230
     12 S           5.6707   40.6593    7.7106 S.2     1  UNL1       -0.0513
     13 N           7.0802   41.4087    9.6894 N.ar    1  UNL1       -0.2208
     14 O           9.9152   41.7660    9.9162 O.3     1  UNL1       -0.4739
     15 C          10.0444   44.1607   10.1989 C.3     1  UNL1        0.0512
     16 C          10.8131   42.8682    9.9940 C.3     1  UNL1        0.2056
     17 C           2.6744   42.4160   11.2514 C.ar    1  UNL1        0.0538
     18 C           1.5614   41.5733   11.1330 C.ar    1  UNL1        0.0061
     19 C           0.5524   41.5954   12.0992 C.ar    1  UNL1        0.0194
     20 C           0.6376   42.4596   13.2009 C.ar    1  UNL1        0.0858
     21 C           1.7530   43.3020   13.3164 C.ar    1  UNL1        0.0194
     22 C           2.7627   43.2809   12.3506 C.ar    1  UNL1        0.0061
     23 C          -1.2187   41.5208   14.6403 C.ar    1  UNL1        0.1658
     24 C          -1.2555   40.1118   14.1547 C.3     1  UNL1        0.0758
     25 N          -0.3926   42.4958   14.2061 N.ar    1  UNL1       -0.1952
     26 N          -0.7074   43.5711   14.9086 N.ar    1  UNL1       -0.0388
     27 N          -1.6905   43.2684   15.7435 N.ar    1  UNL1       -0.0227
     28 N          -2.0320   41.9952   15.6005 N.ar    1  UNL1       -0.1123
@<TRIPOS>BOND
     1    15    16    1
     2    16    14    1
     3     5    14    1
     4     6     7   ar
     5     8     9   ar
     6     9    12   ar
     7    10    12   ar
     8    10     3    1
     9     1    17    1
    10    18    19   ar
    11    20    25    1
    12    20    21   ar
    13    23    25   ar
    14    24    23    1
    15    22    17   ar
    16    11    13   ar
    17    11     5   ar
    18     3     1   am
    19    25    26   ar
    20    27    28   ar
    21     5     6   ar
    22     7     8   ar
    23    10    13   ar
    24     1     2    2
    25    17    18   ar
    26    19    20   ar
    27    23    28   ar
    28    21    22   ar
    29    11     9   ar
    30    26    27   ar
    31     3     4    1
@<TRIPOS>MOLECULE
MolPort-016-717-605 19717026 MCULE-1433638228 PubChem-46974456 ZINC000019717026
 28 31 0 0 0
SMALL
GASTEIGER

@<TRIPOS>ATOM
      1 C           2.4027   42.2932   11.8842 C.2     1  UNL1        0.2509
      2 O           1.8455   42.4130   10.7596 O.2     1  UNL1       -0.2698
      3 N           3.7976   41.9706   11.9779 N.am    1  UNL1       -0.2606
      4 H           4.1734   41.8925   12.8845 H       1  UNL1        0.1571
      5 C           8.0579   41.2335    9.7715 C.ar    1  UNL1        0.1566
      6 C           8.5877   41.0349    8.4790 C.ar    1  UNL1        0.0385
      7 C           7.7456   41.0200    7.3512 C.ar    1  UNL1        0.0037
      8 C           6.3621   41.2016    7.4941 C.ar    1  UNL1        0.0083
      9 C           5.8600   41.3944    8.7776 C.ar    1  UNL1        0.0527
     10 C           4.6993   41.7506   10.8863 C.ar    1  UNL1        0.1659
     11 C           6.6767   41.4111    9.8987 C.ar    1  UNL1        0.1230
     12 S           4.2683   41.6343    9.2478 S.2     1  UNL1       -0.0513
     13 N           6.0328   41.6096   11.0781 N.ar    1  UNL1       -0.2208
     14 O           8.8716   41.2496   10.9113 O.3     1  UNL1       -0.4739
     15 C          11.2855   41.2035   10.8636 C.3     1  UNL1        0.0512
     16 C          10.0398   42.0550   11.0269 C.3     1  UNL1        0.2056
     17 C           1.6142   42.4868   13.1140 C.ar    1  UNL1        0.0538
     18 C           0.8870   41.4230   13.6639 C.ar    1  UNL1        0.0061
     19 C           0.1391   41.6062   14.8298 C.ar    1  UNL1        0.0194
     20 C           0.1045   42.8554   15.4668 C.ar    1  UNL1        0.0858
     21 C           0.8333   43.9184   14.9137 C.ar    1  UNL1        0.0194
     22 C           1.5817   43.7363   13.7476 C.ar    1  UNL1        0.0061
     23 C          -1.6861   42.3497   17.1806 C.ar    1  UNL1        0.1658
     24 C          -2.2918   41.1225   16.5895 C.3     1  UNL1        0.0758
     25 N          -0.6607   43.0625   16.6688 N.ar    1  UNL1       -0.1952
     26 N          -0.4577   44.0573   17.5163 N.ar    1  UNL1       -0.0388
     27 N          -1.3262   43.9596   18.5120 N.ar    1  UNL1       -0.0227
     28 N          -2.1071   42.9032   18.3317 N.ar    1  UNL1       -0.1123
@<TRIPOS>BOND
     1    15    16    1
     2    16    14    1
     3     5    14    1
     4     6     7   ar
     5     8     9   ar
     6     9    12   ar
     7    10    12   ar
     8    10     3    1
     9     1    17    1
    10    18    19   ar
    11    20    25    1
    12    20    21   ar
    13    23    25   ar
    14    24    23    1
    15    22    17   ar
    16    11    13   ar
    17    11     5   ar
    18     3     1   am
    19    25    26   ar
    20    27    28   ar
    21     5     6   ar
    22     7     8   ar
    23    10    13   ar
    24     1     2    2
    25    17    18   ar
    26    19    20   ar
    27    23    28   ar
    28    21    22   ar
    29    11     9   ar
    30    26    27   ar
    31     3     4    1
@<TRIPOS>MOLECULE
MolPort-016-717-605 19717026 MCULE-1433638228 PubChem-46974456 ZINC000019717026
 28 31 0 0 0
SMALL
GASTEIGER

@<TRIPOS>ATOM
      1 C          12.6489   40.3614    7.6937 C.2     1  UNL1        0.2509
      2 O          11.8889   40.6913    6.7433 O.2     1  UNL1       -0.2698
      3 N          13.8281   41.1250    7.9852 N.am    1  UNL1       -0.2606
      4 H          14.3790   40.8166    8.7406 H       1  UNL1        0.1571
      5 C          17.0366   44.2923    6.1864 C.ar    1  UNL1        0.1566
      6 C          17.0745   45.4926    5.4457 C.ar    1  UNL1        0.0385
      7 C          15.8850   46.1067    5.0105 C.ar    1  UNL1        0.0037
      8 C          14.6393   45.5335    5.3056 C.ar    1  UNL1        0.0083
      9 C          14.6244   44.3490    6.0358 C.ar    1  UNL1        0.0527
     10 C          14.2853   42.2908    7.2888 C.ar    1  UNL1        0.1659
     11 C          15.7877   43.7314    6.4713 C.ar    1  UNL1        0.1230
     12 S          13.2998   43.4468    6.5296 S.2     1  UNL1       -0.0513
     13 N          15.6030   42.5821    7.1711 N.ar    1  UNL1       -0.2208
     14 O          18.2040   43.6578    6.6291 O.3     1  UNL1       -0.4739
     15 C          18.0794   42.0791    8.4521 C.3     1  UNL1        0.0512
     16 C          18.5145   43.4626    8.0047 C.3     1  UNL1        0.2056
     17 C          12.3228   39.1808    8.5130 C.ar    1  UNL1        0.0538
     18 C          13.3338   38.4902    9.1943 C.ar    1  UNL1        0.0061
     19 C          13.0251   37.3707    9.9711 C.ar    1  UNL1        0.0194
     20 C          11.7008   36.9213   10.0812 C.ar    1  UNL1        0.0858
     21 C          10.6911   37.6147    9.3979 C.ar    1  UNL1        0.0194
     22 C          10.9988   38.7345    8.6206 C.ar    1  UNL1        0.0061
     23 C          11.9486   34.5547   10.9394 C.ar    1  UNL1        0.1658
     24 C          13.1366   34.1039   10.1599 C.3     1  UNL1        0.0758
     25 N          11.3642   35.7697   10.8771 N.ar    1  UNL1       -0.1952
     26 N          10.3559   35.7265   11.7318 N.ar    1  UNL1       -0.0388
     27 N          10.3218   34.5294   12.2984 N.ar    1  UNL1       -0.0227
     28 N          11.3036   33.7745   11.8249 N.ar    1  UNL1       -0.1123
@<TRIPOS>BOND
     1    15    16    1
     2    16    14    1
     3     5    14    1
     4     6     7   ar
     5     8     9   ar
     6     9    12   ar
     7    10    12   ar
     8    10     3    1
     9     1    17    1
    10    18    19   ar
    11    20    25    1
    12    20    21   ar
    13    23    25   ar
    14    24    23    1
    15    22    17   ar
    16    11    13   ar
    17    11     5   ar
    18     3     1   am
    19    25    26   ar
    20    27    28   ar
    21     5     6   ar
    22     7     8   ar
    23    10    13   ar
    24     1     2    2
    25    17    18   ar
    26    19    20   ar
    27    23    28   ar
    28    21    22   ar
    29    11     9   ar
    30    26    27   ar
    31     3     4    1
