@<TRIPOS>MOLECULE
Molport-046-971-696 MCULE-6999629585 MCULE-7859326811 PubChem-110111646
 29 32 0 0 0
SMALL
GASTEIGER

@<TRIPOS>ATOM
      1 C           7.5741   42.6340    8.8391 C.2     1  UNL1        0.2505
      2 C           7.5925   41.4301   11.0680 C.3     1  UNL1        0.0937
      3 C           8.5725   41.9573   12.1121 C.3     1  UNL1        0.0219
      4 C           9.9461   41.3209   11.9072 C.3     1  UNL1        0.0078
      5 C          10.4577   41.5946   10.4900 C.3     1  UNL1        0.0424
      6 C           9.4551   41.0893    9.4510 C.3     1  UNL1        0.0980
      7 N           8.1386   41.6554    9.7317 N.am    1  UNL1       -0.2757
      8 O           8.3222   43.1969    7.9927 O.2     1  UNL1       -0.2699
      9 C           2.7625   41.4325    9.5849 C.3     1  UNL1        0.0327
     10 C           3.8062   42.4218    9.2115 C.ar    1  UNL1       -0.0025
     11 C           3.4492   43.7211    8.8502 C.ar    1  UNL1        0.0946
     12 C           5.7293   44.2853    8.5044 C.ar    1  UNL1        0.1033
     13 C           6.1374   42.9946    8.8695 C.ar    1  UNL1        0.0724
     14 C           5.1533   42.0598    9.2156 C.ar    1  UNL1        0.0034
     15 N           4.4104   44.6188    8.5054 N.ar    1  UNL1       -0.2425
     16 C          11.8055   40.9826   10.2766 C.ar    1  UNL1       -0.0165
     17 C          12.5559   41.3600    9.1608 C.ar    1  UNL1        0.0302
     18 C          13.8160   40.7940    8.9510 C.ar    1  UNL1        0.1329
     19 C          13.5899   39.4952   10.9314 C.ar    1  UNL1        0.1000
     20 C          12.3277   40.0398   11.1720 C.ar    1  UNL1        0.0166
     21 N          14.3004   39.8794    9.8375 N.ar    1  UNL1       -0.2291
     22 N          14.5743   41.1908    7.8021 N.pl3   1  UNL1       -0.2834
     23 H          14.3784   40.7243    6.9575 H       1  UNL1        0.1550
     24 C          15.5898   42.2004    7.7630 C.ar    1  UNL1        0.1332
     25 C          16.7592   42.0163    8.5057 C.ar    1  UNL1        0.0345
     26 C          17.7541   42.9951    8.4735 C.ar    1  UNL1        0.0045
     27 C          17.5737   44.1447    7.7032 C.ar    1  UNL1        0.0208
     28 C          16.3932   44.2964    6.9734 C.ar    1  UNL1        0.1003
     29 N          15.4356   43.3313    7.0179 N.ar    1  UNL1       -0.2290
@<TRIPOS>BOND
     1     9    10    1
     2    11    15   ar
     3    12    13   ar
     4    13     1    1
     5    14    10   ar
     6     1     7   am
     7     2     7    1
     8     2     3    1
     9     3     4    1
    10     4     5    1
    11     5     6    1
    12     5    16    1
    13     6     7    1
    14    17    18   ar
    15    18    22    1
    16    19    21   ar
    17    20    16   ar
    18    24    29   ar
    19    25    26   ar
    20    27    28   ar
    21    22    24    1
    22    10    11   ar
    23    12    15   ar
    24    13    14   ar
    25     1     8    2
    26    16    17   ar
    27    18    21   ar
    28    19    20   ar
    29    24    25   ar
    30    26    27   ar
    31    28    29   ar
    32    22    23    1
@<TRIPOS>MOLECULE
Molport-046-971-696 MCULE-6999629585 MCULE-7859326811 PubChem-110111646
 29 32 0 0 0
SMALL
GASTEIGER

@<TRIPOS>ATOM
      1 C          10.9838   40.6777    9.5185 C.2     1  UNL1        0.2505
      2 C          11.5911   39.6727    7.2738 C.3     1  UNL1        0.0937
      3 C          11.8285   38.1655    7.2509 C.3     1  UNL1        0.0219
      4 C          13.2761   37.8592    7.6305 C.3     1  UNL1        0.0078
      5 C          13.6044   38.4433    9.0075 C.3     1  UNL1        0.0424
      6 C          13.3350   39.9490    9.0294 C.3     1  UNL1        0.0980
      7 N          11.9689   40.2041    8.5813 N.am    1  UNL1       -0.2757
      8 O          11.2253   40.6000   10.7548 O.2     1  UNL1       -0.2699
      9 C           8.2886   43.4485    6.3232 C.3     1  UNL1        0.0327
     10 C           8.3868   42.6193    7.5521 C.ar    1  UNL1       -0.0025
     11 C           7.2610   42.3988    8.3459 C.ar    1  UNL1        0.0946
     12 C           8.5412   41.0834    9.8518 C.ar    1  UNL1        0.1033
     13 C           9.6976   41.2688    9.0810 C.ar    1  UNL1        0.0724
     14 C           9.6068   42.0556    7.9257 C.ar    1  UNL1        0.0034
     15 N           7.3607   41.6425    9.4714 N.ar    1  UNL1       -0.2425
     16 C          15.0176   38.1456    9.3957 C.ar    1  UNL1       -0.0165
     17 C          15.6131   36.9650    8.9462 C.ar    1  UNL1        0.0302
     18 C          16.9327   36.6763    9.3034 C.ar    1  UNL1        0.1329
     19 C          17.0689   38.7057   10.5374 C.ar    1  UNL1        0.1000
     20 C          15.7531   39.0259   10.2003 C.ar    1  UNL1        0.0166
     21 N          17.6256   37.5498   10.0869 N.ar    1  UNL1       -0.2291
     22 N          17.5303   35.4615    8.8349 N.pl3   1  UNL1       -0.2834
     23 H          18.4663   35.5137    8.5343 H       1  UNL1        0.1550
     24 C          16.8980   34.1783    8.7613 C.ar    1  UNL1        0.1332
     25 C          15.5078   34.1126    8.6341 C.ar    1  UNL1        0.0345
     26 C          14.8832   32.8661    8.5618 C.ar    1  UNL1        0.0045
     27 C          15.6487   31.7007    8.6169 C.ar    1  UNL1        0.0208
     28 C          17.0352   31.8027    8.7442 C.ar    1  UNL1        0.1003
     29 N          17.6251   33.0265    8.8131 N.ar    1  UNL1       -0.2290
@<TRIPOS>BOND
     1     9    10    1
     2    11    15   ar
     3    12    13   ar
     4    13     1    1
     5    14    10   ar
     6     1     7   am
     7     2     7    1
     8     2     3    1
     9     3     4    1
    10     4     5    1
    11     5     6    1
    12     5    16    1
    13     6     7    1
    14    17    18   ar
    15    18    22    1
    16    19    21   ar
    17    20    16   ar
    18    24    29   ar
    19    25    26   ar
    20    27    28   ar
    21    22    24    1
    22    10    11   ar
    23    12    15   ar
    24    13    14   ar
    25     1     8    2
    26    16    17   ar
    27    18    21   ar
    28    19    20   ar
    29    24    25   ar
    30    26    27   ar
    31    28    29   ar
    32    22    23    1
@<TRIPOS>MOLECULE
Molport-046-971-696 MCULE-6999629585 MCULE-7859326811 PubChem-110111646
 29 32 0 0 0
SMALL
GASTEIGER

@<TRIPOS>ATOM
      1 C          10.1240   41.2339    9.2363 C.2     1  UNL1        0.2505
      2 C          10.6019   38.7877    8.7832 C.3     1  UNL1        0.0937
      3 C          11.2428   38.0024    9.9239 C.3     1  UNL1        0.0219
      4 C          12.7607   38.1694    9.8844 C.3     1  UNL1        0.0078
      5 C          13.1392   39.6513    9.9608 C.3     1  UNL1        0.0424
      6 C          12.4684   40.4351    8.8313 C.3     1  UNL1        0.0980
      7 N          11.0303   40.1828    8.8531 N.am    1  UNL1       -0.2757
      8 O          10.5814   42.2590    9.8132 O.2     1  UNL1       -0.2699
      9 C           6.2699   39.9605    6.2908 C.3     1  UNL1        0.0327
     10 C           6.7985   40.5646    7.5411 C.ar    1  UNL1       -0.0025
     11 C           5.9268   41.1078    8.4851 C.ar    1  UNL1        0.0946
     12 C           7.7553   41.7030    9.8777 C.ar    1  UNL1        0.1033
     13 C           8.6696   41.1610    8.9633 C.ar    1  UNL1        0.0724
     14 C           8.1721   40.5969    7.7817 C.ar    1  UNL1        0.0034
     15 N           6.4192   41.6628    9.6245 N.ar    1  UNL1       -0.2425
     16 C          14.6237   39.8302    9.9296 C.ar    1  UNL1       -0.0165
     17 C          15.1728   40.8254    9.1181 C.ar    1  UNL1        0.0302
     18 C          16.5585   41.0009    9.0806 C.ar    1  UNL1        0.1329
     19 C          16.8507   39.2233   10.6345 C.ar    1  UNL1        0.1000
     20 C          15.4715   39.0199   10.6964 C.ar    1  UNL1        0.0166
     21 N          17.3604   40.1992    9.8364 N.ar    1  UNL1       -0.2291
     22 N          17.1074   42.0257    8.2436 N.pl3   1  UNL1       -0.2834
     23 H          18.0862   42.1316    8.2543 H       1  UNL1        0.1550
     24 C          16.3704   42.9114    7.3925 C.ar    1  UNL1        0.1332
     25 C          15.0604   42.5783    7.0374 C.ar    1  UNL1        0.0345
     26 C          14.3347   43.4357    6.2084 C.ar    1  UNL1        0.0045
     27 C          14.9208   44.6135    5.7428 C.ar    1  UNL1        0.0208
     28 C          16.2314   44.9155    6.1170 C.ar    1  UNL1        0.1003
     29 N          16.9220   44.0672    6.9257 N.ar    1  UNL1       -0.2290
@<TRIPOS>BOND
     1     9    10    1
     2    11    15   ar
     3    12    13   ar
     4    13     1    1
     5    14    10   ar
     6     1     7   am
     7     2     7    1
     8     2     3    1
     9     3     4    1
    10     4     5    1
    11     5     6    1
    12     5    16    1
    13     6     7    1
    14    17    18   ar
    15    18    22    1
    16    19    21   ar
    17    20    16   ar
    18    24    29   ar
    19    25    26   ar
    20    27    28   ar
    21    22    24    1
    22    10    11   ar
    23    12    15   ar
    24    13    14   ar
    25     1     8    2
    26    16    17   ar
    27    18    21   ar
    28    19    20   ar
    29    24    25   ar
    30    26    27   ar
    31    28    29   ar
    32    22    23    1
@<TRIPOS>MOLECULE
Molport-046-971-696 MCULE-6999629585 MCULE-7859326811 PubChem-110111646
 29 32 0 0 0
SMALL
GASTEIGER

@<TRIPOS>ATOM
      1 C          11.4665   40.6209    9.2341 C.2     1  UNL1        0.2505
      2 C          10.8519   38.2149    8.7329 C.3     1  UNL1        0.0937
      3 C          11.0798   37.2111    9.8594 C.3     1  UNL1        0.0219
      4 C          12.5225   36.7099    9.8282 C.3     1  UNL1        0.0078
      5 C          13.5003   37.8836    9.9359 C.3     1  UNL1        0.0424
      6 C          13.2446   38.8987    8.8203 C.3     1  UNL1        0.0980
      7 N          11.8375   39.2889    8.8325 N.am    1  UNL1       -0.2757
      8 O          12.3134   41.3398    9.8331 O.2     1  UNL1       -0.2699
      9 C           6.7656   41.6637   10.6359 C.3     1  UNL1        0.0327
     10 C           7.8453   41.6800    9.6154 C.ar    1  UNL1       -0.0025
     11 C           7.6083   42.2091    8.3465 C.ar    1  UNL1        0.0946
     12 C           9.8367   41.7181    7.6908 C.ar    1  UNL1        0.1033
     13 C          10.1252   41.1849    8.9550 C.ar    1  UNL1        0.0724
     14 C           9.1058   41.1636    9.9154 C.ar    1  UNL1        0.0034
     15 N           8.6006   42.2160    7.4170 N.ar    1  UNL1       -0.2425
     16 C          14.9178   37.4074    9.9131 C.ar    1  UNL1       -0.0165
     17 C          15.3145   36.4967    8.9314 C.ar    1  UNL1        0.0302
     18 C          16.6362   36.0444    8.9011 C.ar    1  UNL1        0.1329
     19 C          17.1640   37.3831   10.7956 C.ar    1  UNL1        0.1000
     20 C          15.8523   37.8558   10.8559 C.ar    1  UNL1        0.0166
     21 N          17.5251   36.4966    9.8298 N.ar    1  UNL1       -0.2291
     22 N          17.0287   35.1103    7.8883 N.pl3   1  UNL1       -0.2834
     23 H          17.6945   35.4196    7.2323 H       1  UNL1        0.1550
     24 C          16.5465   33.7699    7.7375 C.ar    1  UNL1        0.1332
     25 C          16.8018   32.8387    8.7478 C.ar    1  UNL1        0.0345
     26 C          16.3356   31.5302    8.6092 C.ar    1  UNL1        0.0045
     27 C          15.6212   31.1640    7.4677 C.ar    1  UNL1        0.0208
     28 C          15.3840   32.1194    6.4778 C.ar    1  UNL1        0.1003
     29 N          15.8466   33.3894    6.6315 N.ar    1  UNL1       -0.2290
@<TRIPOS>BOND
     1     9    10    1
     2    11    15   ar
     3    12    13   ar
     4    13     1    1
     5    14    10   ar
     6     1     7   am
     7     2     7    1
     8     2     3    1
     9     3     4    1
    10     4     5    1
    11     5     6    1
    12     5    16    1
    13     6     7    1
    14    17    18   ar
    15    18    22    1
    16    19    21   ar
    17    20    16   ar
    18    24    29   ar
    19    25    26   ar
    20    27    28   ar
    21    22    24    1
    22    10    11   ar
    23    12    15   ar
    24    13    14   ar
    25     1     8    2
    26    16    17   ar
    27    18    21   ar
    28    19    20   ar
    29    24    25   ar
    30    26    27   ar
    31    28    29   ar
    32    22    23    1
@<TRIPOS>MOLECULE
Molport-046-971-696 MCULE-6999629585 MCULE-7859326811 PubChem-110111646
 29 32 0 0 0
SMALL
GASTEIGER

@<TRIPOS>ATOM
      1 C          15.7650   40.8681    8.6644 C.2     1  UNL1        0.2505
      2 C          13.2837   41.2040    8.2800 C.3     1  UNL1        0.0937
      3 C          12.3859   41.0680    9.5064 C.3     1  UNL1        0.0219
      4 C          12.0186   39.6013    9.7244 C.3     1  UNL1        0.0078
      5 C          13.2820   38.7489    9.8746 C.3     1  UNL1        0.0424
      6 C          14.1892   38.9148    8.6541 C.3     1  UNL1        0.0980
      7 N          14.4481   40.3346    8.4315 N.am    1  UNL1       -0.2757
      8 O          16.5987   40.1818    9.3177 O.2     1  UNL1       -0.2699
      9 C          15.0471   44.8509    5.7024 C.3     1  UNL1        0.0327
     10 C          15.8549   44.1169    6.7106 C.ar    1  UNL1       -0.0025
     11 C          17.0536   44.6540    7.1805 C.ar    1  UNL1        0.0946
     12 C          17.3848   42.7685    8.5848 C.ar    1  UNL1        0.1033
     13 C          16.1825   42.1932    8.1498 C.ar    1  UNL1        0.0724
     14 C          15.4238   42.8819    7.1948 C.ar    1  UNL1        0.0034
     15 N          17.7890   43.9736    8.0996 N.ar    1  UNL1       -0.2425
     16 C          12.9377   37.3103   10.0953 C.ar    1  UNL1       -0.0165
     17 C          13.6793   36.3245    9.4405 C.ar    1  UNL1        0.0302
     18 C          13.3660   34.9773    9.6387 C.ar    1  UNL1        0.1329
     19 C          11.6028   35.5792   11.1181 C.ar    1  UNL1        0.1000
     20 C          11.8878   36.9342   10.9434 C.ar    1  UNL1        0.0166
     21 N          12.3399   34.6387   10.4691 N.ar    1  UNL1       -0.2291
     22 N          14.1354   33.9771    8.9605 N.pl3   1  UNL1       -0.2834
     23 H          13.6749   33.1351    8.7410 H       1  UNL1        0.1550
     24 C          15.5097   34.0834    8.5707 C.ar    1  UNL1        0.1332
     25 C          15.9982   33.2414    7.5680 C.ar    1  UNL1        0.0345
     26 C          17.3363   33.3381    7.1818 C.ar    1  UNL1        0.0045
     27 C          18.1719   34.2708    7.7976 C.ar    1  UNL1        0.0208
     28 C          17.6511   35.0964    8.7958 C.ar    1  UNL1        0.1003
     29 N          16.3445   34.9868    9.1579 N.ar    1  UNL1       -0.2290
@<TRIPOS>BOND
     1     9    10    1
     2    11    15   ar
     3    12    13   ar
     4    13     1    1
     5    14    10   ar
     6     1     7   am
     7     2     7    1
     8     2     3    1
     9     3     4    1
    10     4     5    1
    11     5     6    1
    12     5    16    1
    13     6     7    1
    14    17    18   ar
    15    18    22    1
    16    19    21   ar
    17    20    16   ar
    18    24    29   ar
    19    25    26   ar
    20    27    28   ar
    21    22    24    1
    22    10    11   ar
    23    12    15   ar
    24    13    14   ar
    25     1     8    2
    26    16    17   ar
    27    18    21   ar
    28    19    20   ar
    29    24    25   ar
    30    26    27   ar
    31    28    29   ar
    32    22    23    1
@<TRIPOS>MOLECULE
Molport-046-971-696 MCULE-6999629585 MCULE-7859326811 PubChem-110111646
 29 32 0 0 0
SMALL
GASTEIGER

@<TRIPOS>ATOM
      1 C          13.3170   42.6887    6.5881 C.2     1  UNL1        0.2505
      2 C          13.2651   40.9526    8.4324 C.3     1  UNL1        0.0937
      3 C          12.9003   39.5318    8.0121 C.3     1  UNL1        0.0219
      4 C          11.3818   39.3661    7.9950 C.3     1  UNL1        0.0078
      5 C          10.7408   40.3946    7.0588 C.3     1  UNL1        0.0424
      6 C          11.1362   41.8140    7.4701 C.3     1  UNL1        0.0980
      7 N          12.5910   41.9070    7.5551 N.am    1  UNL1       -0.2757
      8 O          12.7347   43.0489    5.5280 O.2     1  UNL1       -0.2699
      9 C          17.8630   41.9175    8.5606 C.3     1  UNL1        0.0327
     10 C          16.9223   42.7456    7.7625 C.ar    1  UNL1       -0.0025
     11 C          17.3418   43.9567    7.2119 C.ar    1  UNL1        0.0946
     12 C          15.1892   44.3132    6.2759 C.ar    1  UNL1        0.1033
     13 C          14.7246   43.0991    6.8010 C.ar    1  UNL1        0.0724
     14 C          15.6093   42.3211    7.5586 C.ar    1  UNL1        0.0034
     15 N          16.4732   44.7105    6.4867 N.ar    1  UNL1       -0.2425
     16 C           9.2535   40.2403    7.0268 C.ar    1  UNL1       -0.0165
     17 C           8.4764   40.9379    7.9541 C.ar    1  UNL1        0.0302
     18 C           7.0860   40.8007    7.9339 C.ar    1  UNL1        0.1329
     19 C           7.2362   39.2976    6.0960 C.ar    1  UNL1        0.1000
     20 C           8.6271   39.4108    6.0873 C.ar    1  UNL1        0.0166
     21 N           6.5021   39.9875    7.0094 N.ar    1  UNL1       -0.2291
     22 N           6.3018   41.5224    8.8912 N.pl3   1  UNL1       -0.2834
     23 H           6.3486   41.2161    9.8257 H       1  UNL1        0.1550
     24 C           5.4561   42.6465    8.6206 C.ar    1  UNL1        0.1332
     25 C           5.9522   43.6985    7.8458 C.ar    1  UNL1        0.0345
     26 C           5.1350   44.7980    7.5772 C.ar    1  UNL1        0.0045
     27 C           3.8347   44.8377    8.0824 C.ar    1  UNL1        0.0208
     28 C           3.3712   43.7697    8.8527 C.ar    1  UNL1        0.1003
     29 N           4.1829   42.7073    9.1034 N.ar    1  UNL1       -0.2290
@<TRIPOS>BOND
     1     9    10    1
     2    11    15   ar
     3    12    13   ar
     4    13     1    1
     5    14    10   ar
     6     1     7   am
     7     2     7    1
     8     2     3    1
     9     3     4    1
    10     4     5    1
    11     5     6    1
    12     5    16    1
    13     6     7    1
    14    17    18   ar
    15    18    22    1
    16    19    21   ar
    17    20    16   ar
    18    24    29   ar
    19    25    26   ar
    20    27    28   ar
    21    22    24    1
    22    10    11   ar
    23    12    15   ar
    24    13    14   ar
    25     1     8    2
    26    16    17   ar
    27    18    21   ar
    28    19    20   ar
    29    24    25   ar
    30    26    27   ar
    31    28    29   ar
    32    22    23    1
@<TRIPOS>MOLECULE
Molport-046-971-696 MCULE-6999629585 MCULE-7859326811 PubChem-110111646
 29 32 0 0 0
SMALL
GASTEIGER

@<TRIPOS>ATOM
      1 C          13.3554   41.6413    7.3993 C.2     1  UNL1        0.2505
      2 C          12.6733   40.1366    9.3198 C.3     1  UNL1        0.0937
      3 C          12.1009   38.7741    8.9397 C.3     1  UNL1        0.0219
      4 C          10.6011   38.8934    8.6748 C.3     1  UNL1        0.0078
      5 C          10.3312   39.9255    7.5761 C.3     1  UNL1        0.0424
      6 C          10.9343   41.2800    7.9527 C.3     1  UNL1        0.0980
      7 N          12.3474   41.1082    8.2783 N.am    1  UNL1       -0.2757
      8 O          13.0277   41.9970    6.2336 O.2     1  UNL1       -0.2699
      9 C          17.7690   44.0098    7.1506 C.3     1  UNL1        0.0327
     10 C          16.9101   42.9281    7.6980 C.ar    1  UNL1       -0.0025
     11 C          17.4282   42.0110    8.6127 C.ar    1  UNL1        0.0946
     12 C          15.3345   40.8975    8.7304 C.ar    1  UNL1        0.1033
     13 C          14.7666   41.8012    7.8212 C.ar    1  UNL1        0.0724
     14 C          15.5777   42.8174    7.3002 C.ar    1  UNL1        0.0034
     15 N          16.6365   41.0214    9.1052 N.ar    1  UNL1       -0.2425
     16 C           8.8663   40.0486    7.3011 C.ar    1  UNL1       -0.0165
     17 C           8.1229   41.0105    7.9886 C.ar    1  UNL1        0.0302
     18 C           6.7534   41.1338    7.7402 C.ar    1  UNL1        0.1329
     19 C           6.8581   39.3700    6.1472 C.ar    1  UNL1        0.1000
     20 C           8.2274   39.2189    6.3702 C.ar    1  UNL1        0.0166
     21 N           6.1568   40.3143    6.8295 N.ar    1  UNL1       -0.2291
     22 N           6.0037   42.1250    8.4529 N.pl3   1  UNL1       -0.2834
     23 H           6.1093   43.0586    8.1591 H       1  UNL1        0.1550
     24 C           5.1152   41.8892    9.5515 C.ar    1  UNL1        0.1332
     25 C           3.9464   42.6483    9.6545 C.ar    1  UNL1        0.0345
     26 C           3.0747   42.4254   10.7220 C.ar    1  UNL1        0.0045
     27 C           3.3764   41.4503   11.6738 C.ar    1  UNL1        0.0208
     28 C           4.5526   40.7102   11.5404 C.ar    1  UNL1        0.1003
     29 N           5.3889   40.9424   10.4931 N.ar    1  UNL1       -0.2290
@<TRIPOS>BOND
     1     9    10    1
     2    11    15   ar
     3    12    13   ar
     4    13     1    1
     5    14    10   ar
     6     1     7   am
     7     2     7    1
     8     2     3    1
     9     3     4    1
    10     4     5    1
    11     5     6    1
    12     5    16    1
    13     6     7    1
    14    17    18   ar
    15    18    22    1
    16    19    21   ar
    17    20    16   ar
    18    24    29   ar
    19    25    26   ar
    20    27    28   ar
    21    22    24    1
    22    10    11   ar
    23    12    15   ar
    24    13    14   ar
    25     1     8    2
    26    16    17   ar
    27    18    21   ar
    28    19    20   ar
    29    24    25   ar
    30    26    27   ar
    31    28    29   ar
    32    22    23    1
@<TRIPOS>MOLECULE
Molport-046-971-696 MCULE-6999629585 MCULE-7859326811 PubChem-110111646
 29 32 0 0 0
SMALL
GASTEIGER

@<TRIPOS>ATOM
      1 C           9.0275   41.1455    8.7994 C.2     1  UNL1        0.2505
      2 C           8.0008   43.0861    7.5354 C.3     1  UNL1        0.0937
      3 C           7.3955   44.2003    8.3843 C.3     1  UNL1        0.0219
      4 C           5.9549   43.8512    8.7537 C.3     1  UNL1        0.0078
      5 C           5.9005   42.5105    9.4919 C.3     1  UNL1        0.0424
      6 C           6.5362   41.4061    8.6455 C.3     1  UNL1        0.0980
      7 N           7.8795   41.8144    8.2446 N.am    1  UNL1       -0.2757
      8 O           8.8805   40.4186    9.8205 O.2     1  UNL1       -0.2699
      9 C          14.0203   40.8105    9.1335 C.3     1  UNL1        0.0327
     10 C          12.7938   41.1265    8.3568 C.ar    1  UNL1       -0.0025
     11 C          12.8896   41.5784    7.0405 C.ar    1  UNL1        0.0946
     12 C          10.5251   41.7294    6.8867 C.ar    1  UNL1        0.1033
     13 C          10.3781   41.2691    8.2029 C.ar    1  UNL1        0.0724
     14 C          11.5344   40.9770    8.9376 C.ar    1  UNL1        0.0034
     15 N          11.7623   41.8697    6.3383 N.ar    1  UNL1       -0.2425
     16 C           4.4960   42.1584    9.8659 C.ar    1  UNL1       -0.0165
     17 C           4.0504   42.4210   11.1632 C.ar    1  UNL1        0.0302
     18 C           2.7403   42.0955   11.5238 C.ar    1  UNL1        0.1329
     19 C           2.3197   41.2590    9.3368 C.ar    1  UNL1        0.1000
     20 C           3.6215   41.5708    8.9421 C.ar    1  UNL1        0.0166
     21 N           1.9103   41.5249   10.6059 N.ar    1  UNL1       -0.2291
     22 N           2.2973   42.3707   12.8581 N.pl3   1  UNL1       -0.2834
     23 H           2.9729   42.3123   13.5718 H       1  UNL1        0.1550
     24 C           0.9665   42.7227   13.2545 C.ar    1  UNL1        0.1332
     25 C           0.7559   43.9268   13.9318 C.ar    1  UNL1        0.0345
     26 C          -0.5378   44.2779   14.3220 C.ar    1  UNL1        0.0045
     27 C          -1.6057   43.4271   14.0338 C.ar    1  UNL1        0.0208
     28 C          -1.3597   42.2318   13.3557 C.ar    1  UNL1        0.1003
     29 N          -0.0920   41.9076   12.9840 N.ar    1  UNL1       -0.2290
@<TRIPOS>BOND
     1     9    10    1
     2    11    15   ar
     3    12    13   ar
     4    13     1    1
     5    14    10   ar
     6     1     7   am
     7     2     7    1
     8     2     3    1
     9     3     4    1
    10     4     5    1
    11     5     6    1
    12     5    16    1
    13     6     7    1
    14    17    18   ar
    15    18    22    1
    16    19    21   ar
    17    20    16   ar
    18    24    29   ar
    19    25    26   ar
    20    27    28   ar
    21    22    24    1
    22    10    11   ar
    23    12    15   ar
    24    13    14   ar
    25     1     8    2
    26    16    17   ar
    27    18    21   ar
    28    19    20   ar
    29    24    25   ar
    30    26    27   ar
    31    28    29   ar
    32    22    23    1
@<TRIPOS>MOLECULE
Molport-046-971-696 MCULE-6999629585 MCULE-7859326811 PubChem-110111646
 29 32 0 0 0
SMALL
GASTEIGER

@<TRIPOS>ATOM
      1 C           9.5699   41.3237   10.2855 C.2     1  UNL1        0.2505
      2 C          10.1617   39.7352    8.4030 C.3     1  UNL1        0.0937
      3 C          10.5777   38.3258    8.8143 C.3     1  UNL1        0.0219
      4 C          12.0715   38.2944    9.1326 C.3     1  UNL1        0.0078
      5 C          12.4067   39.3061   10.2323 C.3     1  UNL1        0.0424
      6 C          11.9593   40.7106    9.8233 C.3     1  UNL1        0.0980
      7 N          10.5485   40.6803    9.4479 N.am    1  UNL1       -0.2757
      8 O           9.8909   41.6574   11.4596 O.2     1  UNL1       -0.2699
      9 C           4.6234   41.6112   11.0609 C.3     1  UNL1        0.0327
     10 C           5.8035   41.7498   10.1689 C.ar    1  UNL1       -0.0025
     11 C           5.6409   42.1428    8.8403 C.ar    1  UNL1        0.0946
     12 C           7.9841   42.0103    8.4812 C.ar    1  UNL1        0.1033
     13 C           8.1984   41.6221    9.8113 C.ar    1  UNL1        0.0724
     14 C           7.0855   41.4853   10.6508 C.ar    1  UNL1        0.0034
     15 N           6.7258   42.2627    8.0296 N.ar    1  UNL1       -0.2425
     16 C          13.8659   39.2821   10.5593 C.ar    1  UNL1       -0.0165
     17 C          14.7565   39.9931    9.7520 C.ar    1  UNL1        0.0302
     18 C          16.1220   39.9771   10.0478 C.ar    1  UNL1        0.1329
     19 C          15.7248   38.5675   11.9226 C.ar    1  UNL1        0.1000
     20 C          14.3548   38.5611   11.6567 C.ar    1  UNL1        0.0166
     21 N          16.5711   39.2678   11.1212 N.ar    1  UNL1       -0.2291
     22 N          17.0237   40.7111    9.2108 N.pl3   1  UNL1       -0.2834
     23 H          17.9451   40.3707    9.1441 H       1  UNL1        0.1550
     24 C          16.7146   41.8922    8.4615 C.ar    1  UNL1        0.1332
     25 C          17.6323   42.9461    8.4460 C.ar    1  UNL1        0.0345
     26 C          17.3393   44.1009    7.7184 C.ar    1  UNL1        0.0045
     27 C          16.1374   44.1934    7.0154 C.ar    1  UNL1        0.0208
     28 C          15.2433   43.1218    7.0524 C.ar    1  UNL1        0.1003
     29 N          15.5471   42.0051    7.7672 N.ar    1  UNL1       -0.2290
@<TRIPOS>BOND
     1     9    10    1
     2    11    15   ar
     3    12    13   ar
     4    13     1    1
     5    14    10   ar
     6     1     7   am
     7     2     7    1
     8     2     3    1
     9     3     4    1
    10     4     5    1
    11     5     6    1
    12     5    16    1
    13     6     7    1
    14    17    18   ar
    15    18    22    1
    16    19    21   ar
    17    20    16   ar
    18    24    29   ar
    19    25    26   ar
    20    27    28   ar
    21    22    24    1
    22    10    11   ar
    23    12    15   ar
    24    13    14   ar
    25     1     8    2
    26    16    17   ar
    27    18    21   ar
    28    19    20   ar
    29    24    25   ar
    30    26    27   ar
    31    28    29   ar
    32    22    23    1
@<TRIPOS>MOLECULE
Molport-046-971-696 MCULE-6999629585 MCULE-7859326811 PubChem-110111646
 29 32 0 0 0
SMALL
GASTEIGER

@<TRIPOS>ATOM
      1 C          12.5393   39.5841   10.2836 C.2     1  UNL1        0.2505
      2 C          13.0408   39.6680    7.8018 C.3     1  UNL1        0.0937
      3 C          12.5954   40.9279    7.0652 C.3     1  UNL1        0.0219
      4 C          11.1372   40.7909    6.6310 C.3     1  UNL1        0.0078
      5 C          10.2403   40.5201    7.8424 C.3     1  UNL1        0.0424
      6 C          10.7125   39.2725    8.5912 C.3     1  UNL1        0.0980
      7 N          12.1300   39.4082    8.9144 N.am    1  UNL1       -0.2757
      8 O          11.6746   39.8993   11.1472 O.2     1  UNL1       -0.2699
      9 C          17.4638   40.3005    9.6607 C.3     1  UNL1        0.0327
     10 C          16.3267   39.7191   10.4200 C.ar    1  UNL1       -0.0025
     11 C          16.5599   38.9480   11.5589 C.ar    1  UNL1        0.0946
     12 C          14.2272   38.6173   11.8516 C.ar    1  UNL1        0.1033
     13 C          13.9426   39.3933   10.7190 C.ar    1  UNL1        0.0724
     14 C          15.0146   39.9364    9.9994 C.ar    1  UNL1        0.0034
     15 N          15.5138   38.4159   12.2452 N.ar    1  UNL1       -0.2425
     16 C           8.8077   40.3899    7.4333 C.ar    1  UNL1       -0.0165
     17 C           7.8583   41.2457    7.9961 C.ar    1  UNL1        0.0302
     18 C           6.5168   41.1324    7.6218 C.ar    1  UNL1        0.1329
     19 C           7.0531   39.3430    6.1487 C.ar    1  UNL1        0.1000
     20 C           8.4012   39.4277    6.4994 C.ar    1  UNL1        0.0166
     21 N           6.1484   40.1880    6.7112 N.ar    1  UNL1       -0.2291
     22 N           5.5542   42.0171    8.2074 N.pl3   1  UNL1       -0.2834
     23 H           5.3790   42.8611    7.7319 H       1  UNL1        0.1550
     24 C           4.8218   41.7927    9.4179 C.ar    1  UNL1        0.1332
     25 C           3.5649   42.3842    9.5707 C.ar    1  UNL1        0.0345
     26 C           2.8442   42.1709   10.7471 C.ar    1  UNL1        0.0045
     27 C           3.3823   41.3721   11.7570 C.ar    1  UNL1        0.0208
     28 C           4.6406   40.7965   11.5714 C.ar    1  UNL1        0.1003
     29 N           5.3272   41.0164   10.4178 N.ar    1  UNL1       -0.2290
@<TRIPOS>BOND
     1     9    10    1
     2    11    15   ar
     3    12    13   ar
     4    13     1    1
     5    14    10   ar
     6     1     7   am
     7     2     7    1
     8     2     3    1
     9     3     4    1
    10     4     5    1
    11     5     6    1
    12     5    16    1
    13     6     7    1
    14    17    18   ar
    15    18    22    1
    16    19    21   ar
    17    20    16   ar
    18    24    29   ar
    19    25    26   ar
    20    27    28   ar
    21    22    24    1
    22    10    11   ar
    23    12    15   ar
    24    13    14   ar
    25     1     8    2
    26    16    17   ar
    27    18    21   ar
    28    19    20   ar
    29    24    25   ar
    30    26    27   ar
    31    28    29   ar
    32    22    23    1
