@<TRIPOS>MOLECULE
MolPort-008-385-367 16622831 CHEMBL4952988 CSSS00160349970 MCULE-4295273166 PubChem-27241852 ZINC000016622831 ZINC16622831
 20 21 0 0 0
SMALL
GASTEIGER

@<TRIPOS>ATOM
      1 C          12.8369   42.2328    7.0887 C.ar    1  UNL1        0.1664
      2 C          11.0775   42.0017    8.4577 C.ar    1  UNL1        0.0860
      3 C          10.3638   42.0298    9.7642 C.3     1  UNL1        0.0541
      4 C          10.4824   41.6202    7.2571 C.ar    1  UNL1        0.1676
      5 N          12.3891   42.3445    8.3596 N.ar    1  UNL1       -0.2269
      6 S          11.6380   41.7036    6.0363 S.2     1  UNL1       -0.0319
      7 C          16.0080   43.8652    5.5899 C.3     1  UNL1        0.0950
      8 C          14.5776   43.6862    5.9496 C.2     1  UNL1        0.2280
      9 O          13.7384   44.5601    5.6056 O.2     1  UNL1       -0.2747
     10 N          14.1772   42.5234    6.6812 N.am    1  UNL1       -0.2641
     11 H          14.8770   41.8743    6.9224 H       1  UNL1        0.1567
     12 O           8.5567   40.9417    5.5584 O.2     1  UNL1       -0.1522
     13 O           8.6189   39.7621    7.7112 O.2     1  UNL1       -0.1522
     14 S           8.8210   41.0887    7.0309 S.O2    1  UNL1        0.0702
     15 C           7.2228   43.0825    6.5965 C.3     1  UNL1        0.0958
     16 C           6.0291   43.9618    7.0082 C.3     1  UNL1        0.0192
     17 C           5.7998   43.9420    8.5181 C.3     1  UNL1        0.0030
     18 C           5.6692   42.5062    9.0340 C.3     1  UNL1        0.0192
     19 C           6.6099   41.5390    8.3053 C.3     1  UNL1        0.0958
     20 N           7.7307   42.2608    7.7023 N.3     1  UNL1       -0.1550
@<TRIPOS>BOND
     1     7     8    1
     2     8    10   am
     3     1     6   ar
     4     2     5   ar
     5     3     2    1
     6     4     6   ar
     7    15    20    1
     8    15    16    1
     9    16    17    1
    10    17    18    1
    11    18    19    1
    12    19    20    1
    13    10     1    1
    14    14     4    1
    15    14    20    1
    16     8     9    2
    17     1     5   ar
    18     2     4   ar
    19    14    12    2
    20    14    13    2
    21    10    11    1
@<TRIPOS>MOLECULE
MolPort-008-385-367 16622831 CHEMBL4952988 CSSS00160349970 MCULE-4295273166 PubChem-27241852 ZINC000016622831 ZINC16622831
 20 21 0 0 0
SMALL
GASTEIGER

@<TRIPOS>ATOM
      1 C          16.4721   41.3257    8.5937 C.ar    1  UNL1        0.1664
      2 C          17.1824   39.8358   10.1098 C.ar    1  UNL1        0.0860
      3 C          18.1947   39.1072   10.9231 C.3     1  UNL1        0.0541
      4 C          15.8139   39.5802   10.1645 C.ar    1  UNL1        0.1676
      5 N          17.5452   40.8107    9.2350 N.ar    1  UNL1       -0.2269
      6 S          15.0348   40.5988    9.0745 S.2     1  UNL1       -0.0319
      7 C          17.0126   44.6858    6.7538 C.3     1  UNL1        0.0950
      8 C          16.9851   43.7026    7.8675 C.2     1  UNL1        0.2280
      9 O          17.3491   44.0605    9.0188 O.2     1  UNL1       -0.2747
     10 N          16.5452   42.3649    7.6130 N.am    1  UNL1       -0.2641
     11 H          16.2721   42.1428    6.6936 H       1  UNL1        0.1567
     12 O          15.5796   37.0189   10.8273 O.2     1  UNL1       -0.1522
     13 O          15.2478   38.6731   12.6115 O.2     1  UNL1       -0.1522
     14 S          15.0104   38.3706   11.1570 S.O2    1  UNL1        0.0702
     15 C          12.8314   39.7611   10.9655 C.3     1  UNL1        0.0958
     16 C          11.4073   39.9581   10.4170 C.3     1  UNL1        0.0192
     17 C          10.7403   38.6285   10.0707 C.3     1  UNL1        0.0030
     18 C          11.6184   37.8045    9.1249 C.3     1  UNL1        0.0192
     19 C          13.1111   37.9474    9.4453 C.3     1  UNL1        0.0958
     20 N          13.3055   38.3780   10.8302 N.3     1  UNL1       -0.1550
@<TRIPOS>BOND
     1     7     8    1
     2     8    10   am
     3     1     6   ar
     4     2     5   ar
     5     3     2    1
     6     4     6   ar
     7    15    20    1
     8    15    16    1
     9    16    17    1
    10    17    18    1
    11    18    19    1
    12    19    20    1
    13    10     1    1
    14    14     4    1
    15    14    20    1
    16     8     9    2
    17     1     5   ar
    18     2     4   ar
    19    14    12    2
    20    14    13    2
    21    10    11    1
@<TRIPOS>MOLECULE
MolPort-008-385-367 16622831 CHEMBL4952988 CSSS00160349970 MCULE-4295273166 PubChem-27241852 ZINC000016622831 ZINC16622831
 20 21 0 0 0
SMALL
GASTEIGER

@<TRIPOS>ATOM
      1 C          11.0256   38.5612    8.8829 C.ar    1  UNL1        0.1664
      2 C          12.1540   36.8542    9.7973 C.ar    1  UNL1        0.0860
      3 C          12.3042   35.5387   10.4781 C.3     1  UNL1        0.0541
      4 C          13.2255   37.6733    9.4478 C.ar    1  UNL1        0.1676
      5 N          10.9297   37.3513    9.4789 N.ar    1  UNL1       -0.2269
      6 S          12.6203   39.0691    8.7281 S.2     1  UNL1       -0.0319
      7 C           7.8885   39.8448    7.0179 C.3     1  UNL1        0.0950
      8 C           9.0202   38.9518    7.3776 C.2     1  UNL1        0.2280
      9 O           9.1864   37.8764    6.7435 O.2     1  UNL1       -0.2747
     10 N           9.9028   39.3288    8.4390 N.am    1  UNL1       -0.2641
     11 H           9.7238   40.1809    8.8986 H       1  UNL1        0.1567
     12 O          15.7303   38.5406    9.2798 O.2     1  UNL1       -0.1522
     13 O          15.1576   37.1367   11.2114 O.2     1  UNL1       -0.1522
     14 S          14.9304   37.3540    9.7402 S.O2    1  UNL1        0.0702
     15 C          15.1954   36.2044    7.4323 C.3     1  UNL1        0.0958
     16 C          15.8615   35.1589    6.5208 C.3     1  UNL1        0.0192
     17 C          16.4099   33.9757    7.3157 C.3     1  UNL1        0.0030
     18 C          17.3427   34.4510    8.4330 C.3     1  UNL1        0.0192
     19 C          16.8599   35.7559    9.0774 C.3     1  UNL1        0.0958
     20 N          15.4252   35.9428    8.8587 N.3     1  UNL1       -0.1550
@<TRIPOS>BOND
     1     7     8    1
     2     8    10   am
     3     1     6   ar
     4     2     5   ar
     5     3     2    1
     6     4     6   ar
     7    15    20    1
     8    15    16    1
     9    16    17    1
    10    17    18    1
    11    18    19    1
    12    19    20    1
    13    10     1    1
    14    14     4    1
    15    14    20    1
    16     8     9    2
    17     1     5   ar
    18     2     4   ar
    19    14    12    2
    20    14    13    2
    21    10    11    1
@<TRIPOS>MOLECULE
MolPort-008-385-367 16622831 CHEMBL4952988 CSSS00160349970 MCULE-4295273166 PubChem-27241852 ZINC000016622831 ZINC16622831
 20 21 0 0 0
SMALL
GASTEIGER

@<TRIPOS>ATOM
      1 C          15.2286   41.5649    8.2667 C.ar    1  UNL1        0.1664
      2 C          13.6427   40.4641    9.4052 C.ar    1  UNL1        0.0860
      3 C          13.1046   39.6192   10.5068 C.3     1  UNL1        0.0541
      4 C          12.8705   40.9490    8.3518 C.ar    1  UNL1        0.1676
      5 N          14.9559   40.8112    9.3556 N.ar    1  UNL1       -0.2269
      6 S          13.8656   41.8302    7.3195 S.2     1  UNL1       -0.0319
      7 C          18.1957   43.8061    7.1986 C.3     1  UNL1        0.0950
      8 C          16.7958   43.4054    7.4944 C.2     1  UNL1        0.2280
      9 O          15.8667   44.2418    7.3417 O.2     1  UNL1       -0.2747
     10 N          16.5266   42.0752    7.9479 N.am    1  UNL1       -0.2641
     11 H          17.2927   41.4649    8.0482 H       1  UNL1        0.1567
     12 O          10.6303   39.8080    9.2085 O.2     1  UNL1       -0.1522
     13 O          10.4215   41.9783    8.0788 O.2     1  UNL1       -0.1522
     14 S          11.1546   40.6645    8.0899 S.O2    1  UNL1        0.0702
     15 C           9.6433   39.1237    6.6545 C.3     1  UNL1        0.0958
     16 C           9.1687   38.6040    5.2862 C.3     1  UNL1        0.0192
     17 C          10.2401   38.7689    4.2103 C.3     1  UNL1        0.0030
     18 C          10.7313   40.2176    4.1432 C.3     1  UNL1        0.0192
     19 C          10.8126   40.8686    5.5291 C.3     1  UNL1        0.0958
     20 N          10.9165   39.8508    6.5751 N.3     1  UNL1       -0.1550
@<TRIPOS>BOND
     1     7     8    1
     2     8    10   am
     3     1     6   ar
     4     2     5   ar
     5     3     2    1
     6     4     6   ar
     7    15    20    1
     8    15    16    1
     9    16    17    1
    10    17    18    1
    11    18    19    1
    12    19    20    1
    13    10     1    1
    14    14     4    1
    15    14    20    1
    16     8     9    2
    17     1     5   ar
    18     2     4   ar
    19    14    12    2
    20    14    13    2
    21    10    11    1
@<TRIPOS>MOLECULE
MolPort-008-385-367 16622831 CHEMBL4952988 CSSS00160349970 MCULE-4295273166 PubChem-27241852 ZINC000016622831 ZINC16622831
 20 21 0 0 0
SMALL
GASTEIGER

@<TRIPOS>ATOM
      1 C          12.4576   41.8496    6.8850 C.ar    1  UNL1        0.1664
      2 C          10.6819   41.2434    8.1107 C.ar    1  UNL1        0.0860
      3 C           9.9402   40.9447    9.3668 C.3     1  UNL1        0.0541
      4 C          10.1302   41.1229    6.8371 C.ar    1  UNL1        0.1676
      5 N          11.9784   41.6507    8.1336 N.ar    1  UNL1       -0.2269
      6 S          11.3063   41.5278    5.7034 S.2     1  UNL1       -0.0319
      7 C          15.5646   43.8092    5.6711 C.3     1  UNL1        0.0950
      8 C          14.1339   43.4836    5.9054 C.2     1  UNL1        0.2280
      9 O          13.2435   44.2731    5.4932 O.2     1  UNL1       -0.2747
     10 N          13.7917   42.2778    6.5957 N.am    1  UNL1       -0.2641
     11 H          14.5301   41.6992    6.8943 H       1  UNL1        0.1567
     12 O           8.3944   40.4138    4.9559 O.2     1  UNL1       -0.1522
     13 O           8.2179   39.2816    7.1278 O.2     1  UNL1       -0.1522
     14 S           8.4997   40.5922    6.4448 S.O2    1  UNL1        0.0702
     15 C           6.5639   41.1929    8.0605 C.3     1  UNL1        0.0958
     16 C           5.7149   42.2334    8.8117 C.3     1  UNL1        0.0192
     17 C           5.7157   43.5876    8.1054 C.3     1  UNL1        0.0030
     18 C           7.1455   44.0751    7.8560 C.3     1  UNL1        0.0192
     19 C           8.0958   42.9277    7.4929 C.3     1  UNL1        0.0958
     20 N           7.3503   41.7826    6.9697 N.3     1  UNL1       -0.1550
@<TRIPOS>BOND
     1     7     8    1
     2     8    10   am
     3     1     6   ar
     4     2     5   ar
     5     3     2    1
     6     4     6   ar
     7    15    20    1
     8    15    16    1
     9    16    17    1
    10    17    18    1
    11    18    19    1
    12    19    20    1
    13    10     1    1
    14    14     4    1
    15    14    20    1
    16     8     9    2
    17     1     5   ar
    18     2     4   ar
    19    14    12    2
    20    14    13    2
    21    10    11    1
@<TRIPOS>MOLECULE
MolPort-008-385-367 16622831 CHEMBL4952988 CSSS00160349970 MCULE-4295273166 PubChem-27241852 ZINC000016622831 ZINC16622831
 20 21 0 0 0
SMALL
GASTEIGER

@<TRIPOS>ATOM
      1 C           6.6924   41.8122   11.0858 C.ar    1  UNL1        0.1664
      2 C           8.8036   41.4275   11.7322 C.ar    1  UNL1        0.0860
      3 C           9.9027   41.2119   12.7131 C.3     1  UNL1        0.0541
      4 C           8.9912   41.4600   10.3520 C.ar    1  UNL1        0.1676
      5 N           7.5208   41.6220   12.1373 N.ar    1  UNL1       -0.2269
      6 S           7.5062   41.7531    9.6163 S.2     1  UNL1       -0.0319
      7 C           2.8612   41.8507   10.5493 C.3     1  UNL1        0.0950
      8 C           4.2926   41.5325   10.3094 C.2     1  UNL1        0.2280
      9 O           4.6112   40.8172    9.3230 O.2     1  UNL1       -0.2747
     10 N           5.2855   42.0443   11.2037 N.am    1  UNL1       -0.2641
     11 H           4.9773   42.5981   11.9571 H       1  UNL1        0.1567
     12 O          10.2290   41.0797    8.0331 O.2     1  UNL1       -0.1522
     13 O          11.3484   42.5187    9.6781 O.2     1  UNL1       -0.1522
     14 S          10.5166   41.2785    9.4951 S.O2    1  UNL1        0.0702
     15 C          11.4334   38.8970    9.0411 C.3     1  UNL1        0.0958
     16 C          12.4175   37.7550    9.3493 C.3     1  UNL1        0.0192
     17 C          12.9320   37.8173   10.7860 C.3     1  UNL1        0.0030
     18 C          13.5244   39.1946   11.0969 C.3     1  UNL1        0.0192
     19 C          12.7412   40.3292   10.4257 C.3     1  UNL1        0.0958
     20 N          11.3777   39.9024   10.1098 N.3     1  UNL1       -0.1550
@<TRIPOS>BOND
     1     7     8    1
     2     8    10   am
     3     1     6   ar
     4     2     5   ar
     5     3     2    1
     6     4     6   ar
     7    15    20    1
     8    15    16    1
     9    16    17    1
    10    17    18    1
    11    18    19    1
    12    19    20    1
    13    10     1    1
    14    14     4    1
    15    14    20    1
    16     8     9    2
    17     1     5   ar
    18     2     4   ar
    19    14    12    2
    20    14    13    2
    21    10    11    1
@<TRIPOS>MOLECULE
MolPort-008-385-367 16622831 CHEMBL4952988 CSSS00160349970 MCULE-4295273166 PubChem-27241852 ZINC000016622831 ZINC16622831
 20 21 0 0 0
SMALL
GASTEIGER

@<TRIPOS>ATOM
      1 C           9.3650   41.6618    6.8775 C.ar    1  UNL1        0.1664
      2 C           8.7427   42.7932    8.7093 C.ar    1  UNL1        0.0860
      3 C           8.8961   43.3236   10.0921 C.3     1  UNL1        0.0541
      4 C           7.6108   42.9952    7.9225 C.ar    1  UNL1        0.1676
      5 N           9.7190   42.0516    8.1229 N.ar    1  UNL1       -0.2269
      6 S           7.8347   42.2107    6.4505 S.2     1  UNL1       -0.0319
      7 C          10.6768   39.2444    4.1567 C.3     1  UNL1        0.0950
      8 C           9.7070   40.0157    4.9766 C.2     1  UNL1        0.2280
      9 O           8.4743   39.9083    4.7420 O.2     1  UNL1       -0.2747
     10 N          10.1901   40.8681    6.0195 N.am    1  UNL1       -0.2641
     11 H          11.1640   40.9116    6.1571 H       1  UNL1        0.1567
     12 O           6.5541   45.2294    8.8953 O.2     1  UNL1       -0.1522
     13 O           5.2671   44.0364    7.1776 O.2     1  UNL1       -0.1522
     14 S           6.1574   43.8742    8.3795 S.O2    1  UNL1        0.0702
     15 C           3.8720   43.1241    9.3453 C.3     1  UNL1        0.0958
     16 C           3.0228   42.1608   10.1930 C.3     1  UNL1        0.0192
     17 C           3.8504   41.4741   11.2775 C.3     1  UNL1        0.0030
     18 C           5.0808   40.7888   10.6766 C.3     1  UNL1        0.0192
     19 C           5.6924   41.5970    9.5260 C.3     1  UNL1        0.0958
     20 N           5.3094   43.0060    9.6208 N.3     1  UNL1       -0.1550
@<TRIPOS>BOND
     1     7     8    1
     2     8    10   am
     3     1     6   ar
     4     2     5   ar
     5     3     2    1
     6     4     6   ar
     7    15    20    1
     8    15    16    1
     9    16    17    1
    10    17    18    1
    11    18    19    1
    12    19    20    1
    13    10     1    1
    14    14     4    1
    15    14    20    1
    16     8     9    2
    17     1     5   ar
    18     2     4   ar
    19    14    12    2
    20    14    13    2
    21    10    11    1
@<TRIPOS>MOLECULE
MolPort-008-385-367 16622831 CHEMBL4952988 CSSS00160349970 MCULE-4295273166 PubChem-27241852 ZINC000016622831 ZINC16622831
 20 21 0 0 0
SMALL
GASTEIGER

@<TRIPOS>ATOM
      1 C          14.9443   41.8698    7.7739 C.ar    1  UNL1        0.1664
      2 C          15.0880   40.3396    9.4052 C.ar    1  UNL1        0.0860
      3 C          15.7896   39.4248   10.3473 C.3     1  UNL1        0.0541
      4 C          13.7018   40.4479    9.3171 C.ar    1  UNL1        0.1676
      5 N          15.7772   41.1352    8.5452 N.ar    1  UNL1       -0.2269
      6 S          13.3270   41.5663    8.1166 S.2     1  UNL1       -0.0319
      7 C          16.5933   44.8182    5.8884 C.3     1  UNL1        0.0950
      8 C          16.2104   43.9363    7.0213 C.2     1  UNL1        0.2280
      9 O          16.6199   44.2054    8.1815 O.2     1  UNL1       -0.2747
     10 N          15.3825   42.7955    6.7749 N.am    1  UNL1       -0.2641
     11 H          15.0924   42.6356    5.8478 H       1  UNL1        0.1567
     12 O          12.5502   38.1075    9.8181 O.2     1  UNL1       -0.1522
     13 O          12.8554   39.6354   11.7160 O.2     1  UNL1       -0.1522
     14 S          12.5165   39.5461   10.2530 S.O2    1  UNL1        0.0702
     15 C          10.9874   41.6390   10.2570 C.3     1  UNL1        0.0958
     16 C           9.7331   42.3872    9.7728 C.3     1  UNL1        0.0192
     17 C           8.6327   41.4269    9.3261 C.3     1  UNL1        0.0030
     18 C           9.1586   40.4380    8.2821 C.3     1  UNL1        0.0192
     19 C          10.6007   40.0025    8.5685 C.3     1  UNL1        0.0958
     20 N          10.9309   40.1980    9.9805 N.3     1  UNL1       -0.1550
@<TRIPOS>BOND
     1     7     8    1
     2     8    10   am
     3     1     6   ar
     4     2     5   ar
     5     3     2    1
     6     4     6   ar
     7    15    20    1
     8    15    16    1
     9    16    17    1
    10    17    18    1
    11    18    19    1
    12    19    20    1
    13    10     1    1
    14    14     4    1
    15    14    20    1
    16     8     9    2
    17     1     5   ar
    18     2     4   ar
    19    14    12    2
    20    14    13    2
    21    10    11    1
@<TRIPOS>MOLECULE
MolPort-008-385-367 16622831 CHEMBL4952988 CSSS00160349970 MCULE-4295273166 PubChem-27241852 ZINC000016622831 ZINC16622831
 20 21 0 0 0
SMALL
GASTEIGER

@<TRIPOS>ATOM
      1 C          15.2836   39.8023    9.1122 C.ar    1  UNL1        0.1664
      2 C          14.6327   41.6323    7.9941 C.ar    1  UNL1        0.0860
      3 C          14.8258   42.9235    7.2781 C.3     1  UNL1        0.0541
      4 C          13.3872   41.0517    8.2237 C.ar    1  UNL1        0.1676
      5 N          15.6874   40.9321    8.4888 N.ar    1  UNL1       -0.2269
      6 S          13.6127   39.6225    9.0833 S.2     1  UNL1       -0.0319
      7 C          17.0685   37.4482   11.6102 C.3     1  UNL1        0.0950
      8 C          16.0786   38.4274   11.0915 C.2     1  UNL1        0.2280
      9 O          15.1733   38.8564   11.8547 O.2     1  UNL1       -0.2747
     10 N          16.1707   38.8669    9.7328 N.am    1  UNL1       -0.2641
     11 H          16.8995   38.4976    9.1836 H       1  UNL1        0.1567
     12 O          11.3958   42.7221    8.7698 O.2     1  UNL1       -0.1522
     13 O          11.9350   42.3573    6.4021 O.2     1  UNL1       -0.1522
     14 S          11.8225   41.7019    7.7516 S.O2    1  UNL1        0.0702
     15 C          10.3752   40.1451    6.2682 C.3     1  UNL1        0.0958
     16 C           9.5818   38.8430    6.0613 C.3     1  UNL1        0.0192
     17 C           9.0731   38.2689    7.3820 C.3     1  UNL1        0.0030
     18 C          10.2188   38.0984    8.3833 C.3     1  UNL1        0.0192
     19 C          11.2457   39.2334    8.2905 C.3     1  UNL1        0.0958
     20 N          10.6496   40.4239    7.6835 N.3     1  UNL1       -0.1550
@<TRIPOS>BOND
     1     7     8    1
     2     8    10   am
     3     1     6   ar
     4     2     5   ar
     5     3     2    1
     6     4     6   ar
     7    15    20    1
     8    15    16    1
     9    16    17    1
    10    17    18    1
    11    18    19    1
    12    19    20    1
    13    10     1    1
    14    14     4    1
    15    14    20    1
    16     8     9    2
    17     1     5   ar
    18     2     4   ar
    19    14    12    2
    20    14    13    2
    21    10    11    1
@<TRIPOS>MOLECULE
MolPort-008-385-367 16622831 CHEMBL4952988 CSSS00160349970 MCULE-4295273166 PubChem-27241852 ZINC000016622831 ZINC16622831
 20 21 0 0 0
SMALL
GASTEIGER

@<TRIPOS>ATOM
      1 C          14.5158   42.1536    7.3365 C.ar    1  UNL1        0.1664
      2 C          13.3597   40.7475    8.6438 C.ar    1  UNL1        0.0860
      3 C          13.1750   39.7645    9.7468 C.3     1  UNL1        0.0541
      4 C          12.3356   41.1616    7.7948 C.ar    1  UNL1        0.1676
      5 N          14.5727   41.3040    8.3869 N.ar    1  UNL1       -0.2269
      6 S          12.9716   42.2501    6.6798 S.2     1  UNL1       -0.0319
      7 C          17.9438   43.8948    6.9075 C.3     1  UNL1        0.0950
      8 C          16.8534   43.1177    7.5514 C.2     1  UNL1        0.2280
      9 O          17.0142   42.6759    8.7198 O.2     1  UNL1       -0.2747
     10 N          15.6381   42.8841    6.8329 N.am    1  UNL1       -0.2641
     11 H          15.5692   43.2541    5.9232 H       1  UNL1        0.1567
     12 O           9.9637   41.1391    6.5998 O.2     1  UNL1       -0.1522
     13 O          10.6192   39.1161    7.8277 O.2     1  UNL1       -0.1522
     14 S          10.6624   40.6199    7.8254 S.O2    1  UNL1        0.0702
     15 C          10.4245   42.5591    9.5287 C.3     1  UNL1        0.0958
     16 C           9.6082   43.3313   10.5799 C.3     1  UNL1        0.0192
     17 C           8.5534   42.4488   11.2441 C.3     1  UNL1        0.0030
     18 C           7.6626   41.7759   10.1961 C.3     1  UNL1        0.0192
     19 C           8.4468   41.3654    8.9440 C.3     1  UNL1        0.0958
     20 N           9.8719   41.2284    9.2460 N.3     1  UNL1       -0.1550
@<TRIPOS>BOND
     1     7     8    1
     2     8    10   am
     3     1     6   ar
     4     2     5   ar
     5     3     2    1
     6     4     6   ar
     7    15    20    1
     8    15    16    1
     9    16    17    1
    10    17    18    1
    11    18    19    1
    12    19    20    1
    13    10     1    1
    14    14     4    1
    15    14    20    1
    16     8     9    2
    17     1     5   ar
    18     2     4   ar
    19    14    12    2
    20    14    13    2
    21    10    11    1
