@<TRIPOS>MOLECULE
MolPort-003-130-875 4496121 CHEMBL1334056 CSSS03437124622 ChemDiv-G856-7157 MCULE-8146897159 PubChem-7254204 ZINC000004496121
 27 29 0 0 0
SMALL
GASTEIGER

@<TRIPOS>ATOM
      1 C          11.4696   41.1573    6.1317 C.2     1  UNL1        0.2520
      2 N          12.0022   42.4851    6.1629 N.am    1  UNL1       -0.2627
      3 O          12.2232   40.1547    6.0187 O.2     1  UNL1       -0.2728
      4 H          11.3856   43.2215    5.9463 H       1  UNL1        0.1568
      5 C          13.3521   42.8364    6.4812 C.ar    1  UNL1        0.1657
      6 C          15.6255   43.6882    6.6091 C.ar    1  UNL1        0.0527
      7 C          15.3763   42.5681    7.3888 C.ar    1  UNL1        0.1230
      8 C          16.3928   42.0063    8.1671 C.ar    1  UNL1        0.1566
      9 C          17.6673   42.6107    8.1355 C.ar    1  UNL1        0.0385
     10 C          17.9042   43.7476    7.3402 C.ar    1  UNL1        0.0037
     11 C          16.8750   44.2989    6.5627 C.ar    1  UNL1        0.0083
     12 N          14.1093   42.0851    7.3154 N.ar    1  UNL1       -0.2209
     13 S          14.2285   44.1123    5.7840 S.2     1  UNL1       -0.0513
     14 O          16.1308   40.8709    8.9435 O.3     1  UNL1       -0.4739
     15 C          17.0732   40.3156    9.8540 C.3     1  UNL1        0.2056
     16 C          16.3811   39.3522   10.7999 C.3     1  UNL1        0.0512
     17 C          10.0028   40.9625    6.2953 C.3     1  UNL1        0.2405
     18 O           9.7382   42.3835    8.5651 O.2     1  UNL1       -0.1682
     19 O           8.1381   40.5746    8.1890 O.2     1  UNL1       -0.1682
     20 S           9.5737   40.9897    8.0280 S.O2    1  UNL1        0.0176
     21 C          10.6098   39.8894    8.9248 C.ar    1  UNL1        0.1062
     22 C          10.5148   38.5083    8.7161 C.ar    1  UNL1        0.0180
     23 C          11.3922   37.6379    9.3690 C.ar    1  UNL1       -0.0029
     24 C          12.3706   38.1470   10.2278 C.ar    1  UNL1       -0.0218
     25 C          12.4688   39.5259   10.4370 C.ar    1  UNL1       -0.0029
     26 C          11.5914   40.3967    9.7837 C.ar    1  UNL1        0.0180
     27 C          13.3095   37.2225   10.9146 C.3     1  UNL1        0.0310
@<TRIPOS>BOND
     1     5     2    1
     2     5    13   ar
     3    17     1    1
     4    17    20    1
     5    22    23   ar
     6    24    25   ar
     7    26    21   ar
     8    27    24    1
     9     6    13   ar
    10     7     8   ar
    11     7    12   ar
    12     8    14    1
    13     9    10   ar
    14    11     6   ar
    15    15    14    1
    16    15    16    1
    17     2     1   am
    18    20    21    1
    19     5    12   ar
    20     1     3    2
    21    21    22   ar
    22    23    24   ar
    23    25    26   ar
    24     6     7   ar
    25     8     9   ar
    26    10    11   ar
    27    20    18    2
    28    20    19    2
    29     2     4    1
@<TRIPOS>MOLECULE
MolPort-003-130-875 4496121 CHEMBL1334056 CSSS03437124622 ChemDiv-G856-7157 MCULE-8146897159 PubChem-7254204 ZINC000004496121
 27 29 0 0 0
SMALL
GASTEIGER

@<TRIPOS>ATOM
      1 C          11.3487   41.2781    6.3875 C.2     1  UNL1        0.2520
      2 N          12.1546   42.4290    6.1162 N.am    1  UNL1       -0.2627
      3 O          11.8585   40.2135    6.8263 O.2     1  UNL1       -0.2728
      4 H          11.7807   43.1055    5.5064 H       1  UNL1        0.1568
      5 C          13.4562   42.6827    6.6533 C.ar    1  UNL1        0.1657
      6 C          15.7014   43.4354    7.2036 C.ar    1  UNL1        0.0527
      7 C          15.3479   42.2073    7.7435 C.ar    1  UNL1        0.1230
      8 C          16.2542   41.4933    8.5331 C.ar    1  UNL1        0.1566
      9 C          17.5269   42.0577    8.7623 C.ar    1  UNL1        0.0385
     10 C          17.8702   43.3054    8.2086 C.ar    1  UNL1        0.0037
     11 C          16.9512   44.0092    7.4163 C.ar    1  UNL1        0.0083
     12 N          14.0968   41.7801    7.4334 N.ar    1  UNL1       -0.2209
     13 S          14.4227   44.0325    6.2979 S.2     1  UNL1       -0.0513
     14 O          15.8883   40.2512    9.0657 O.3     1  UNL1       -0.4739
     15 C          14.7758   40.0739    9.9355 C.3     1  UNL1        0.2056
     16 C          15.0785   38.9948   10.9581 C.3     1  UNL1        0.0512
     17 C           9.8744   41.3674    6.2008 C.3     1  UNL1        0.2405
     18 O           8.6927   39.7913    8.0339 O.2     1  UNL1       -0.1682
     19 O           9.9784   41.6970    8.8643 O.2     1  UNL1       -0.1682
     20 S           9.0506   41.2282    7.7785 S.O2    1  UNL1        0.0176
     21 C           7.5910   42.2068    7.7869 C.ar    1  UNL1        0.1062
     22 C           6.6893   42.1138    8.8538 C.ar    1  UNL1        0.0180
     23 C           5.5693   42.9487    8.9009 C.ar    1  UNL1       -0.0029
     24 C           5.3513   43.8828    7.8840 C.ar    1  UNL1       -0.0218
     25 C           6.2509   43.9789    6.8181 C.ar    1  UNL1       -0.0029
     26 C           7.3715   43.1441    6.7710 C.ar    1  UNL1        0.0180
     27 C           4.1658   44.7768    7.9388 C.3     1  UNL1        0.0310
@<TRIPOS>BOND
     1     5     2    1
     2     5    13   ar
     3    17     1    1
     4    17    20    1
     5    22    23   ar
     6    24    25   ar
     7    26    21   ar
     8    27    24    1
     9     6    13   ar
    10     7     8   ar
    11     7    12   ar
    12     8    14    1
    13     9    10   ar
    14    11     6   ar
    15    15    14    1
    16    15    16    1
    17     2     1   am
    18    20    21    1
    19     5    12   ar
    20     1     3    2
    21    21    22   ar
    22    23    24   ar
    23    25    26   ar
    24     6     7   ar
    25     8     9   ar
    26    10    11   ar
    27    20    18    2
    28    20    19    2
    29     2     4    1
@<TRIPOS>MOLECULE
MolPort-003-130-875 4496121 CHEMBL1334056 CSSS03437124622 ChemDiv-G856-7157 MCULE-8146897159 PubChem-7254204 ZINC000004496121
 27 29 0 0 0
SMALL
GASTEIGER

@<TRIPOS>ATOM
      1 C           8.2420   41.4807    6.6705 C.2     1  UNL1        0.2520
      2 N           9.4980   42.0446    6.2803 N.am    1  UNL1       -0.2627
      3 O           8.1831   40.3880    7.2937 O.2     1  UNL1       -0.2728
      4 H           9.4856   42.7099    5.5548 H       1  UNL1        0.1568
      5 C          10.7702   41.7263    6.8522 C.ar    1  UNL1        0.1657
      6 C          12.6715   41.0667    8.2163 C.ar    1  UNL1        0.0527
      7 C          12.9824   41.8735    7.1315 C.ar    1  UNL1        0.1230
      8 C          14.3052   42.2553    6.8887 C.ar    1  UNL1        0.1566
      9 C          15.3042   41.7964    7.7732 C.ar    1  UNL1        0.0385
     10 C          14.9729   40.9772    8.8688 C.ar    1  UNL1        0.0037
     11 C          13.6408   40.6041    9.1011 C.ar    1  UNL1        0.0083
     12 N          11.9225   42.2496    6.3704 N.ar    1  UNL1       -0.2209
     13 S          11.0165   40.7983    8.2524 S.2     1  UNL1       -0.0513
     14 O          14.6051   43.0766    5.7951 O.3     1  UNL1       -0.4739
     15 C          15.8610   43.7253    5.6295 C.3     1  UNL1        0.2056
     16 C          16.1326   44.6464    6.8041 C.3     1  UNL1        0.0512
     17 C           6.9906   42.2341    6.3828 C.3     1  UNL1        0.2405
     18 O           7.8838   43.9200    8.2804 O.2     1  UNL1       -0.1682
     19 O           5.7301   44.4418    7.2492 O.2     1  UNL1       -0.1682
     20 S           6.6119   43.3285    7.7415 S.O2    1  UNL1        0.0176
     21 C           5.7887   42.4449    9.0182 C.ar    1  UNL1        0.1062
     22 C           4.4146   42.1935    8.9247 C.ar    1  UNL1        0.0180
     23 C           3.7744   41.4227    9.8993 C.ar    1  UNL1       -0.0029
     24 C           4.5079   40.8966   10.9667 C.ar    1  UNL1       -0.0218
     25 C           5.8805   41.1449   11.0617 C.ar    1  UNL1       -0.0029
     26 C           6.5212   41.9155   10.0867 C.ar    1  UNL1        0.0180
     27 C           3.8292   40.0694   11.9976 C.3     1  UNL1        0.0310
@<TRIPOS>BOND
     1     5     2    1
     2     5    13   ar
     3    17     1    1
     4    17    20    1
     5    22    23   ar
     6    24    25   ar
     7    26    21   ar
     8    27    24    1
     9     6    13   ar
    10     7     8   ar
    11     7    12   ar
    12     8    14    1
    13     9    10   ar
    14    11     6   ar
    15    15    14    1
    16    15    16    1
    17     2     1   am
    18    20    21    1
    19     5    12   ar
    20     1     3    2
    21    21    22   ar
    22    23    24   ar
    23    25    26   ar
    24     6     7   ar
    25     8     9   ar
    26    10    11   ar
    27    20    18    2
    28    20    19    2
    29     2     4    1
@<TRIPOS>MOLECULE
MolPort-003-130-875 4496121 CHEMBL1334056 CSSS03437124622 ChemDiv-G856-7157 MCULE-8146897159 PubChem-7254204 ZINC000004496121
 27 29 0 0 0
SMALL
GASTEIGER

@<TRIPOS>ATOM
      1 C           9.3528   43.6181    9.6936 C.2     1  UNL1        0.2520
      2 N           9.6357   42.2891    9.2445 N.am    1  UNL1       -0.2627
      3 O           9.9904   44.1330   10.6497 O.2     1  UNL1       -0.2728
      4 H           8.9352   41.8319    8.7254 H       1  UNL1        0.1568
      5 C          10.8472   41.5667    9.4838 C.ar    1  UNL1        0.1657
      6 C          12.7070   40.2451   10.3234 C.ar    1  UNL1        0.0527
      7 C          13.0141   41.0725    9.2530 C.ar    1  UNL1        0.1230
      8 C          14.3130   41.1108    8.7372 C.ar    1  UNL1        0.1566
      9 C          15.2913   40.2872    9.3336 C.ar    1  UNL1        0.0385
     10 C          14.9637   39.4522   10.4183 C.ar    1  UNL1        0.0037
     11 C          13.6566   39.4262   10.9267 C.ar    1  UNL1        0.0083
     12 N          11.9797   41.8173    8.7850 N.ar    1  UNL1       -0.2209
     13 S          11.0891   40.4319   10.7231 S.2     1  UNL1       -0.0513
     14 O          14.6123   41.9560    7.6618 O.3     1  UNL1       -0.4739
     15 C          13.7362   42.1511    6.5573 C.3     1  UNL1        0.2056
     16 C          14.1378   43.3935    5.7845 C.3     1  UNL1        0.0512
     17 C           8.3257   44.4210    8.9748 C.3     1  UNL1        0.2405
     18 O           6.5352   44.0993    6.9920 O.2     1  UNL1       -0.1682
     19 O           7.9889   42.2014    7.5005 O.2     1  UNL1       -0.1682
     20 S           7.2087   43.3383    8.0989 S.O2    1  UNL1        0.0176
     21 C           5.9936   42.7048    9.1992 C.ar    1  UNL1        0.1062
     22 C           6.3509   41.7675   10.1758 C.ar    1  UNL1        0.0180
     23 C           5.4032   41.3232   11.1021 C.ar    1  UNL1       -0.0029
     24 C           4.0972   41.8196   11.0578 C.ar    1  UNL1       -0.0218
     25 C           3.7379   42.7568   10.0845 C.ar    1  UNL1       -0.0029
     26 C           4.6859   43.2017    9.1581 C.ar    1  UNL1        0.0180
     27 C           3.0921   41.3544   12.0483 C.3     1  UNL1        0.0310
@<TRIPOS>BOND
     1     5     2    1
     2     5    13   ar
     3    17     1    1
     4    17    20    1
     5    22    23   ar
     6    24    25   ar
     7    26    21   ar
     8    27    24    1
     9     6    13   ar
    10     7     8   ar
    11     7    12   ar
    12     8    14    1
    13     9    10   ar
    14    11     6   ar
    15    15    14    1
    16    15    16    1
    17     2     1   am
    18    20    21    1
    19     5    12   ar
    20     1     3    2
    21    21    22   ar
    22    23    24   ar
    23    25    26   ar
    24     6     7   ar
    25     8     9   ar
    26    10    11   ar
    27    20    18    2
    28    20    19    2
    29     2     4    1
@<TRIPOS>MOLECULE
MolPort-003-130-875 4496121 CHEMBL1334056 CSSS03437124622 ChemDiv-G856-7157 MCULE-8146897159 PubChem-7254204 ZINC000004496121
 27 29 0 0 0
SMALL
GASTEIGER

@<TRIPOS>ATOM
      1 C          10.7230   40.5745    7.7348 C.2     1  UNL1        0.2520
      2 N          11.4767   41.6530    7.1721 N.am    1  UNL1       -0.2627
      3 O          11.2922   39.5412    8.1754 O.2     1  UNL1       -0.2728
      4 H          10.9959   42.2766    6.5811 H       1  UNL1        0.1568
      5 C          12.8677   41.9045    7.3931 C.ar    1  UNL1        0.1657
      6 C          15.2169   42.5265    7.3238 C.ar    1  UNL1        0.0527
      7 C          14.8958   41.5597    8.2655 C.ar    1  UNL1        0.1230
      8 C          15.8875   41.0116    9.0846 C.ar    1  UNL1        0.1566
      9 C          17.2121   41.4706    8.9252 C.ar    1  UNL1        0.0385
     10 C          17.5218   42.4531    7.9660 C.ar    1  UNL1        0.0037
     11 C          16.5166   42.9922    7.1496 C.ar    1  UNL1        0.0083
     12 N          13.5857   41.2046    8.3032 N.ar    1  UNL1       -0.2209
     13 S          13.8314   42.9717    6.4905 S.2     1  UNL1       -0.0513
     14 O          15.5520   40.0306   10.0256 O.3     1  UNL1       -0.4739
     15 C          14.3193   39.3197   10.0038 C.3     1  UNL1        0.2056
     16 C          13.6871   39.3270   11.3830 C.3     1  UNL1        0.0512
     17 C           9.2450   40.7089    7.8514 C.3     1  UNL1        0.2405
     18 O           8.7376   41.1980   10.4484 O.2     1  UNL1       -0.1682
     19 O           9.9279   42.9292    9.1994 O.2     1  UNL1       -0.1682
     20 S           8.8391   41.8960    9.1215 S.O2    1  UNL1        0.0176
     21 C           7.3094   42.6781    8.7515 C.ar    1  UNL1        0.1062
     22 C           6.1078   42.1197    9.2037 C.ar    1  UNL1        0.0180
     23 C           4.8978   42.7823    8.9789 C.ar    1  UNL1       -0.0029
     24 C           4.8870   44.0077    8.3065 C.ar    1  UNL1       -0.0218
     25 C           6.0856   44.5684    7.8551 C.ar    1  UNL1       -0.0029
     26 C           7.2961   43.9060    8.0802 C.ar    1  UNL1        0.0180
     27 C           3.6017   44.7166    8.0758 C.3     1  UNL1        0.0310
@<TRIPOS>BOND
     1     5     2    1
     2     5    13   ar
     3    17     1    1
     4    17    20    1
     5    22    23   ar
     6    24    25   ar
     7    26    21   ar
     8    27    24    1
     9     6    13   ar
    10     7     8   ar
    11     7    12   ar
    12     8    14    1
    13     9    10   ar
    14    11     6   ar
    15    15    14    1
    16    15    16    1
    17     2     1   am
    18    20    21    1
    19     5    12   ar
    20     1     3    2
    21    21    22   ar
    22    23    24   ar
    23    25    26   ar
    24     6     7   ar
    25     8     9   ar
    26    10    11   ar
    27    20    18    2
    28    20    19    2
    29     2     4    1
@<TRIPOS>MOLECULE
MolPort-003-130-875 4496121 CHEMBL1334056 CSSS03437124622 ChemDiv-G856-7157 MCULE-8146897159 PubChem-7254204 ZINC000004496121
 27 29 0 0 0
SMALL
GASTEIGER

@<TRIPOS>ATOM
      1 C           9.3322   41.0284    7.2577 C.2     1  UNL1        0.2520
      2 N          10.4346   41.5476    6.5073 N.am    1  UNL1       -0.2627
      3 O           9.5164   40.2966    8.2658 O.2     1  UNL1       -0.2728
      4 H          10.2515   41.8427    5.5861 H       1  UNL1        0.1568
      5 C          11.7794   41.6755    6.9786 C.ar    1  UNL1        0.1657
      6 C          14.1376   42.1269    7.3600 C.ar    1  UNL1        0.0527
      7 C          13.6051   41.1064    8.1344 C.ar    1  UNL1        0.1230
      8 C          14.4089   40.4163    9.0468 C.ar    1  UNL1        0.1566
      9 C          15.7654   40.7891    9.1545 C.ar    1  UNL1        0.0385
     10 C          16.2906   41.8275    8.3627 C.ar    1  UNL1        0.0037
     11 C          15.4725   42.5094    7.4498 C.ar    1  UNL1        0.0083
     12 N          12.2896   40.8467    7.9200 N.ar    1  UNL1       -0.2209
     13 S          12.9430   42.7450    6.3585 S.2     1  UNL1       -0.0513
     14 O          13.8616   39.3829    9.8168 O.3     1  UNL1       -0.4739
     15 C          13.6218   39.4966   11.2151 C.3     1  UNL1        0.2056
     16 C          14.6074   38.6384   11.9859 C.3     1  UNL1        0.0512
     17 C           7.9476   41.4125    6.8683 C.3     1  UNL1        0.2405
     18 O           8.6306   43.4505    8.4873 O.2     1  UNL1       -0.1682
     19 O           6.9384   43.8999    6.7819 O.2     1  UNL1       -0.1682
     20 S           7.4482   42.8772    7.7584 S.O2    1  UNL1        0.0176
     21 C           6.1832   42.4816    8.9123 C.ar    1  UNL1        0.1062
     22 C           6.4433   41.5927    9.9622 C.ar    1  UNL1        0.0180
     23 C           5.4633   41.3391   10.9260 C.ar    1  UNL1       -0.0029
     24 C           4.2226   41.9781   10.8454 C.ar    1  UNL1       -0.0218
     25 C           3.9606   42.8673    9.7989 C.ar    1  UNL1       -0.0029
     26 C           4.9409   43.1216    8.8349 C.ar    1  UNL1        0.0180
     27 C           3.1841   41.7156   11.8752 C.3     1  UNL1        0.0310
@<TRIPOS>BOND
     1     5     2    1
     2     5    13   ar
     3    17     1    1
     4    17    20    1
     5    22    23   ar
     6    24    25   ar
     7    26    21   ar
     8    27    24    1
     9     6    13   ar
    10     7     8   ar
    11     7    12   ar
    12     8    14    1
    13     9    10   ar
    14    11     6   ar
    15    15    14    1
    16    15    16    1
    17     2     1   am
    18    20    21    1
    19     5    12   ar
    20     1     3    2
    21    21    22   ar
    22    23    24   ar
    23    25    26   ar
    24     6     7   ar
    25     8     9   ar
    26    10    11   ar
    27    20    18    2
    28    20    19    2
    29     2     4    1
@<TRIPOS>MOLECULE
MolPort-003-130-875 4496121 CHEMBL1334056 CSSS03437124622 ChemDiv-G856-7157 MCULE-8146897159 PubChem-7254204 ZINC000004496121
 27 29 0 0 0
SMALL
GASTEIGER

@<TRIPOS>ATOM
      1 C          11.7032   40.5123   10.3650 C.2     1  UNL1        0.2520
      2 N          11.4675   41.8802   10.0171 N.am    1  UNL1       -0.2627
      3 O          10.7572   39.6837   10.4313 O.2     1  UNL1       -0.2728
      4 H          12.1585   42.5337   10.2711 H       1  UNL1        0.1568
      5 C          10.3154   42.3813    9.3325 C.ar    1  UNL1        0.1657
      6 C           8.2160   43.3732    8.6120 C.ar    1  UNL1        0.0527
      7 C           8.7756   42.4740    7.7159 C.ar    1  UNL1        0.1230
      8 C           8.1364   42.1898    6.5054 C.ar    1  UNL1        0.1566
      9 C           6.9168   42.8423    6.2266 C.ar    1  UNL1        0.0385
     10 C           6.3625   43.7531    7.1455 C.ar    1  UNL1        0.0037
     11 C           7.0140   44.0265    8.3573 C.ar    1  UNL1        0.0083
     12 N           9.9451   41.9128    8.1172 N.ar    1  UNL1       -0.2209
     13 S           9.1970   43.4897    9.9672 S.2     1  UNL1       -0.0513
     14 O           8.7072   41.2743    5.6129 O.3     1  UNL1       -0.4739
     15 C          10.1104   41.0604    5.5079 C.3     1  UNL1        0.2056
     16 C          10.4276   40.2840    4.2436 C.3     1  UNL1        0.0512
     17 C          13.1014   40.0550   10.5936 C.3     1  UNL1        0.2405
     18 O          14.9560   38.6176    9.2762 O.2     1  UNL1       -0.1682
     19 O          12.8296   39.0068    8.1358 O.2     1  UNL1       -0.1682
     20 S          13.8628   39.6208    9.0383 S.O2    1  UNL1        0.0176
     21 C          14.5368   41.0528    8.2745 C.ar    1  UNL1        0.1062
     22 C          15.8230   41.4900    8.6132 C.ar    1  UNL1        0.0180
     23 C          16.3909   42.5809    7.9492 C.ar    1  UNL1       -0.0029
     24 C          15.6763   43.2339    6.9407 C.ar    1  UNL1       -0.0218
     25 C          14.3923   42.7986    6.5994 C.ar    1  UNL1       -0.0029
     26 C          13.8242   41.7071    7.2632 C.ar    1  UNL1        0.0180
     27 C          16.2837   44.3877    6.2284 C.3     1  UNL1        0.0310
@<TRIPOS>BOND
     1     5     2    1
     2     5    13   ar
     3    17     1    1
     4    17    20    1
     5    22    23   ar
     6    24    25   ar
     7    26    21   ar
     8    27    24    1
     9     6    13   ar
    10     7     8   ar
    11     7    12   ar
    12     8    14    1
    13     9    10   ar
    14    11     6   ar
    15    15    14    1
    16    15    16    1
    17     2     1   am
    18    20    21    1
    19     5    12   ar
    20     1     3    2
    21    21    22   ar
    22    23    24   ar
    23    25    26   ar
    24     6     7   ar
    25     8     9   ar
    26    10    11   ar
    27    20    18    2
    28    20    19    2
    29     2     4    1
@<TRIPOS>MOLECULE
MolPort-003-130-875 4496121 CHEMBL1334056 CSSS03437124622 ChemDiv-G856-7157 MCULE-8146897159 PubChem-7254204 ZINC000004496121
 27 29 0 0 0
SMALL
GASTEIGER

@<TRIPOS>ATOM
      1 C          11.2237   41.3354    9.4853 C.2     1  UNL1        0.2520
      2 N          11.7422   40.3632   10.3983 N.am    1  UNL1       -0.2627
      3 O          11.9800   42.1703    8.9225 O.2     1  UNL1       -0.2728
      4 H          11.1051   39.9523   11.0264 H       1  UNL1        0.1568
      5 C          13.1053   39.9360   10.4784 C.ar    1  UNL1        0.1657
      6 C          15.2862   39.0205   11.0407 C.ar    1  UNL1        0.0527
      7 C          15.3017   40.0165   10.0751 C.ar    1  UNL1        0.1230
      8 C          16.5087   40.4306    9.5039 C.ar    1  UNL1        0.1566
      9 C          17.6986   39.8075    9.9359 C.ar    1  UNL1        0.0385
     10 C          17.6663   38.7975   10.9156 C.ar    1  UNL1        0.0037
     11 C          16.4479   38.3939   11.4815 C.ar    1  UNL1        0.0083
     12 N          14.0862   40.5351    9.7626 N.ar    1  UNL1       -0.2209
     13 S          13.7077   38.7585   11.5428 S.2     1  UNL1       -0.0513
     14 O          16.5119   41.4425    8.5362 O.3     1  UNL1       -0.4739
     15 C          17.3922   42.5600    8.5808 C.3     1  UNL1        0.2056
     16 C          17.0918   43.5082    7.4351 C.3     1  UNL1        0.0512
     17 C           9.7722   41.3154    9.1550 C.3     1  UNL1        0.2405
     18 O           9.2634   41.2545   11.7967 O.2     1  UNL1       -0.1682
     19 O           9.0685   43.4164   10.6731 O.2     1  UNL1       -0.1682
     20 S           8.8247   41.9398   10.5333 S.O2    1  UNL1        0.0176
     21 C           7.1118   41.6471   10.2715 C.ar    1  UNL1        0.1062
     22 C           6.2732   41.3677   11.3573 C.ar    1  UNL1        0.0180
     23 C           4.8980   41.2138   11.1603 C.ar    1  UNL1       -0.0029
     24 C           4.3572   41.3446    9.8779 C.ar    1  UNL1       -0.0218
     25 C           5.1921   41.6250    8.7921 C.ar    1  UNL1       -0.0029
     26 C           6.5677   41.7794    8.9889 C.ar    1  UNL1        0.0180
     27 C           2.8941   41.1903    9.6699 C.3     1  UNL1        0.0310
@<TRIPOS>BOND
     1     5     2    1
     2     5    13   ar
     3    17     1    1
     4    17    20    1
     5    22    23   ar
     6    24    25   ar
     7    26    21   ar
     8    27    24    1
     9     6    13   ar
    10     7     8   ar
    11     7    12   ar
    12     8    14    1
    13     9    10   ar
    14    11     6   ar
    15    15    14    1
    16    15    16    1
    17     2     1   am
    18    20    21    1
    19     5    12   ar
    20     1     3    2
    21    21    22   ar
    22    23    24   ar
    23    25    26   ar
    24     6     7   ar
    25     8     9   ar
    26    10    11   ar
    27    20    18    2
    28    20    19    2
    29     2     4    1
@<TRIPOS>MOLECULE
MolPort-003-130-875 4496121 CHEMBL1334056 CSSS03437124622 ChemDiv-G856-7157 MCULE-8146897159 PubChem-7254204 ZINC000004496121
 27 29 0 0 0
SMALL
GASTEIGER

@<TRIPOS>ATOM
      1 C          10.5649   40.7846    5.1869 C.2     1  UNL1        0.2520
      2 N          11.1216   41.9592    5.7852 N.am    1  UNL1       -0.2627
      3 O          11.2942   39.8124    4.8570 O.2     1  UNL1       -0.2728
      4 H          10.5843   42.7831    5.7418 H       1  UNL1        0.1568
      5 C          12.3905   42.0414    6.4410 C.ar    1  UNL1        0.1657
      6 C          14.6835   42.4195    7.1549 C.ar    1  UNL1        0.0527
      7 C          14.0221   41.4024    7.8277 C.ar    1  UNL1        0.1230
      8 C          14.6727   40.6754    8.8291 C.ar    1  UNL1        0.1566
      9 C          16.0102   41.0077    9.1314 C.ar    1  UNL1        0.0385
     10 C          16.6674   42.0432    8.4407 C.ar    1  UNL1        0.0037
     11 C          16.0024   42.7625    7.4366 C.ar    1  UNL1        0.0083
     12 N          12.7430   41.1836    7.4276 N.ar    1  UNL1       -0.2209
     13 S          13.6565   43.0870    6.0095 S.2     1  UNL1       -0.0513
     14 O          13.9968   39.6459    9.4952 O.3     1  UNL1       -0.4739
     15 C          13.4192   39.8015   10.7866 C.3     1  UNL1        0.2056
     16 C          14.1371   38.9188   11.7903 C.3     1  UNL1        0.0512
     17 C           9.0897   40.6937    5.0084 C.3     1  UNL1        0.2405
     18 O           6.9727   39.2638    5.8537 O.2     1  UNL1       -0.1682
     19 O           9.1882   38.2980    6.2185 O.2     1  UNL1       -0.1682
     20 S           8.3972   39.5762    6.2161 S.O2    1  UNL1        0.0176
     21 C           8.4497   40.3050    7.8143 C.ar    1  UNL1        0.1062
     22 C           9.6338   40.2762    8.5608 C.ar    1  UNL1        0.0180
     23 C           9.6998   40.9246    9.7973 C.ar    1  UNL1       -0.0029
     24 C           8.5836   41.6084   10.2877 C.ar    1  UNL1       -0.0218
     25 C           7.4002   41.6401    9.5438 C.ar    1  UNL1       -0.0029
     26 C           7.3341   40.9919    8.3067 C.ar    1  UNL1        0.0180
     27 C           8.6566   42.3056   11.5978 C.3     1  UNL1        0.0310
@<TRIPOS>BOND
     1     5     2    1
     2     5    13   ar
     3    17     1    1
     4    17    20    1
     5    22    23   ar
     6    24    25   ar
     7    26    21   ar
     8    27    24    1
     9     6    13   ar
    10     7     8   ar
    11     7    12   ar
    12     8    14    1
    13     9    10   ar
    14    11     6   ar
    15    15    14    1
    16    15    16    1
    17     2     1   am
    18    20    21    1
    19     5    12   ar
    20     1     3    2
    21    21    22   ar
    22    23    24   ar
    23    25    26   ar
    24     6     7   ar
    25     8     9   ar
    26    10    11   ar
    27    20    18    2
    28    20    19    2
    29     2     4    1
@<TRIPOS>MOLECULE
MolPort-003-130-875 4496121 CHEMBL1334056 CSSS03437124622 ChemDiv-G856-7157 MCULE-8146897159 PubChem-7254204 ZINC000004496121
 27 29 0 0 0
SMALL
GASTEIGER

@<TRIPOS>ATOM
      1 C          10.2323   40.9529   11.0384 C.2     1  UNL1        0.2520
      2 N          10.9985   40.3049   10.0181 N.am    1  UNL1       -0.2627
      3 O          10.6907   41.1040   12.2015 O.2     1  UNL1       -0.2728
      4 H          10.5048   39.9445    9.2464 H       1  UNL1        0.1568
      5 C          12.4191   40.1350   10.0213 C.ar    1  UNL1        0.1657
      6 C          14.7620   39.6698   10.4737 C.ar    1  UNL1        0.0527
      7 C          14.5333   40.5735    9.4463 C.ar    1  UNL1        0.1230
      8 C          15.6053   41.1498    8.7581 C.ar    1  UNL1        0.1566
      9 C          16.9142   40.7846    9.1376 C.ar    1  UNL1        0.0385
     10 C          17.1299   39.8652   10.1814 C.ar    1  UNL1        0.0037
     11 C          16.0445   39.2969   10.8644 C.ar    1  UNL1        0.0083
     12 N          13.2261   40.8411    9.1945 N.ar    1  UNL1       -0.2209
     13 S          13.2935   39.1711   11.1116 S.2     1  UNL1       -0.0513
     14 O          15.3615   42.0668    7.7285 O.3     1  UNL1       -0.4739
     15 C          16.1144   43.2622    7.5558 C.3     1  UNL1        0.2056
     16 C          17.1858   43.3644    8.6252 C.3     1  UNL1        0.0512
     17 C           8.8941   41.5077   10.6952 C.3     1  UNL1        0.2405
     18 O           9.9437   42.4438    8.4011 O.2     1  UNL1       -0.1682
     19 O           8.7034   40.3410    8.2837 O.2     1  UNL1       -0.1682
     20 S           8.7488   41.6990    8.9262 S.O2    1  UNL1        0.0176
     21 C           7.2844   42.5870    8.5324 C.ar    1  UNL1        0.1062
     22 C           6.1669   42.5062    9.3719 C.ar    1  UNL1        0.0180
     23 C           5.0302   43.2739    9.1030 C.ar    1  UNL1       -0.0029
     24 C           5.0103   44.1286    7.9971 C.ar    1  UNL1       -0.0218
     25 C           6.1254   44.2124    7.1578 C.ar    1  UNL1       -0.0029
     26 C           7.2627   43.4450    7.4269 C.ar    1  UNL1        0.0180
     27 C           3.8055   44.9517    7.7165 C.3     1  UNL1        0.0310
@<TRIPOS>BOND
     1     5     2    1
     2     5    13   ar
     3    17     1    1
     4    17    20    1
     5    22    23   ar
     6    24    25   ar
     7    26    21   ar
     8    27    24    1
     9     6    13   ar
    10     7     8   ar
    11     7    12   ar
    12     8    14    1
    13     9    10   ar
    14    11     6   ar
    15    15    14    1
    16    15    16    1
    17     2     1   am
    18    20    21    1
    19     5    12   ar
    20     1     3    2
    21    21    22   ar
    22    23    24   ar
    23    25    26   ar
    24     6     7   ar
    25     8     9   ar
    26    10    11   ar
    27    20    18    2
    28    20    19    2
    29     2     4    1
