@<TRIPOS>MOLECULE
Molport-047-071-926 MCULE-2445915367 PubChem-132764393
 26 28 0 0 0
SMALL
GASTEIGER

@<TRIPOS>ATOM
      1 C           8.3945   40.6956    6.0016 C.ar    1  UNL1        0.1357
      2 C           9.6194   40.9526    6.6168 C.ar    1  UNL1        0.0492
      3 C          10.7727   40.3854    6.0749 C.ar    1  UNL1        0.0644
      4 C           9.4835   39.3583    4.3792 C.ar    1  UNL1        0.1406
      5 C           9.4083   38.4973    3.1706 C.3     1  UNL1        0.0737
      6 N          10.6839   39.5995    4.9675 N.ar    1  UNL1       -0.2348
      7 N           8.3517   39.9038    4.8955 N.ar    1  UNL1       -0.2159
      8 C          12.0936   40.6471    6.7185 C.3     1  UNL1        0.0603
      9 C          11.9511   40.7238    8.2419 C.3     1  UNL1        0.0094
     10 C          13.2426   41.1534    8.9564 C.3     1  UNL1        0.0220
     11 C          14.3971   41.4321    7.9943 C.3     1  UNL1        0.0937
     12 C          14.5719   43.5536    6.6182 C.2     1  UNL1        0.2492
     13 C          12.7240   41.9262    6.1631 C.3     1  UNL1        0.0996
     14 N          13.9406   42.2887    6.8987 N.am    1  UNL1       -0.2757
     15 O          13.9162   44.4525    6.0267 O.2     1  UNL1       -0.2699
     16 C          15.9699   43.8576    6.9787 C.2     1  UNL1        0.0579
     17 C          16.9270   44.1037    6.0944 C.2     1  UNL1        0.0048
     18 N           7.2040   41.2733    6.5500 N.pl3   1  UNL1       -0.2833
     19 H           6.5648   41.6655    5.9121 H       1  UNL1        0.1550
     20 C           6.8544   41.3351    7.9380 C.ar    1  UNL1        0.1328
     21 C           7.8275   41.7112    8.8677 C.ar    1  UNL1        0.0344
     22 C           7.4949   41.7739   10.2221 C.ar    1  UNL1        0.0041
     23 C           6.1988   41.4617   10.6348 C.ar    1  UNL1        0.0148
     24 C           5.2513   41.0897    9.6793 C.ar    1  UNL1        0.0608
     25 C           3.8659   40.7534   10.0984 C.3     1  UNL1        0.0521
     26 N           5.5954   41.0347    8.3644 N.ar    1  UNL1       -0.2349
@<TRIPOS>BOND
     1     1    18    1
     2     1     7   ar
     3    20    26   ar
     4    21    22   ar
     5    23    24   ar
     6    25    24    1
     7     2     3   ar
     8     8     3    1
     9     8     9    1
    10     9    10    1
    11    10    11    1
    12    11    14    1
    13    12    16    1
    14    13    14    1
    15    13     8    1
    16     4     6   ar
    17     5     4    1
    18    18    20    1
    19    14    12   am
    20     1     2   ar
    21    20    21   ar
    22    22    23   ar
    23    24    26   ar
    24     3     6   ar
    25    12    15    2
    26    16    17    2
    27     4     7   ar
    28    18    19    1
@<TRIPOS>MOLECULE
Molport-047-071-926 MCULE-2445915367 PubChem-132764393
 26 28 0 0 0
SMALL
GASTEIGER

@<TRIPOS>ATOM
      1 C          17.0993   40.4292    9.6325 C.ar    1  UNL1        0.1357
      2 C          15.7448   40.0978    9.6500 C.ar    1  UNL1        0.0492
      3 C          15.3752   38.8127   10.0465 C.ar    1  UNL1        0.0644
      4 C          17.6477   38.2516   10.3833 C.ar    1  UNL1        0.1406
      5 C          18.6768   37.2557   10.7789 C.3     1  UNL1        0.0737
      6 N          16.3321   37.9140   10.4054 N.ar    1  UNL1       -0.2348
      7 N          18.0229   39.4994    9.9994 N.ar    1  UNL1       -0.2159
      8 C          13.9310   38.4371   10.0716 C.3     1  UNL1        0.0603
      9 C          13.7614   36.9188    9.9577 C.3     1  UNL1        0.0094
     10 C          12.2966   36.4759    9.8120 C.3     1  UNL1        0.0220
     11 C          11.3141   37.6466    9.7935 C.3     1  UNL1        0.0937
     12 C          10.9627   39.1279    7.7668 C.2     1  UNL1        0.2492
     13 C          13.1634   39.1579    8.9611 C.3     1  UNL1        0.0996
     14 N          11.7805   38.6774    8.8647 N.am    1  UNL1       -0.2757
     15 O          11.5152   39.6288    6.7511 O.2     1  UNL1       -0.2699
     16 C           9.4896   39.0463    7.7686 C.2     1  UNL1        0.0579
     17 C           8.7157   39.5902    6.8391 C.2     1  UNL1        0.0048
     18 N          17.4896   41.7464    9.2269 N.pl3   1  UNL1       -0.2833
     19 H          18.2292   42.1645    9.7243 H       1  UNL1        0.1550
     20 C          16.9067   42.5136    8.1667 C.ar    1  UNL1        0.1328
     21 C          17.6633   43.5203    7.5609 C.ar    1  UNL1        0.0344
     22 C          17.1025   44.2724    6.5270 C.ar    1  UNL1        0.0041
     23 C          15.7964   44.0140    6.1087 C.ar    1  UNL1        0.0148
     24 C          15.0688   43.0008    6.7359 C.ar    1  UNL1        0.0608
     25 C          13.6767   42.7101    6.3050 C.3     1  UNL1        0.0521
     26 N          15.6333   42.2793    7.7413 N.ar    1  UNL1       -0.2349
@<TRIPOS>BOND
     1     1    18    1
     2     1     7   ar
     3    20    26   ar
     4    21    22   ar
     5    23    24   ar
     6    25    24    1
     7     2     3   ar
     8     8     3    1
     9     8     9    1
    10     9    10    1
    11    10    11    1
    12    11    14    1
    13    12    16    1
    14    13    14    1
    15    13     8    1
    16     4     6   ar
    17     5     4    1
    18    18    20    1
    19    14    12   am
    20     1     2   ar
    21    20    21   ar
    22    22    23   ar
    23    24    26   ar
    24     3     6   ar
    25    12    15    2
    26    16    17    2
    27     4     7   ar
    28    18    19    1
@<TRIPOS>MOLECULE
Molport-047-071-926 MCULE-2445915367 PubChem-132764393
 26 28 0 0 0
SMALL
GASTEIGER

@<TRIPOS>ATOM
      1 C          17.1681   40.5253    9.5301 C.ar    1  UNL1        0.1357
      2 C          15.7889   40.3469    9.6352 C.ar    1  UNL1        0.0492
      3 C          15.3059   39.1261   10.1062 C.ar    1  UNL1        0.0644
      4 C          17.5199   38.3295   10.3432 C.ar    1  UNL1        0.1406
      5 C          18.4563   37.2410   10.7250 C.3     1  UNL1        0.0737
      6 N          16.1790   38.1409   10.4511 N.ar    1  UNL1       -0.2348
      7 N          18.0052   39.5131    9.8862 N.ar    1  UNL1       -0.2159
      8 C          13.8334   38.9141   10.2257 C.3     1  UNL1        0.0603
      9 C          13.2960   38.1365    9.0200 C.3     1  UNL1        0.0094
     10 C          11.7630   38.0257    8.9973 C.3     1  UNL1        0.0220
     11 C          11.0922   38.7312   10.1757 C.3     1  UNL1        0.0937
     12 C          10.8081   41.2467   10.3045 C.2     1  UNL1        0.2492
     13 C          13.1039   40.2500   10.3841 C.3     1  UNL1        0.0996
     14 N          11.6479   40.0759   10.3368 N.am    1  UNL1       -0.2757
     15 O          11.3088   42.3561    9.9784 O.2     1  UNL1       -0.2699
     16 C           9.3738   41.2234   10.6492 C.2     1  UNL1        0.0579
     17 C           8.9044   41.3763   11.8800 C.2     1  UNL1        0.0048
     18 N          17.6746   41.7753    9.0476 N.pl3   1  UNL1       -0.2833
     19 H          18.4900   42.1210    9.4776 H       1  UNL1        0.1550
     20 C          17.1082   42.5706    7.9992 C.ar    1  UNL1        0.1328
     21 C          17.9196   43.4912    7.3307 C.ar    1  UNL1        0.0344
     22 C          17.3752   44.2700    6.3078 C.ar    1  UNL1        0.0041
     23 C          16.0309   44.1235    5.9628 C.ar    1  UNL1        0.0148
     24 C          15.2489   43.1942    6.6514 C.ar    1  UNL1        0.0608
     25 C          13.8155   43.0232    6.2991 C.3     1  UNL1        0.0521
     26 N          15.7982   42.4450    7.6450 N.ar    1  UNL1       -0.2349
@<TRIPOS>BOND
     1     1    18    1
     2     1     7   ar
     3    20    26   ar
     4    21    22   ar
     5    23    24   ar
     6    25    24    1
     7     2     3   ar
     8     8     3    1
     9     8     9    1
    10     9    10    1
    11    10    11    1
    12    11    14    1
    13    12    16    1
    14    13    14    1
    15    13     8    1
    16     4     6   ar
    17     5     4    1
    18    18    20    1
    19    14    12   am
    20     1     2   ar
    21    20    21   ar
    22    22    23   ar
    23    24    26   ar
    24     3     6   ar
    25    12    15    2
    26    16    17    2
    27     4     7   ar
    28    18    19    1
@<TRIPOS>MOLECULE
Molport-047-071-926 MCULE-2445915367 PubChem-132764393
 26 28 0 0 0
SMALL
GASTEIGER

@<TRIPOS>ATOM
      1 C           7.6557   41.7043   11.1745 C.ar    1  UNL1        0.1357
      2 C           8.7298   41.3993   10.3388 C.ar    1  UNL1        0.0492
      3 C           9.9369   41.0065   10.9165 C.ar    1  UNL1        0.0644
      4 C           8.9898   41.2287   13.0720 C.ar    1  UNL1        0.1406
      5 C           9.1285   41.1372   14.5485 C.3     1  UNL1        0.0737
      6 N          10.0449   40.9285   12.2709 N.ar    1  UNL1       -0.2348
      7 N           7.8078   41.6127   12.5238 N.ar    1  UNL1       -0.2159
      8 C          11.0991   40.6764   10.0402 C.3     1  UNL1        0.0603
      9 C          12.3261   40.3071   10.8798 C.3     1  UNL1        0.0094
     10 C          13.6031   40.1155   10.0458 C.3     1  UNL1        0.0220
     11 C          13.3855   40.3512    8.5514 C.3     1  UNL1        0.0937
     12 C          13.1847   42.6617    7.5285 C.2     1  UNL1        0.2492
     13 C          11.4130   41.8380    9.0947 C.3     1  UNL1        0.0996
     14 N          12.6501   41.5996    8.3430 N.am    1  UNL1       -0.2757
     15 O          12.8017   43.8453    7.7292 O.2     1  UNL1       -0.2699
     16 C          14.1621   42.4377    6.4463 C.2     1  UNL1        0.0579
     17 C          15.1998   43.2285    6.2090 C.2     1  UNL1        0.0048
     18 N           6.4114   42.1087   10.5913 N.pl3   1  UNL1       -0.2833
     19 H           5.5927   41.8871   11.0912 H       1  UNL1        0.1550
     20 C           6.2444   42.8048    9.3504 C.ar    1  UNL1        0.1328
     21 C           7.2214   42.6724    8.3601 C.ar    1  UNL1        0.0344
     22 C           7.0660   43.3475    7.1479 C.ar    1  UNL1        0.0041
     23 C           5.9411   44.1457    6.9361 C.ar    1  UNL1        0.0148
     24 C           4.9845   44.2558    7.9469 C.ar    1  UNL1        0.0608
     25 C           3.7796   45.1008    7.7409 C.3     1  UNL1        0.0521
     26 N           5.1543   43.5899    9.1208 N.ar    1  UNL1       -0.2349
@<TRIPOS>BOND
     1     1    18    1
     2     1     7   ar
     3    20    26   ar
     4    21    22   ar
     5    23    24   ar
     6    25    24    1
     7     2     3   ar
     8     8     3    1
     9     8     9    1
    10     9    10    1
    11    10    11    1
    12    11    14    1
    13    12    16    1
    14    13    14    1
    15    13     8    1
    16     4     6   ar
    17     5     4    1
    18    18    20    1
    19    14    12   am
    20     1     2   ar
    21    20    21   ar
    22    22    23   ar
    23    24    26   ar
    24     3     6   ar
    25    12    15    2
    26    16    17    2
    27     4     7   ar
    28    18    19    1
@<TRIPOS>MOLECULE
Molport-047-071-926 MCULE-2445915367 PubChem-132764393
 26 28 0 0 0
SMALL
GASTEIGER

@<TRIPOS>ATOM
      1 C          12.4038   42.0523    8.0787 C.ar    1  UNL1        0.1357
      2 C          12.8356   40.8183    8.5640 C.ar    1  UNL1        0.0492
      3 C          12.2943   40.3420    9.7580 C.ar    1  UNL1        0.0644
      4 C          10.9538   42.2820    9.9363 C.ar    1  UNL1        0.1406
      5 C           9.9375   43.0740   10.6763 C.3     1  UNL1        0.0737
      6 N          11.3645   41.0817   10.4217 N.ar    1  UNL1       -0.2348
      7 N          11.4719   42.7589    8.7747 N.ar    1  UNL1       -0.2159
      8 C          12.7432   39.0241   10.2954 C.3     1  UNL1        0.0603
      9 C          13.8180   39.2123   11.3708 C.3     1  UNL1        0.0094
     10 C          14.4422   37.8918   11.8499 C.3     1  UNL1        0.0220
     11 C          13.8714   36.6650   11.1391 C.3     1  UNL1        0.0937
     12 C          14.5244   36.0016    8.7815 C.2     1  UNL1        0.2492
     13 C          13.2502   38.1224    9.1677 C.3     1  UNL1        0.0996
     14 N          13.8478   36.8897    9.6929 N.am    1  UNL1       -0.2757
     15 O          14.8884   36.4338    7.6551 O.2     1  UNL1       -0.2699
     16 C          14.8094   34.5876    9.0914 C.2     1  UNL1        0.0579
     17 C          15.5535   33.7970    8.3300 C.2     1  UNL1        0.0048
     18 N          12.9533   42.5506    6.8532 N.pl3   1  UNL1       -0.2833
     19 H          12.3998   42.4529    6.0449 H       1  UNL1        0.1550
     20 C          14.2313   43.1775    6.6913 C.ar    1  UNL1        0.1328
     21 C          14.3349   44.3092    5.8780 C.ar    1  UNL1        0.0344
     22 C          15.5768   44.9259    5.7151 C.ar    1  UNL1        0.0041
     23 C          16.6998   44.4094    6.3628 C.ar    1  UNL1        0.0148
     24 C          16.5605   43.2773    7.1679 C.ar    1  UNL1        0.0608
     25 C          17.7442   42.7119    7.8661 C.3     1  UNL1        0.0521
     26 N          15.3418   42.6910    7.3138 N.ar    1  UNL1       -0.2349
@<TRIPOS>BOND
     1     1    18    1
     2     1     7   ar
     3    20    26   ar
     4    21    22   ar
     5    23    24   ar
     6    25    24    1
     7     2     3   ar
     8     8     3    1
     9     8     9    1
    10     9    10    1
    11    10    11    1
    12    11    14    1
    13    12    16    1
    14    13    14    1
    15    13     8    1
    16     4     6   ar
    17     5     4    1
    18    18    20    1
    19    14    12   am
    20     1     2   ar
    21    20    21   ar
    22    22    23   ar
    23    24    26   ar
    24     3     6   ar
    25    12    15    2
    26    16    17    2
    27     4     7   ar
    28    18    19    1
@<TRIPOS>MOLECULE
Molport-047-071-926 MCULE-2445915367 PubChem-132764393
 26 28 0 0 0
SMALL
GASTEIGER

@<TRIPOS>ATOM
      1 C          12.4670   41.3031    7.0025 C.ar    1  UNL1        0.1357
      2 C          11.4210   41.7784    7.7931 C.ar    1  UNL1        0.0492
      3 C          10.1100   41.5656    7.3673 C.ar    1  UNL1        0.0644
      4 C          10.9059   40.4482    5.4410 C.ar    1  UNL1        0.1406
      5 C          10.6294   39.7296    4.1702 C.3     1  UNL1        0.0737
      6 N           9.8765   40.9054    6.2004 N.ar    1  UNL1       -0.2348
      7 N          12.1880   40.6479    5.8428 N.ar    1  UNL1       -0.2159
      8 C           8.9760   42.0668    8.1980 C.3     1  UNL1        0.0603
      9 C           8.2346   40.9039    8.8652 C.3     1  UNL1        0.0094
     10 C           6.9569   41.3355    9.6029 C.3     1  UNL1        0.0220
     11 C           6.6828   42.8359    9.5018 C.3     1  UNL1        0.0937
     12 C           5.7331   43.9333    7.4236 C.2     1  UNL1        0.2492
     13 C           8.0193   42.9140    7.3561 C.3     1  UNL1        0.0996
     14 N           6.8156   43.2769    8.1124 N.am    1  UNL1       -0.2757
     15 O           5.6802   43.8805    6.1657 O.2     1  UNL1       -0.2699
     16 C           4.6715   44.6871    8.1176 C.2     1  UNL1        0.0579
     17 C           3.5554   44.1405    8.5805 C.2     1  UNL1        0.0048
     18 N          13.8172   41.5163    7.4308 N.pl3   1  UNL1       -0.2833
     19 H          14.1968   40.8541    8.0526 H       1  UNL1        0.1550
     20 C          14.6680   42.6010    7.0409 C.ar    1  UNL1        0.1328
     21 C          14.1991   43.5318    6.1100 C.ar    1  UNL1        0.0344
     22 C          15.0221   44.5917    5.7249 C.ar    1  UNL1        0.0041
     23 C          16.3010   44.7125    6.2702 C.ar    1  UNL1        0.0148
     24 C          16.7377   43.7647    7.1976 C.ar    1  UNL1        0.0608
     25 C          18.0961   43.8756    7.7898 C.3     1  UNL1        0.0521
     26 N          15.9206   42.7393    7.5599 N.ar    1  UNL1       -0.2349
@<TRIPOS>BOND
     1     1    18    1
     2     1     7   ar
     3    20    26   ar
     4    21    22   ar
     5    23    24   ar
     6    25    24    1
     7     2     3   ar
     8     8     3    1
     9     8     9    1
    10     9    10    1
    11    10    11    1
    12    11    14    1
    13    12    16    1
    14    13    14    1
    15    13     8    1
    16     4     6   ar
    17     5     4    1
    18    18    20    1
    19    14    12   am
    20     1     2   ar
    21    20    21   ar
    22    22    23   ar
    23    24    26   ar
    24     3     6   ar
    25    12    15    2
    26    16    17    2
    27     4     7   ar
    28    18    19    1
@<TRIPOS>MOLECULE
Molport-047-071-926 MCULE-2445915367 PubChem-132764393
 26 28 0 0 0
SMALL
GASTEIGER

@<TRIPOS>ATOM
      1 C          13.1794   41.0256    8.5456 C.ar    1  UNL1        0.1357
      2 C          11.9370   41.5144    8.9484 C.ar    1  UNL1        0.0492
      3 C          11.4571   41.1644   10.2103 C.ar    1  UNL1        0.0644
      4 C          13.4097   39.8921   10.6116 C.ar    1  UNL1        0.1406
      5 C          14.2065   39.0157   11.5087 C.3     1  UNL1        0.0737
      6 N          12.2011   40.3605   11.0179 N.ar    1  UNL1       -0.2348
      7 N          13.8903   40.2245    9.3854 N.ar    1  UNL1       -0.2159
      8 C          10.1294   41.6761   10.6606 C.3     1  UNL1        0.0603
      9 C           9.6968   40.9950   11.9630 C.3     1  UNL1        0.0094
     10 C           8.2662   41.3543   12.3956 C.3     1  UNL1        0.0220
     11 C           7.5659   42.3045   11.4245 C.3     1  UNL1        0.0937
     12 C           6.5984   41.5520    9.2059 C.2     1  UNL1        0.2492
     13 C           9.0753   41.4856    9.5677 C.3     1  UNL1        0.0996
     14 N           7.7330   41.8291   10.0502 N.am    1  UNL1       -0.2757
     15 O           6.7228   40.7363    8.2535 O.2     1  UNL1       -0.2699
     16 C           5.2799   42.1887    9.3876 C.2     1  UNL1        0.0579
     17 C           4.9862   43.4155    8.9787 C.2     1  UNL1        0.0048
     18 N          13.6816   41.3791    7.2514 N.pl3   1  UNL1       -0.2833
     19 H          13.4470   40.7820    6.5046 H       1  UNL1        0.1550
     20 C          14.4925   42.5184    6.9400 C.ar    1  UNL1        0.1328
     21 C          14.0091   43.4705    6.0386 C.ar    1  UNL1        0.0344
     22 C          14.7932   44.5836    5.7298 C.ar    1  UNL1        0.0041
     23 C          16.0480   44.7356    6.3212 C.ar    1  UNL1        0.0148
     24 C          16.5001   43.7653    7.2174 C.ar    1  UNL1        0.0608
     25 C          17.8334   43.9088    7.8577 C.3     1  UNL1        0.0521
     26 N          15.7210   42.6880    7.5051 N.ar    1  UNL1       -0.2349
@<TRIPOS>BOND
     1     1    18    1
     2     1     7   ar
     3    20    26   ar
     4    21    22   ar
     5    23    24   ar
     6    25    24    1
     7     2     3   ar
     8     8     3    1
     9     8     9    1
    10     9    10    1
    11    10    11    1
    12    11    14    1
    13    12    16    1
    14    13    14    1
    15    13     8    1
    16     4     6   ar
    17     5     4    1
    18    18    20    1
    19    14    12   am
    20     1     2   ar
    21    20    21   ar
    22    22    23   ar
    23    24    26   ar
    24     3     6   ar
    25    12    15    2
    26    16    17    2
    27     4     7   ar
    28    18    19    1
@<TRIPOS>MOLECULE
Molport-047-071-926 MCULE-2445915367 PubChem-132764393
 26 28 0 0 0
SMALL
GASTEIGER

@<TRIPOS>ATOM
      1 C          14.9253   41.6610    7.8869 C.ar    1  UNL1        0.1357
      2 C          13.6915   41.0175    7.7943 C.ar    1  UNL1        0.0492
      3 C          12.7387   41.5211    6.9089 C.ar    1  UNL1        0.0644
      4 C          14.2324   43.2360    6.2604 C.ar    1  UNL1        0.1406
      5 C          14.5262   44.4345    5.4328 C.3     1  UNL1        0.0737
      6 N          13.0260   42.6199    6.1592 N.ar    1  UNL1       -0.2348
      7 N          15.1704   42.7570    7.1182 N.ar    1  UNL1       -0.2159
      8 C          11.4116   40.8479    6.7950 C.3     1  UNL1        0.0603
      9 C          11.0736   40.5557    5.3295 C.3     1  UNL1        0.0094
     10 C           9.6501   40.0124    5.1264 C.3     1  UNL1        0.0220
     11 C           8.8610   39.8934    6.4300 C.3     1  UNL1        0.0937
     12 C           7.8249   41.8840    7.6085 C.2     1  UNL1        0.2492
     13 C          10.3166   41.6922    7.4507 C.3     1  UNL1        0.0996
     14 N           8.9843   41.1291    7.2049 N.am    1  UNL1       -0.2757
     15 O           7.9416   43.1172    7.8397 O.2     1  UNL1       -0.2699
     16 C           6.4884   41.2835    7.7816 C.2     1  UNL1        0.0579
     17 C           5.8397   41.2389    8.9374 C.2     1  UNL1        0.0048
     18 N          15.9110   41.1517    8.7930 N.pl3   1  UNL1       -0.2833
     19 H          16.7888   41.5974    8.7922 H       1  UNL1        0.1550
     20 C          15.7416   40.0560    9.7002 C.ar    1  UNL1        0.1328
     21 C          14.5242   39.9111   10.3710 C.ar    1  UNL1        0.0344
     22 C          14.3512   38.8459   11.2567 C.ar    1  UNL1        0.0041
     23 C          15.3909   37.9384   11.4643 C.ar    1  UNL1        0.0148
     24 C          16.5939   38.1130   10.7777 C.ar    1  UNL1        0.0608
     25 C          17.7130   37.1577   10.9849 C.3     1  UNL1        0.0521
     26 N          16.7426   39.1574    9.9189 N.ar    1  UNL1       -0.2349
@<TRIPOS>BOND
     1     1    18    1
     2     1     7   ar
     3    20    26   ar
     4    21    22   ar
     5    23    24   ar
     6    25    24    1
     7     2     3   ar
     8     8     3    1
     9     8     9    1
    10     9    10    1
    11    10    11    1
    12    11    14    1
    13    12    16    1
    14    13    14    1
    15    13     8    1
    16     4     6   ar
    17     5     4    1
    18    18    20    1
    19    14    12   am
    20     1     2   ar
    21    20    21   ar
    22    22    23   ar
    23    24    26   ar
    24     3     6   ar
    25    12    15    2
    26    16    17    2
    27     4     7   ar
    28    18    19    1
@<TRIPOS>MOLECULE
Molport-047-071-926 MCULE-2445915367 PubChem-132764393
 26 28 0 0 0
SMALL
GASTEIGER

@<TRIPOS>ATOM
      1 C           7.5624   41.6898   11.0365 C.ar    1  UNL1        0.1357
      2 C           8.6678   41.4922   10.2094 C.ar    1  UNL1        0.0492
      3 C           9.8937   41.1762   10.7946 C.ar    1  UNL1        0.0644
      4 C           8.9037   41.2629   12.9405 C.ar    1  UNL1        0.1406
      5 C           9.0294   41.1396   14.4158 C.3     1  UNL1        0.0737
      6 N           9.9894   41.0676   12.1478 N.ar    1  UNL1       -0.2348
      7 N           7.7031   41.5712   12.3850 N.ar    1  UNL1       -0.2159
      8 C          11.0894   40.9615    9.9276 C.3     1  UNL1        0.0603
      9 C          10.7856   39.9433    8.8240 C.3     1  UNL1        0.0094
     10 C          12.0200   39.5521    7.9956 C.3     1  UNL1        0.0220
     11 C          13.2992   40.2491    8.4582 C.3     1  UNL1        0.0937
     12 C          14.5887   39.5480   10.5248 C.2     1  UNL1        0.2492
     13 C          12.2932   40.5198   10.7628 C.3     1  UNL1        0.0996
     14 N          13.4286   40.1450    9.9125 N.am    1  UNL1       -0.2757
     15 O          14.4905   39.0518   11.6789 O.2     1  UNL1       -0.2699
     16 C          15.9107   39.4943    9.8720 C.2     1  UNL1        0.0579
     17 C          17.0512   39.3040   10.5215 C.2     1  UNL1        0.0048
     18 N           6.2986   42.0146   10.4456 N.pl3   1  UNL1       -0.2833
     19 H           5.4948   41.6632   10.8925 H       1  UNL1        0.1550
     20 C           6.0924   42.8020    9.2666 C.ar    1  UNL1        0.1328
     21 C           7.0703   42.7999    8.2684 C.ar    1  UNL1        0.0344
     22 C           6.8769   43.5644    7.1164 C.ar    1  UNL1        0.0041
     23 C           5.7135   44.3215    6.9717 C.ar    1  UNL1        0.0148
     24 C           4.7570   44.3005    7.9885 C.ar    1  UNL1        0.0608
     25 C           3.5115   45.0997    7.8535 C.3     1  UNL1        0.0521
     26 N           4.9643   43.5490    9.1032 N.ar    1  UNL1       -0.2349
@<TRIPOS>BOND
     1     1    18    1
     2     1     7   ar
     3    20    26   ar
     4    21    22   ar
     5    23    24   ar
     6    25    24    1
     7     2     3   ar
     8     8     3    1
     9     8     9    1
    10     9    10    1
    11    10    11    1
    12    11    14    1
    13    12    16    1
    14    13    14    1
    15    13     8    1
    16     4     6   ar
    17     5     4    1
    18    18    20    1
    19    14    12   am
    20     1     2   ar
    21    20    21   ar
    22    22    23   ar
    23    24    26   ar
    24     3     6   ar
    25    12    15    2
    26    16    17    2
    27     4     7   ar
    28    18    19    1
@<TRIPOS>MOLECULE
Molport-047-071-926 MCULE-2445915367 PubChem-132764393
 26 28 0 0 0
SMALL
GASTEIGER

@<TRIPOS>ATOM
      1 C          12.0098   41.5365    6.7266 C.ar    1  UNL1        0.1357
      2 C          10.6517   41.8040    6.8967 C.ar    1  UNL1        0.0492
      3 C           9.8989   40.9554    7.7082 C.ar    1  UNL1        0.0644
      4 C          11.8199   39.6449    8.1380 C.ar    1  UNL1        0.1406
      5 C          12.4524   38.4790    8.8075 C.3     1  UNL1        0.0737
      6 N          10.4958   39.8926    8.3132 N.ar    1  UNL1       -0.2348
      7 N          12.5660   40.4625    7.3506 N.ar    1  UNL1       -0.2159
      8 C           8.4437   41.2233    7.9030 C.3     1  UNL1        0.0603
      9 C           8.0727   42.6167    7.3854 C.3     1  UNL1        0.0094
     10 C           6.6245   43.0222    7.7034 C.3     1  UNL1        0.0220
     11 C           5.8603   41.9551    8.4868 C.3     1  UNL1        0.0937
     12 C           6.1880   41.5588   10.9688 C.2     1  UNL1        0.2492
     13 C           8.0550   41.0654    9.3747 C.3     1  UNL1        0.0996
     14 N           6.6692   41.4846    9.6124 N.am    1  UNL1       -0.2757
     15 O           7.0178   41.6016   11.9162 O.2     1  UNL1       -0.2699
     16 C           4.7549   41.5755   11.3191 C.2     1  UNL1        0.0579
     17 C           4.0074   40.4863   11.4359 C.2     1  UNL1        0.0048
     18 N          12.7921   42.4019    5.8953 N.pl3   1  UNL1       -0.2833
     19 H          12.4467   42.5825    4.9912 H       1  UNL1        0.1550
     20 C          14.0291   43.0296    6.2535 C.ar    1  UNL1        0.1328
     21 C          14.3333   44.2851    5.7207 C.ar    1  UNL1        0.0344
     22 C          15.5368   44.9035    6.0649 C.ar    1  UNL1        0.0041
     23 C          16.4224   44.2654    6.9345 C.ar    1  UNL1        0.0148
     24 C          16.0869   43.0115    7.4484 C.ar    1  UNL1        0.0608
     25 C          17.0163   42.3156    8.3758 C.3     1  UNL1        0.0521
     26 N          14.9094   42.4257    7.1008 N.ar    1  UNL1       -0.2349
@<TRIPOS>BOND
     1     1    18    1
     2     1     7   ar
     3    20    26   ar
     4    21    22   ar
     5    23    24   ar
     6    25    24    1
     7     2     3   ar
     8     8     3    1
     9     8     9    1
    10     9    10    1
    11    10    11    1
    12    11    14    1
    13    12    16    1
    14    13    14    1
    15    13     8    1
    16     4     6   ar
    17     5     4    1
    18    18    20    1
    19    14    12   am
    20     1     2   ar
    21    20    21   ar
    22    22    23   ar
    23    24    26   ar
    24     3     6   ar
    25    12    15    2
    26    16    17    2
    27     4     7   ar
    28    18    19    1
