@<TRIPOS>MOLECULE
MolPort-005-066-391 12445768 CHEMBL1727965 CSSS00159486971 MCULE-5230718867 ZINC000012445768
 28 31 0 0 0
SMALL
GASTEIGER

@<TRIPOS>ATOM
      1 C          14.0212   42.0126    7.3992 C.ar    1  UNL1        0.1328
      2 C          14.9020   42.9330    6.8625 C.ar    1  UNL1        0.0565
      3 C          14.1040   43.6761    5.9987 C.ar    1  UNL1        0.1230
      4 N          12.8370   43.2116    6.0346 N.ar    1  UNL1       -0.1666
      5 N          12.7982   42.2030    6.8868 N.ar    1  UNL1       -0.2394
      6 C          11.6018   41.4327    7.2041 C.3     1  UNL1        0.1093
      7 C          11.7480   39.9884    6.7105 C.3     1  UNL1        0.0418
      8 C          12.2012   39.0706    7.8428 C.3     1  UNL1        0.0744
      9 C          10.5103   40.3119    9.1854 C.3     1  UNL1        0.0744
     10 C          11.2964   41.5324    8.7026 C.3     1  UNL1        0.0418
     11 N          11.2209   39.0396    8.9420 N.3     1  UNL1       -0.2675
     12 C          11.8604   38.5628   10.1745 C.3     1  UNL1        0.1205
     13 C          12.2081   37.1004   10.1485 C.ar    1  UNL1        0.0960
     14 C          13.2042   35.2090    9.7962 C.ar    1  UNL1        0.0921
     15 C          13.3189   36.5637    9.5334 C.ar    1  UNL1        0.0378
     16 N          11.4853   36.1394   10.7446 N.ar    1  UNL1       -0.1756
     17 N          12.0927   34.9870   10.5255 N.ar    1  UNL1       -0.2746
     18 H          11.7835   34.1081   10.8435 H       1  UNL1        0.1890
     19 O          16.5488   41.6040    8.7808 O.2     1  UNL1       -0.2698
     20 C          15.5891   40.8216    9.0213 C.2     1  UNL1        0.2505
     21 N          14.3287   40.9931    8.3589 N.am    1  UNL1       -0.2660
     22 H          13.6127   40.3556    8.5827 H       1  UNL1        0.1566
     23 C          15.7633   39.7241    9.9890 C.ar    1  UNL1        0.0537
     24 C          16.8235   38.8156    9.8498 C.ar    1  UNL1        0.0045
     25 C          16.9876   37.7747   10.7685 C.ar    1  UNL1        0.0001
     26 C          16.0932   37.6345   11.8330 C.ar    1  UNL1        0.0000
     27 C          15.0345   38.5351   11.9790 C.ar    1  UNL1        0.0001
     28 C          14.8703   39.5759   11.0604 C.ar    1  UNL1        0.0045
@<TRIPOS>BOND
     1    20    21   am
     2    20    23    1
     3     2     3   ar
     4     6     5    1
     5     6     7    1
     6     7     8    1
     7     8    11    1
     8    12    11    1
     9    12    13    1
    10    15    13   ar
    11     9    11    1
    12     9    10    1
    13    10     6    1
    14    24    25   ar
    15    26    27   ar
    16    28    23   ar
    17    21     1    1
    18     5     4   ar
    19     5     1   ar
    20    17    16   ar
    21    17    14   ar
    22    20    19    2
    23     1     2   ar
    24     3     4   ar
    25    13    16   ar
    26    14    15   ar
    27    23    24   ar
    28    25    26   ar
    29    27    28   ar
    30    21    22    1
    31    17    18    1
@<TRIPOS>MOLECULE
MolPort-005-066-391 12445768 CHEMBL1727965 CSSS00159486971 MCULE-5230718867 ZINC000012445768
 28 31 0 0 0
SMALL
GASTEIGER

@<TRIPOS>ATOM
      1 C          11.6734   41.8025    7.1255 C.ar    1  UNL1        0.1328
      2 C          11.1011   41.5531    5.8922 C.ar    1  UNL1        0.0565
      3 C           9.7395   41.5051    6.1732 C.ar    1  UNL1        0.1230
      4 N           9.5380   41.7143    7.4915 N.ar    1  UNL1       -0.1666
      5 N          10.7173   41.8933    8.0593 N.ar    1  UNL1       -0.2394
      6 C          10.9221   42.1481    9.4800 C.3     1  UNL1        0.1093
      7 C          10.0923   43.3554    9.9328 C.3     1  UNL1        0.0418
      8 C           8.7813   42.9046   10.5715 C.3     1  UNL1        0.0744
      9 C          10.2129   41.2200   11.7180 C.3     1  UNL1        0.0744
     10 C          10.6332   40.8779   10.2873 C.3     1  UNL1        0.0418
     11 N           9.0161   42.0847   11.7725 N.3     1  UNL1       -0.2675
     12 C           7.8207   41.2907   12.0825 C.3     1  UNL1        0.1205
     13 C           6.6823   41.5136   11.1261 C.ar    1  UNL1        0.0960
     14 C           5.4698   41.6416    9.3353 C.ar    1  UNL1        0.0921
     15 C           6.7494   41.3285    9.7618 C.ar    1  UNL1        0.0378
     16 N           5.4503   41.9002   11.4923 N.ar    1  UNL1       -0.1756
     17 N           4.7140   41.9808   10.3984 N.ar    1  UNL1       -0.2746
     18 H           3.7664   42.2458   10.3652 H       1  UNL1        0.1890
     19 O          13.4504   43.8970    6.1662 O.2     1  UNL1       -0.2698
     20 C          13.9184   42.9957    6.9143 C.2     1  UNL1        0.2505
     21 N          13.0717   41.9478    7.4060 N.am    1  UNL1       -0.2660
     22 H          13.4867   41.2695    7.9865 H       1  UNL1        0.1566
     23 C          15.3441   43.0190    7.2858 C.ar    1  UNL1        0.0537
     24 C          16.1856   44.0366    6.8112 C.ar    1  UNL1        0.0045
     25 C          17.5382   44.0575    7.1644 C.ar    1  UNL1        0.0001
     26 C          18.0592   43.0614    7.9946 C.ar    1  UNL1        0.0000
     27 C          17.2280   42.0443    8.4717 C.ar    1  UNL1        0.0001
     28 C          15.8756   42.0233    8.1186 C.ar    1  UNL1        0.0045
@<TRIPOS>BOND
     1    20    21   am
     2    20    23    1
     3     2     3   ar
     4     6     5    1
     5     6     7    1
     6     7     8    1
     7     8    11    1
     8    12    11    1
     9    12    13    1
    10    15    13   ar
    11     9    11    1
    12     9    10    1
    13    10     6    1
    14    24    25   ar
    15    26    27   ar
    16    28    23   ar
    17    21     1    1
    18     5     4   ar
    19     5     1   ar
    20    17    16   ar
    21    17    14   ar
    22    20    19    2
    23     1     2   ar
    24     3     4   ar
    25    13    16   ar
    26    14    15   ar
    27    23    24   ar
    28    25    26   ar
    29    27    28   ar
    30    21    22    1
    31    17    18    1
@<TRIPOS>MOLECULE
MolPort-005-066-391 12445768 CHEMBL1727965 CSSS00159486971 MCULE-5230718867 ZINC000012445768
 28 31 0 0 0
SMALL
GASTEIGER

@<TRIPOS>ATOM
      1 C          15.1705   42.1977    7.7338 C.ar    1  UNL1        0.1328
      2 C          16.4867   42.6076    7.6320 C.ar    1  UNL1        0.0565
      3 C          16.4028   43.7753    6.8806 C.ar    1  UNL1        0.1230
      4 N          15.1136   44.0244    6.5670 N.ar    1  UNL1       -0.1666
      5 N          14.3752   43.0616    7.0892 N.ar    1  UNL1       -0.2394
      6 C          12.9249   42.9733    6.9701 C.3     1  UNL1        0.1093
      7 C          12.5284   41.7316    6.1624 C.3     1  UNL1        0.0418
      8 C          12.1614   40.5754    7.0888 C.3     1  UNL1        0.0744
      9 C          10.9212   42.3211    8.3603 C.3     1  UNL1        0.0744
     10 C          12.2808   43.0226    8.3598 C.3     1  UNL1        0.0418
     11 N          11.0055   40.9073    7.9398 N.3     1  UNL1       -0.2675
     12 C          10.9683   40.0192    9.1083 C.3     1  UNL1        0.1205
     13 C          10.3547   40.6497   10.3274 C.ar    1  UNL1        0.0960
     14 C           8.9680   41.5729   11.7123 C.ar    1  UNL1        0.0921
     15 C           9.0553   41.1020   10.4131 C.ar    1  UNL1        0.0378
     16 N          10.9967   40.8275   11.4925 N.ar    1  UNL1       -0.1756
     17 N          10.1503   41.3937   12.3340 N.ar    1  UNL1       -0.2746
     18 H          10.3508   41.6442   13.2648 H       1  UNL1        0.1890
     19 O          16.6847   40.4259    9.4753 O.2     1  UNL1       -0.2698
     20 C          15.4651   40.1804    9.2674 C.2     1  UNL1        0.2505
     21 N          14.6877   41.0323    8.4148 N.am    1  UNL1       -0.2660
     22 H          13.7406   40.7963    8.2862 H       1  UNL1        0.1566
     23 C          14.8342   39.0110    9.9044 C.ar    1  UNL1        0.0537
     24 C          14.8831   38.8478   11.2971 C.ar    1  UNL1        0.0045
     25 C          14.2842   37.7378   11.9003 C.ar    1  UNL1        0.0001
     26 C          13.6321   36.7829   11.1154 C.ar    1  UNL1        0.0000
     27 C          13.5788   36.9378    9.7276 C.ar    1  UNL1        0.0001
     28 C          14.1775   38.0476    9.1244 C.ar    1  UNL1        0.0045
@<TRIPOS>BOND
     1    20    21   am
     2    20    23    1
     3     2     3   ar
     4     6     5    1
     5     6     7    1
     6     7     8    1
     7     8    11    1
     8    12    11    1
     9    12    13    1
    10    15    13   ar
    11     9    11    1
    12     9    10    1
    13    10     6    1
    14    24    25   ar
    15    26    27   ar
    16    28    23   ar
    17    21     1    1
    18     5     4   ar
    19     5     1   ar
    20    17    16   ar
    21    17    14   ar
    22    20    19    2
    23     1     2   ar
    24     3     4   ar
    25    13    16   ar
    26    14    15   ar
    27    23    24   ar
    28    25    26   ar
    29    27    28   ar
    30    21    22    1
    31    17    18    1
@<TRIPOS>MOLECULE
MolPort-005-066-391 12445768 CHEMBL1727965 CSSS00159486971 MCULE-5230718867 ZINC000012445768
 28 31 0 0 0
SMALL
GASTEIGER

@<TRIPOS>ATOM
      1 C          13.2976   37.0002   10.0758 C.ar    1  UNL1        0.1328
      2 C          12.8270   35.7408   10.3971 C.ar    1  UNL1        0.0565
      3 C          11.4474   35.9138   10.4388 C.ar    1  UNL1        0.1230
      4 N          11.1399   37.1980   10.1583 N.ar    1  UNL1       -0.1666
      5 N          12.2691   37.8477    9.9400 N.ar    1  UNL1       -0.2394
      6 C          12.3583   39.2639    9.6054 C.3     1  UNL1        0.1093
      7 C          11.7943   39.5194    8.2026 C.3     1  UNL1        0.0418
      8 C          10.3470   39.9983    8.2779 C.3     1  UNL1        0.0744
      9 C          11.1858   41.4372   10.1295 C.3     1  UNL1        0.0744
     10 C          11.6791   40.1032   10.6930 C.3     1  UNL1        0.0418
     11 N          10.2335   41.2703    9.0122 N.3     1  UNL1       -0.2675
     12 C           8.8544   41.4623    9.4777 C.3     1  UNL1        0.1205
     13 C           8.3379   42.8600    9.2773 C.ar    1  UNL1        0.0960
     14 C           7.2577   44.5891    8.5449 C.ar    1  UNL1        0.0921
     15 C           7.4170   43.2319    8.3214 C.ar    1  UNL1        0.0378
     16 N           8.6974   43.9147   10.0254 N.ar    1  UNL1       -0.1756
     17 N           8.0402   44.9682    9.5747 N.ar    1  UNL1       -0.2746
     18 H           8.1106   45.8825    9.9331 H       1  UNL1        0.1890
     19 O          15.3405   37.1846   12.1391 O.2     1  UNL1       -0.2698
     20 C          15.6496   37.4636   10.9485 C.2     1  UNL1        0.2505
     21 N          14.6684   37.3835    9.9056 N.am    1  UNL1       -0.2660
     22 H          14.9617   37.6115    8.9938 H       1  UNL1        0.1566
     23 C          17.0275   37.8744   10.6263 C.ar    1  UNL1        0.0537
     24 C          17.3006   39.1899   10.2217 C.ar    1  UNL1        0.0045
     25 C          18.6084   39.5784    9.9162 C.ar    1  UNL1        0.0001
     26 C          19.6525   38.6547   10.0129 C.ar    1  UNL1        0.0000
     27 C          19.3892   37.3425   10.4151 C.ar    1  UNL1        0.0001
     28 C          18.0817   36.9539   10.7207 C.ar    1  UNL1        0.0045
@<TRIPOS>BOND
     1    20    21   am
     2    20    23    1
     3     2     3   ar
     4     6     5    1
     5     6     7    1
     6     7     8    1
     7     8    11    1
     8    12    11    1
     9    12    13    1
    10    15    13   ar
    11     9    11    1
    12     9    10    1
    13    10     6    1
    14    24    25   ar
    15    26    27   ar
    16    28    23   ar
    17    21     1    1
    18     5     4   ar
    19     5     1   ar
    20    17    16   ar
    21    17    14   ar
    22    20    19    2
    23     1     2   ar
    24     3     4   ar
    25    13    16   ar
    26    14    15   ar
    27    23    24   ar
    28    25    26   ar
    29    27    28   ar
    30    21    22    1
    31    17    18    1
@<TRIPOS>MOLECULE
MolPort-005-066-391 12445768 CHEMBL1727965 CSSS00159486971 MCULE-5230718867 ZINC000012445768
 28 31 0 0 0
SMALL
GASTEIGER

@<TRIPOS>ATOM
      1 C          14.1649   41.8252    7.6761 C.ar    1  UNL1        0.1328
      2 C          14.8004   42.6760    6.7911 C.ar    1  UNL1        0.0565
      3 C          13.7576   43.4340    6.2685 C.ar    1  UNL1        0.1230
      4 N          12.5888   43.0432    6.8194 N.ar    1  UNL1       -0.1666
      5 N          12.8474   42.0672    7.6712 N.ar    1  UNL1       -0.2394
      6 C          11.8418   41.3768    8.4695 C.3     1  UNL1        0.1093
      7 C          10.6385   42.2925    8.7240 C.3     1  UNL1        0.0418
      8 C           9.5194   42.0091    7.7255 C.3     1  UNL1        0.0744
      9 C          10.0480   39.6215    8.1966 C.3     1  UNL1        0.0744
     10 C          11.4626   40.0505    7.8019 C.3     1  UNL1        0.0418
     11 N           9.0246   40.6265    7.8425 N.3     1  UNL1       -0.2675
     12 C           8.3233   40.2365    6.6131 C.3     1  UNL1        0.1205
     13 C           9.2306   39.6853    5.5485 C.ar    1  UNL1        0.0960
     14 C          10.7074   39.4916    3.9753 C.ar    1  UNL1        0.0921
     15 C          10.0959   40.4364    4.7822 C.ar    1  UNL1        0.0378
     16 N           9.3230   38.3845    5.2313 N.ar    1  UNL1       -0.1756
     17 N          10.2214   38.2695    4.2696 N.ar    1  UNL1       -0.2746
     18 H          10.4921   37.4272    3.8378 H       1  UNL1        0.1890
     19 O          16.7560   41.9809    8.9903 O.2     1  UNL1       -0.2698
     20 C          16.0656   40.9340    9.1257 C.2     1  UNL1        0.2505
     21 N          14.7836   40.8223    8.4925 N.am    1  UNL1       -0.2660
     22 H          14.2855   39.9845    8.6303 H       1  UNL1        0.1566
     23 C          16.5788   39.8181    9.9398 C.ar    1  UNL1        0.0537
     24 C          15.6946   38.9859   10.6428 C.ar    1  UNL1        0.0045
     25 C          16.1828   37.9276   11.4149 C.ar    1  UNL1        0.0001
     26 C          17.5584   37.6936   11.4898 C.ar    1  UNL1        0.0000
     27 C          18.4461   38.5177   10.7927 C.ar    1  UNL1        0.0001
     28 C          17.9581   39.5759   10.0206 C.ar    1  UNL1        0.0045
@<TRIPOS>BOND
     1    20    21   am
     2    20    23    1
     3     2     3   ar
     4     6     5    1
     5     6     7    1
     6     7     8    1
     7     8    11    1
     8    12    11    1
     9    12    13    1
    10    15    13   ar
    11     9    11    1
    12     9    10    1
    13    10     6    1
    14    24    25   ar
    15    26    27   ar
    16    28    23   ar
    17    21     1    1
    18     5     4   ar
    19     5     1   ar
    20    17    16   ar
    21    17    14   ar
    22    20    19    2
    23     1     2   ar
    24     3     4   ar
    25    13    16   ar
    26    14    15   ar
    27    23    24   ar
    28    25    26   ar
    29    27    28   ar
    30    21    22    1
    31    17    18    1
@<TRIPOS>MOLECULE
MolPort-005-066-391 12445768 CHEMBL1727965 CSSS00159486971 MCULE-5230718867 ZINC000012445768
 28 31 0 0 0
SMALL
GASTEIGER

@<TRIPOS>ATOM
      1 C          10.5715   40.7573    5.1512 C.ar    1  UNL1        0.1328
      2 C          10.5708   39.5661    4.4499 C.ar    1  UNL1        0.0565
      3 C           9.2488   39.1421    4.5375 C.ar    1  UNL1        0.1230
      4 N           8.5289   40.0361    5.2480 N.ar    1  UNL1       -0.1666
      5 N           9.3409   41.0113    5.6153 N.ar    1  UNL1       -0.2394
      6 C           8.9391   42.1713    6.4016 C.3     1  UNL1        0.1093
      7 C           7.4207   42.3709    6.3245 C.3     1  UNL1        0.0418
      8 C           6.7301   41.7592    7.5405 C.3     1  UNL1        0.0744
      9 C           8.5856   42.8255    8.8141 C.3     1  UNL1        0.0744
     10 C           9.4600   42.0377    7.8367 C.3     1  UNL1        0.0418
     11 N           7.1723   42.3954    8.7934 N.3     1  UNL1       -0.2675
     12 C           6.8844   41.5168    9.9338 C.3     1  UNL1        0.1205
     13 C           5.4276   41.1758   10.0817 C.ar    1  UNL1        0.0960
     14 C           3.4912   40.6483   10.8971 C.ar    1  UNL1        0.0921
     15 C           4.8061   40.8662   11.2724 C.ar    1  UNL1        0.0378
     16 N           4.5483   41.1546    9.0680 N.ar    1  UNL1       -0.1756
     17 N           3.3693   40.8293    9.5671 N.ar    1  UNL1       -0.2746
     18 H           2.5362   40.7344    9.0511 H       1  UNL1        0.1890
     19 O          12.5769   40.5275    7.2466 O.2     1  UNL1       -0.2698
     20 C          12.6661   41.4748    6.4186 C.2     1  UNL1        0.2505
     21 N          11.6956   41.6190    5.3725 N.am    1  UNL1       -0.2660
     22 H          11.8115   42.3751    4.7528 H       1  UNL1        0.1566
     23 C          13.7744   42.4399    6.5261 C.ar    1  UNL1        0.0537
     24 C          13.7499   43.6349    5.7911 C.ar    1  UNL1        0.0045
     25 C          14.8021   44.5497    5.8939 C.ar    1  UNL1        0.0001
     26 C          15.8863   44.2765    6.7320 C.ar    1  UNL1        0.0000
     27 C          15.9187   43.0887    7.4676 C.ar    1  UNL1        0.0001
     28 C          14.8667   42.1739    7.3649 C.ar    1  UNL1        0.0045
@<TRIPOS>BOND
     1    20    21   am
     2    20    23    1
     3     2     3   ar
     4     6     5    1
     5     6     7    1
     6     7     8    1
     7     8    11    1
     8    12    11    1
     9    12    13    1
    10    15    13   ar
    11     9    11    1
    12     9    10    1
    13    10     6    1
    14    24    25   ar
    15    26    27   ar
    16    28    23   ar
    17    21     1    1
    18     5     4   ar
    19     5     1   ar
    20    17    16   ar
    21    17    14   ar
    22    20    19    2
    23     1     2   ar
    24     3     4   ar
    25    13    16   ar
    26    14    15   ar
    27    23    24   ar
    28    25    26   ar
    29    27    28   ar
    30    21    22    1
    31    17    18    1
@<TRIPOS>MOLECULE
MolPort-005-066-391 12445768 CHEMBL1727965 CSSS00159486971 MCULE-5230718867 ZINC000012445768
 28 31 0 0 0
SMALL
GASTEIGER

@<TRIPOS>ATOM
      1 C           9.3302   39.9757    6.3242 C.ar    1  UNL1        0.1328
      2 C           9.0929   39.0550    5.3208 C.ar    1  UNL1        0.0565
      3 C          10.1726   39.2302    4.4614 C.ar    1  UNL1        0.1230
      4 N          10.9853   40.1957    4.9408 N.ar    1  UNL1       -0.1666
      5 N          10.4649   40.6409    6.0704 N.ar    1  UNL1       -0.2394
      6 C          11.0504   41.6913    6.8945 C.3     1  UNL1        0.1093
      7 C          11.3160   41.1737    8.3132 C.3     1  UNL1        0.0418
      8 C          12.7708   40.7390    8.4694 C.3     1  UNL1        0.0744
      9 C          13.2678   42.8474    7.2405 C.3     1  UNL1        0.0744
     10 C          12.3009   42.2568    6.2125 C.3     1  UNL1        0.0418
     11 N          13.6992   41.8622    8.2536 N.3     1  UNL1       -0.2675
     12 C          15.0405   41.3543    7.9397 C.3     1  UNL1        0.1205
     13 C          16.1007   42.4201    7.9184 C.ar    1  UNL1        0.0960
     14 C          17.8703   43.5970    8.3387 C.ar    1  UNL1        0.0921
     15 C          17.2012   42.4557    8.7477 C.ar    1  UNL1        0.0378
     16 N          16.1137   43.4584    7.0681 N.ar    1  UNL1       -0.1756
     17 N          17.1916   44.1762    7.3287 N.ar    1  UNL1       -0.2746
     18 H          17.4563   45.0010    6.8607 H       1  UNL1        0.1890
     19 O           6.9463   41.6369    6.4739 O.2     1  UNL1       -0.2698
     20 C           7.3411   41.0420    7.5137 C.2     1  UNL1        0.2505
     21 N           8.5121   40.2147    7.4769 N.am    1  UNL1       -0.2660
     22 H           8.7770   39.7728    8.3158 H       1  UNL1        0.1566
     23 C           6.5949   41.1974    8.7747 C.ar    1  UNL1        0.0537
     24 C           5.1956   41.0947    8.7897 C.ar    1  UNL1        0.0045
     25 C           4.4887   41.2425    9.9867 C.ar    1  UNL1        0.0001
     26 C           5.1755   41.4940   11.1774 C.ar    1  UNL1        0.0000
     27 C           6.5691   41.5979   11.1714 C.ar    1  UNL1        0.0001
     28 C           7.2761   41.4501    9.9745 C.ar    1  UNL1        0.0045
@<TRIPOS>BOND
     1    20    21   am
     2    20    23    1
     3     2     3   ar
     4     6     5    1
     5     6     7    1
     6     7     8    1
     7     8    11    1
     8    12    11    1
     9    12    13    1
    10    15    13   ar
    11     9    11    1
    12     9    10    1
    13    10     6    1
    14    24    25   ar
    15    26    27   ar
    16    28    23   ar
    17    21     1    1
    18     5     4   ar
    19     5     1   ar
    20    17    16   ar
    21    17    14   ar
    22    20    19    2
    23     1     2   ar
    24     3     4   ar
    25    13    16   ar
    26    14    15   ar
    27    23    24   ar
    28    25    26   ar
    29    27    28   ar
    30    21    22    1
    31    17    18    1
@<TRIPOS>MOLECULE
MolPort-005-066-391 12445768 CHEMBL1727965 CSSS00159486971 MCULE-5230718867 ZINC000012445768
 28 31 0 0 0
SMALL
GASTEIGER

@<TRIPOS>ATOM
      1 C          13.0088   39.9981    9.4171 C.ar    1  UNL1        0.1328
      2 C          13.4088   38.8548   10.0832 C.ar    1  UNL1        0.0565
      3 C          12.2078   38.2200   10.3825 C.ar    1  UNL1        0.1230
      4 N          11.1751   38.9542    9.9167 N.ar    1  UNL1       -0.1666
      5 N          11.6722   40.0301    9.3334 N.ar    1  UNL1       -0.2394
      6 C          10.8733   41.0746    8.7041 C.3     1  UNL1        0.1093
      7 C          11.3895   41.3649    7.2897 C.3     1  UNL1        0.0418
      8 C          10.5691   40.6107    6.2466 C.3     1  UNL1        0.0744
      9 C           8.6210   41.3664    7.6017 C.3     1  UNL1        0.0744
     10 C           9.3894   40.6932    8.7406 C.3     1  UNL1        0.0418
     11 N           9.1545   41.0212    6.2678 N.3     1  UNL1       -0.2675
     12 C           8.3219   39.9937    5.6302 C.3     1  UNL1        0.1205
     13 C           9.0313   39.2254    4.5500 C.ar    1  UNL1        0.0960
     14 C          10.1626   37.7273    3.4688 C.ar    1  UNL1        0.0921
     15 C           9.7043   38.0372    4.7382 C.ar    1  UNL1        0.0378
     16 N           9.0746   39.5961    3.2609 N.ar    1  UNL1       -0.1756
     17 N           9.7678   38.6830    2.6045 N.ar    1  UNL1       -0.2746
     18 H           9.9642   38.6982    1.6399 H       1  UNL1        0.1890
     19 O          15.9068   39.9184    9.1720 O.2     1  UNL1       -0.2698
     20 C          15.2896   40.9453    8.7775 C.2     1  UNL1        0.2505
     21 N          13.8612   41.0193    8.8827 N.am    1  UNL1       -0.2660
     22 H          13.4286   41.8427    8.5600 H       1  UNL1        0.1566
     23 C          16.0403   42.0764    8.2047 C.ar    1  UNL1        0.0537
     24 C          15.4653   42.8787    7.2075 C.ar    1  UNL1        0.0045
     25 C          16.1787   43.9516    6.6647 C.ar    1  UNL1        0.0001
     26 C          17.4720   44.2301    7.1148 C.ar    1  UNL1        0.0000
     27 C          18.0521   43.4360    8.1077 C.ar    1  UNL1        0.0001
     28 C          17.3390   42.3632    8.6505 C.ar    1  UNL1        0.0045
@<TRIPOS>BOND
     1    20    21   am
     2    20    23    1
     3     2     3   ar
     4     6     5    1
     5     6     7    1
     6     7     8    1
     7     8    11    1
     8    12    11    1
     9    12    13    1
    10    15    13   ar
    11     9    11    1
    12     9    10    1
    13    10     6    1
    14    24    25   ar
    15    26    27   ar
    16    28    23   ar
    17    21     1    1
    18     5     4   ar
    19     5     1   ar
    20    17    16   ar
    21    17    14   ar
    22    20    19    2
    23     1     2   ar
    24     3     4   ar
    25    13    16   ar
    26    14    15   ar
    27    23    24   ar
    28    25    26   ar
    29    27    28   ar
    30    21    22    1
    31    17    18    1
@<TRIPOS>MOLECULE
MolPort-005-066-391 12445768 CHEMBL1727965 CSSS00159486971 MCULE-5230718867 ZINC000012445768
 28 31 0 0 0
SMALL
GASTEIGER

@<TRIPOS>ATOM
      1 C          10.4982   40.8102    5.1911 C.ar    1  UNL1        0.1328
      2 C          10.4679   39.6414    4.4535 C.ar    1  UNL1        0.0565
      3 C           9.1404   39.2362    4.5471 C.ar    1  UNL1        0.1230
      4 N           8.4455   40.1194    5.2951 N.ar    1  UNL1       -0.1666
      5 N           9.2785   41.0694    5.6805 N.ar    1  UNL1       -0.2394
      6 C           8.9070   42.2108    6.5078 C.3     1  UNL1        0.1093
      7 C           7.3964   42.4618    6.4272 C.3     1  UNL1        0.0418
      8 C           6.6762   41.8265    7.6136 C.3     1  UNL1        0.0744
      9 C           8.5536   42.7834    8.9410 C.3     1  UNL1        0.0744
     10 C           9.4110   42.0059    7.9405 C.3     1  UNL1        0.0418
     11 N           7.1276   42.3999    8.8933 N.3     1  UNL1       -0.2675
     12 C           6.8022   41.4881    9.9969 C.3     1  UNL1        0.1205
     13 C           7.7866   41.5376   11.1322 C.ar    1  UNL1        0.0960
     14 C           9.5526   41.2851   12.3614 C.ar    1  UNL1        0.0921
     15 C           9.0354   40.9540   11.1203 C.ar    1  UNL1        0.0378
     16 N           7.5741   42.1796   12.2914 N.ar    1  UNL1       -0.1756
     17 N           8.6506   42.0213   13.0404 N.ar    1  UNL1       -0.2746
     18 H           8.7741   42.3827   13.9478 H       1  UNL1        0.1890
     19 O          12.5351   40.4762    7.2416 O.2     1  UNL1       -0.2698
     20 C          12.6251   41.4506    6.4457 C.2     1  UNL1        0.2505
     21 N          11.6394   41.6463    5.4225 N.am    1  UNL1       -0.2660
     22 H          11.7566   42.4219    4.8277 H       1  UNL1        0.1566
     23 C          13.7502   42.3944    6.5673 C.ar    1  UNL1        0.0537
     24 C          13.7468   43.6004    5.8501 C.ar    1  UNL1        0.0045
     25 C          14.8150   44.4949    5.9663 C.ar    1  UNL1        0.0001
     26 C          15.8941   44.1903    6.8002 C.ar    1  UNL1        0.0000
     27 C          15.9055   42.9913    7.5181 C.ar    1  UNL1        0.0001
     28 C          14.8375   42.0968    7.4020 C.ar    1  UNL1        0.0045
@<TRIPOS>BOND
     1    20    21   am
     2    20    23    1
     3     2     3   ar
     4     6     5    1
     5     6     7    1
     6     7     8    1
     7     8    11    1
     8    12    11    1
     9    12    13    1
    10    15    13   ar
    11     9    11    1
    12     9    10    1
    13    10     6    1
    14    24    25   ar
    15    26    27   ar
    16    28    23   ar
    17    21     1    1
    18     5     4   ar
    19     5     1   ar
    20    17    16   ar
    21    17    14   ar
    22    20    19    2
    23     1     2   ar
    24     3     4   ar
    25    13    16   ar
    26    14    15   ar
    27    23    24   ar
    28    25    26   ar
    29    27    28   ar
    30    21    22    1
    31    17    18    1
@<TRIPOS>MOLECULE
MolPort-005-066-391 12445768 CHEMBL1727965 CSSS00159486971 MCULE-5230718867 ZINC000012445768
 28 31 0 0 0
SMALL
GASTEIGER

@<TRIPOS>ATOM
      1 C          10.5381   40.7870    5.1250 C.ar    1  UNL1        0.1328
      2 C          10.5022   39.6477    4.3430 C.ar    1  UNL1        0.0565
      3 C           9.1795   39.2293    4.4445 C.ar    1  UNL1        0.1230
      4 N           8.4923   40.0774    5.2388 N.ar    1  UNL1       -0.1666
      5 N           9.3257   41.0180    5.6460 N.ar    1  UNL1       -0.2394
      6 C           8.9617   42.1235    6.5238 C.3     1  UNL1        0.1093
      7 C           7.4881   42.4998    6.3284 C.3     1  UNL1        0.0418
      8 C           6.6137   41.8412    7.3921 C.3     1  UNL1        0.0744
      9 C           8.4211   42.5474    8.9530 C.3     1  UNL1        0.0744
     10 C           9.3107   41.7771    7.9753 C.3     1  UNL1        0.0418
     11 N           6.9819   42.2838    8.7480 N.3     1  UNL1       -0.2675
     12 C           6.4871   41.3245    9.7432 C.3     1  UNL1        0.1205
     13 C           5.1388   41.6789   10.3061 C.ar    1  UNL1        0.0960
     14 C           3.0469   42.2039   10.5104 C.ar    1  UNL1        0.0921
     15 C           4.0175   41.9571    9.5541 C.ar    1  UNL1        0.0378
     16 N           4.8590   41.7446   11.6171 N.ar    1  UNL1       -0.1756
     17 N           3.5841   42.0682   11.7390 N.ar    1  UNL1       -0.2746
     18 H           3.1040   42.1906   12.5898 H       1  UNL1        0.1890
     19 O          12.5029   40.5033    7.2519 O.2     1  UNL1       -0.2698
     20 C          12.6272   41.4516    6.4296 C.2     1  UNL1        0.2505
     21 N          11.6776   41.6220    5.3684 N.am    1  UNL1       -0.2660
     22 H          11.8207   42.3778    4.7540 H       1  UNL1        0.1566
     23 C          13.7552   42.3909    6.5594 C.ar    1  UNL1        0.0537
     24 C          14.8363   42.0909    7.4020 C.ar    1  UNL1        0.0045
     25 C          15.9058   42.9829    7.5244 C.ar    1  UNL1        0.0001
     26 C          15.9023   44.1812    6.8054 C.ar    1  UNL1        0.0000
     27 C          14.8294   44.4877    5.9640 C.ar    1  UNL1        0.0001
     28 C          13.7599   43.5959    5.8416 C.ar    1  UNL1        0.0045
@<TRIPOS>BOND
     1    20    21   am
     2    20    23    1
     3     2     3   ar
     4     6     5    1
     5     6     7    1
     6     7     8    1
     7     8    11    1
     8    12    11    1
     9    12    13    1
    10    15    13   ar
    11     9    11    1
    12     9    10    1
    13    10     6    1
    14    24    25   ar
    15    26    27   ar
    16    28    23   ar
    17    21     1    1
    18     5     4   ar
    19     5     1   ar
    20    17    16   ar
    21    17    14   ar
    22    20    19    2
    23     1     2   ar
    24     3     4   ar
    25    13    16   ar
    26    14    15   ar
    27    23    24   ar
    28    25    26   ar
    29    27    28   ar
    30    21    22    1
    31    17    18    1
