@<TRIPOS>MOLECULE
MolPort-001-982-606 203121 CHEMBL1566340 CSSS00159737014 ChemDiv-5254-2769 MCULE-4065647770 PubChem-752229 ZINC000000203121 ZINC00203121
 23 26 0 0 0
SMALL
GASTEIGER

@<TRIPOS>ATOM
      1 C          12.6415   41.7131    6.6828 C.ar    1  UNL1        0.1678
      2 C          14.4813   42.7574    6.5399 C.ar    1  UNL1        0.0987
      3 C          15.5401   43.5890    6.1842 C.ar    1  UNL1        0.0206
      4 C          16.7231   43.4914    6.9409 C.ar    1  UNL1        0.0016
      5 C          16.8165   42.5780    8.0154 C.ar    1  UNL1        0.0016
      6 C          15.7279   41.7508    8.3481 C.ar    1  UNL1        0.0188
      7 C          14.5721   41.8774    7.5780 C.ar    1  UNL1        0.0789
      8 N          13.2721   42.6750    5.9554 N.ar    1  UNL1       -0.2250
      9 N          13.4133   41.2129    7.6859 N.ar    1  UNL1       -0.3101
     10 C          10.5759   40.2268    6.9530 C.ar    1  UNL1        0.1997
     11 C          11.2624   41.2752    6.3918 C.ar    1  UNL1        0.1910
     12 O           9.3270   41.1640    5.5472 O.2     1  UNL1       -0.2402
     13 N           9.3522   40.1784    6.4010 N.ar    1  UNL1       -0.0329
     14 N          10.4364   41.8499    5.4996 N.ar    1  UNL1       -0.0438
     15 C          11.0079   37.3018    9.4473 C.3     1  UNL1        0.0950
     16 C          10.3891   38.1489    8.3950 C.2     1  UNL1        0.2278
     17 O           9.2783   37.8152    7.9043 O.2     1  UNL1       -0.2747
     18 N          11.0657   39.3304    7.9564 N.am    1  UNL1       -0.2653
     19 H          11.9312   39.5427    8.3749 H       1  UNL1        0.1564
     20 C          13.1020   40.1433    8.6264 C.3     1  UNL1        0.1075
     21 C          13.6744   40.4707    9.9926 C.3     1  UNL1        0.0227
     22 C          12.7981   39.8496   11.0603 C.3     1  UNL1        0.0020
     23 C          14.1005   39.1852   10.6694 C.3     1  UNL1        0.0020
@<TRIPOS>BOND
     1    15    16    1
     2    16    18   am
     3    11     1    1
     4    11    10   ar
     5     2     8   ar
     6     3     4   ar
     7     5     6   ar
     8     7     9   ar
     9     7     2   ar
    10    20     9    1
    11    20    21    1
    12    21    22    1
    13    22    23    1
    14    23    21    1
    15    12    14   ar
    16    18    10    1
    17    13    12   ar
    18     9     1   ar
    19    16    17    2
    20    10    13   ar
    21    11    14   ar
    22     1     8   ar
    23     2     3   ar
    24     4     5   ar
    25     6     7   ar
    26    18    19    1
@<TRIPOS>MOLECULE
MolPort-001-982-606 203121 CHEMBL1566340 CSSS00159737014 ChemDiv-5254-2769 MCULE-4065647770 PubChem-752229 ZINC000000203121 ZINC00203121
 23 26 0 0 0
SMALL
GASTEIGER

@<TRIPOS>ATOM
      1 C          12.6562   41.9194    6.7313 C.ar    1  UNL1        0.1678
      2 C          14.5463   42.8784    6.6732 C.ar    1  UNL1        0.0987
      3 C          15.6448   43.6860    6.3898 C.ar    1  UNL1        0.0206
      4 C          16.8243   43.4560    7.1230 C.ar    1  UNL1        0.0016
      5 C          16.8751   42.4396    8.1037 C.ar    1  UNL1        0.0016
      6 C          15.7470   41.6402    8.3648 C.ar    1  UNL1        0.0188
      7 C          14.5962   41.8988    7.6208 C.ar    1  UNL1        0.0789
      8 N          13.3321   42.9140    6.0943 N.ar    1  UNL1       -0.2250
      9 N          13.4054   41.2863    7.6746 N.ar    1  UNL1       -0.3101
     10 C          10.1483   41.7408    7.2083 C.ar    1  UNL1        0.1997
     11 C          11.2553   41.5818    6.4118 C.ar    1  UNL1        0.1910
     12 O           9.5386   40.9022    5.3810 O.2     1  UNL1       -0.2402
     13 N           9.0736   41.3031    6.5317 N.ar    1  UNL1       -0.0329
     14 N          10.8299   41.0441    5.2549 N.ar    1  UNL1       -0.0438
     15 C           9.1973   43.6264   10.4493 C.3     1  UNL1        0.0950
     16 C           9.1007   43.1336    9.0509 C.2     1  UNL1        0.2278
     17 O           8.1182   43.4736    8.3402 O.2     1  UNL1       -0.2747
     18 N          10.1262   42.2804    8.5345 N.am    1  UNL1       -0.2653
     19 H          10.8709   42.0471    9.1346 H       1  UNL1        0.1564
     20 C          13.0436   40.1479    8.5105 C.3     1  UNL1        0.1075
     21 C          12.7720   40.6114    9.9292 C.3     1  UNL1        0.0227
     22 C          11.7248   39.7128   10.5536 C.3     1  UNL1        0.0020
     23 C          13.1871   39.5195   10.8923 C.3     1  UNL1        0.0020
@<TRIPOS>BOND
     1    15    16    1
     2    16    18   am
     3    11     1    1
     4    11    10   ar
     5     2     8   ar
     6     3     4   ar
     7     5     6   ar
     8     7     9   ar
     9     7     2   ar
    10    20     9    1
    11    20    21    1
    12    21    22    1
    13    22    23    1
    14    23    21    1
    15    12    14   ar
    16    18    10    1
    17    13    12   ar
    18     9     1   ar
    19    16    17    2
    20    10    13   ar
    21    11    14   ar
    22     1     8   ar
    23     2     3   ar
    24     4     5   ar
    25     6     7   ar
    26    18    19    1
@<TRIPOS>MOLECULE
MolPort-001-982-606 203121 CHEMBL1566340 CSSS00159737014 ChemDiv-5254-2769 MCULE-4065647770 PubChem-752229 ZINC000000203121 ZINC00203121
 23 26 0 0 0
SMALL
GASTEIGER

@<TRIPOS>ATOM
      1 C          11.6204   41.2731    7.3474 C.ar    1  UNL1        0.1678
      2 C          13.1556   42.5437    6.6231 C.ar    1  UNL1        0.0987
      3 C          13.9175   43.4994    5.9558 C.ar    1  UNL1        0.0206
      4 C          15.2889   43.5667    6.2660 C.ar    1  UNL1        0.0016
      5 C          15.8549   42.6895    7.2186 C.ar    1  UNL1        0.0016
      6 C          15.0570   41.7339    7.8744 C.ar    1  UNL1        0.0188
      7 C          13.7027   41.6986    7.5433 C.ar    1  UNL1        0.0789
      8 N          11.8407   42.2971    6.4786 N.ar    1  UNL1       -0.2250
      9 N          12.7427   40.8919    8.0162 N.ar    1  UNL1       -0.3101
     10 C           9.7381   39.6257    6.8073 C.ar    1  UNL1        0.1997
     11 C          10.2913   40.6565    7.5259 C.ar    1  UNL1        0.1910
     12 O           8.3557   40.2369    8.2665 O.2     1  UNL1       -0.2402
     13 N           8.5118   39.3789    7.2968 N.ar    1  UNL1       -0.0329
     14 N           9.3824   41.0222    8.4471 N.ar    1  UNL1       -0.0438
     15 C          10.6373   38.2007    3.3252 C.3     1  UNL1        0.0950
     16 C           9.9113   38.9809    4.3605 C.2     1  UNL1        0.2278
     17 O           8.9198   39.6819    4.0267 O.2     1  UNL1       -0.2747
     18 N          10.3507   38.9228    5.7206 N.am    1  UNL1       -0.2653
     19 H          11.1313   38.3584    5.9242 H       1  UNL1        0.1564
     20 C          12.9058   39.8055    8.9746 C.3     1  UNL1        0.1075
     21 C          13.3480   40.3590   10.3161 C.3     1  UNL1        0.0227
     22 C          12.9173   39.4072   11.4126 C.3     1  UNL1        0.0020
     23 C          14.3530   39.4101   10.9337 C.3     1  UNL1        0.0020
@<TRIPOS>BOND
     1    15    16    1
     2    16    18   am
     3    11     1    1
     4    11    10   ar
     5     2     8   ar
     6     3     4   ar
     7     5     6   ar
     8     7     9   ar
     9     7     2   ar
    10    20     9    1
    11    20    21    1
    12    21    22    1
    13    22    23    1
    14    23    21    1
    15    12    14   ar
    16    18    10    1
    17    13    12   ar
    18     9     1   ar
    19    16    17    2
    20    10    13   ar
    21    11    14   ar
    22     1     8   ar
    23     2     3   ar
    24     4     5   ar
    25     6     7   ar
    26    18    19    1
@<TRIPOS>MOLECULE
MolPort-001-982-606 203121 CHEMBL1566340 CSSS00159737014 ChemDiv-5254-2769 MCULE-4065647770 PubChem-752229 ZINC000000203121 ZINC00203121
 23 26 0 0 0
SMALL
GASTEIGER

@<TRIPOS>ATOM
      1 C           7.1071   43.5596    8.6824 C.ar    1  UNL1        0.1678
      2 C           9.1126   43.4194    9.3565 C.ar    1  UNL1        0.0987
      3 C          10.3342   43.5719   10.0072 C.ar    1  UNL1        0.0206
      4 C          11.4042   42.7665    9.5734 C.ar    1  UNL1        0.0016
      5 C          11.2287   41.8454    8.5160 C.ar    1  UNL1        0.0016
      6 C           9.9808   41.7168    7.8787 C.ar    1  UNL1        0.0188
      7 C           8.9440   42.5291    8.3371 C.ar    1  UNL1        0.0789
      8 N           7.9679   44.0851    9.5961 N.ar    1  UNL1       -0.2250
      9 N           7.6780   42.6008    7.9034 N.ar    1  UNL1       -0.3101
     10 C           4.6026   43.4824    9.2021 C.ar    1  UNL1        0.1997
     11 C           5.7038   44.0027    8.5684 C.ar    1  UNL1        0.1910
     12 O           3.9780   45.0745    7.9817 O.2     1  UNL1       -0.2402
     13 N           3.5221   44.1795    8.8136 N.ar    1  UNL1       -0.0329
     14 N           5.2689   45.0155    7.7979 N.ar    1  UNL1       -0.0438
     15 C           3.7405   40.2363   11.1214 C.3     1  UNL1        0.0950
     16 C           3.6409   41.3168   10.1064 C.2     1  UNL1        0.2278
     17 O           2.7219   41.2765    9.2462 O.2     1  UNL1       -0.2747
     18 N           4.5911   42.3859   10.1229 N.am    1  UNL1       -0.2653
     19 H           5.2880   42.3664   10.8180 H       1  UNL1        0.1564
     20 C           7.0902   41.8621    6.7925 C.3     1  UNL1        0.1075
     21 C           6.7092   40.4643    7.2425 C.3     1  UNL1        0.0227
     22 C           6.1563   39.6952    6.0608 C.3     1  UNL1        0.0020
     23 C           7.5794   39.4591    6.5186 C.3     1  UNL1        0.0020
@<TRIPOS>BOND
     1    15    16    1
     2    16    18   am
     3    11     1    1
     4    11    10   ar
     5     2     8   ar
     6     3     4   ar
     7     5     6   ar
     8     7     9   ar
     9     7     2   ar
    10    20     9    1
    11    20    21    1
    12    21    22    1
    13    22    23    1
    14    23    21    1
    15    12    14   ar
    16    18    10    1
    17    13    12   ar
    18     9     1   ar
    19    16    17    2
    20    10    13   ar
    21    11    14   ar
    22     1     8   ar
    23     2     3   ar
    24     4     5   ar
    25     6     7   ar
    26    18    19    1
@<TRIPOS>MOLECULE
MolPort-001-982-606 203121 CHEMBL1566340 CSSS00159737014 ChemDiv-5254-2769 MCULE-4065647770 PubChem-752229 ZINC000000203121 ZINC00203121
 23 26 0 0 0
SMALL
GASTEIGER

@<TRIPOS>ATOM
      1 C          10.8561   40.7462    7.8412 C.ar    1  UNL1        0.1678
      2 C          11.9635   39.9753    9.4768 C.ar    1  UNL1        0.0987
      3 C          12.3865   39.3944   10.6695 C.ar    1  UNL1        0.0206
      4 C          13.7706   39.3756   10.9258 C.ar    1  UNL1        0.0016
      5 C          14.6815   39.9310    9.9989 C.ar    1  UNL1        0.0016
      6 C          14.2207   40.5118    8.8030 C.ar    1  UNL1        0.0188
      7 C          12.8436   40.5097    8.5823 C.ar    1  UNL1        0.0789
      8 N          10.6999   40.1112    9.0345 N.ar    1  UNL1       -0.2250
      9 N          12.1591   40.9964    7.5380 N.ar    1  UNL1       -0.3101
     10 C           9.2256   40.4390    5.8928 C.ar    1  UNL1        0.1997
     11 C           9.7130   41.1156    6.9837 C.ar    1  UNL1        0.1910
     12 O           8.0607   42.1635    6.1815 O.2     1  UNL1       -0.2402
     13 N           8.1787   41.1236    5.4033 N.ar    1  UNL1       -0.0329
     14 N           8.9472   42.2102    7.1384 N.ar    1  UNL1       -0.0438
     15 C          10.1857   37.5043    3.5626 C.3     1  UNL1        0.0950
     16 C           9.6117   38.8062    3.9910 C.2     1  UNL1        0.2278
     17 O           9.0259   39.5335    3.1461 O.2     1  UNL1       -0.2747
     18 N           9.7340   39.2123    5.3571 N.am    1  UNL1       -0.2653
     19 H          10.2018   38.6040    5.9739 H       1  UNL1        0.1564
     20 C          12.7058   41.7010    6.3848 C.3     1  UNL1        0.1075
     21 C          13.2831   43.0354    6.8177 C.3     1  UNL1        0.0227
     22 C          14.7747   43.0401    6.5552 C.3     1  UNL1        0.0020
     23 C          13.8365   43.7503    5.6034 C.3     1  UNL1        0.0020
@<TRIPOS>BOND
     1    15    16    1
     2    16    18   am
     3    11     1    1
     4    11    10   ar
     5     2     8   ar
     6     3     4   ar
     7     5     6   ar
     8     7     9   ar
     9     7     2   ar
    10    20     9    1
    11    20    21    1
    12    21    22    1
    13    22    23    1
    14    23    21    1
    15    12    14   ar
    16    18    10    1
    17    13    12   ar
    18     9     1   ar
    19    16    17    2
    20    10    13   ar
    21    11    14   ar
    22     1     8   ar
    23     2     3   ar
    24     4     5   ar
    25     6     7   ar
    26    18    19    1
@<TRIPOS>MOLECULE
MolPort-001-982-606 203121 CHEMBL1566340 CSSS00159737014 ChemDiv-5254-2769 MCULE-4065647770 PubChem-752229 ZINC000000203121 ZINC00203121
 23 26 0 0 0
SMALL
GASTEIGER

@<TRIPOS>ATOM
      1 C          10.7337   41.4732    6.8254 C.ar    1  UNL1        0.1678
      2 C          12.7984   41.9558    6.8275 C.ar    1  UNL1        0.0987
      3 C          14.0798   42.4160    6.5355 C.ar    1  UNL1        0.0206
      4 C          15.1030   42.1090    7.4523 C.ar    1  UNL1        0.0016
      5 C          14.8237   41.3599    8.6178 C.ar    1  UNL1        0.0016
      6 C          13.5175   40.9088    8.8826 C.ar    1  UNL1        0.0188
      7 C          12.5298   41.2343    7.9533 C.ar    1  UNL1        0.0789
      8 N          11.6816   42.1217    6.0954 N.ar    1  UNL1       -0.2250
      9 N          11.2257   40.9263    7.9703 N.ar    1  UNL1       -0.3101
     10 C           8.7236   40.3813    5.6782 C.ar    1  UNL1        0.1997
     11 C           9.3243   41.3858    6.3960 C.ar    1  UNL1        0.1910
     12 O           7.2840   41.8534    6.0960 O.2     1  UNL1       -0.2402
     13 N           7.4310   40.7017    5.5020 N.ar    1  UNL1       -0.0329
     14 N           8.3775   42.3081    6.6446 N.ar    1  UNL1       -0.0438
     15 C          10.1014   37.5364    3.4483 C.3     1  UNL1        0.0950
     16 C           9.4165   38.8019    3.8187 C.2     1  UNL1        0.2278
     17 O           8.9019   39.5151    2.9173 O.2     1  UNL1       -0.2747
     18 N           9.3527   39.1896    5.1941 N.am    1  UNL1       -0.2653
     19 H           9.7720   38.5937    5.8562 H       1  UNL1        0.1564
     20 C          10.5300   40.1185    8.9648 C.3     1  UNL1        0.1075
     21 C           9.6775   41.0071    9.8509 C.3     1  UNL1        0.0227
     22 C          10.1757   40.9103   11.2779 C.3     1  UNL1        0.0020
     23 C          10.5448   42.1062   10.4269 C.3     1  UNL1        0.0020
@<TRIPOS>BOND
     1    15    16    1
     2    16    18   am
     3    11     1    1
     4    11    10   ar
     5     2     8   ar
     6     3     4   ar
     7     5     6   ar
     8     7     9   ar
     9     7     2   ar
    10    20     9    1
    11    20    21    1
    12    21    22    1
    13    22    23    1
    14    23    21    1
    15    12    14   ar
    16    18    10    1
    17    13    12   ar
    18     9     1   ar
    19    16    17    2
    20    10    13   ar
    21    11    14   ar
    22     1     8   ar
    23     2     3   ar
    24     4     5   ar
    25     6     7   ar
    26    18    19    1
@<TRIPOS>MOLECULE
MolPort-001-982-606 203121 CHEMBL1566340 CSSS00159737014 ChemDiv-5254-2769 MCULE-4065647770 PubChem-752229 ZINC000000203121 ZINC00203121
 23 26 0 0 0
SMALL
GASTEIGER

@<TRIPOS>ATOM
      1 C          13.7106   40.3250    9.7246 C.ar    1  UNL1        0.1678
      2 C          11.7723   40.7305   10.4824 C.ar    1  UNL1        0.0987
      3 C          10.6100   40.8225   11.2438 C.ar    1  UNL1        0.0206
      4 C           9.5141   41.4978   10.6741 C.ar    1  UNL1        0.0016
      5 C           9.6061   42.0531    9.3777 C.ar    1  UNL1        0.0016
      6 C          10.7954   41.9414    8.6342 C.ar    1  UNL1        0.0188
      7 C          11.8604   41.2680    9.2320 C.ar    1  UNL1        0.0789
      8 N          12.9272   40.1276   10.8196 N.ar    1  UNL1       -0.2250
      9 N          13.0835   41.0256    8.7408 N.ar    1  UNL1       -0.3101
     10 C          15.5372   38.5370    9.8492 C.ar    1  UNL1        0.1997
     11 C          15.0947   39.8195    9.6382 C.ar    1  UNL1        0.1910
     12 O          17.1903   39.7408    9.3672 O.2     1  UNL1       -0.2402
     13 N          16.8684   38.5139    9.6708 N.ar    1  UNL1       -0.0329
     14 N          16.1750   40.5603    9.3337 N.ar    1  UNL1       -0.0438
     15 C          13.4437   35.2851    9.7698 C.3     1  UNL1        0.0950
     16 C          14.2773   36.4117    9.2764 C.2     1  UNL1        0.2278
     17 O          14.5729   36.4751    8.0538 O.2     1  UNL1       -0.2747
     18 N          14.7308   37.4066   10.1987 N.am    1  UNL1       -0.2653
     19 H          14.4694   37.3068   11.1426 H       1  UNL1        0.1564
     20 C          13.5800   41.3768    7.4158 C.3     1  UNL1        0.1075
     21 C          13.8917   42.8602    7.3547 C.3     1  UNL1        0.0227
     22 C          15.2876   43.0521    6.7996 C.3     1  UNL1        0.0020
     23 C          14.0830   43.2644    5.9083 C.3     1  UNL1        0.0020
@<TRIPOS>BOND
     1    15    16    1
     2    16    18   am
     3    11     1    1
     4    11    10   ar
     5     2     8   ar
     6     3     4   ar
     7     5     6   ar
     8     7     9   ar
     9     7     2   ar
    10    20     9    1
    11    20    21    1
    12    21    22    1
    13    22    23    1
    14    23    21    1
    15    12    14   ar
    16    18    10    1
    17    13    12   ar
    18     9     1   ar
    19    16    17    2
    20    10    13   ar
    21    11    14   ar
    22     1     8   ar
    23     2     3   ar
    24     4     5   ar
    25     6     7   ar
    26    18    19    1
@<TRIPOS>MOLECULE
MolPort-001-982-606 203121 CHEMBL1566340 CSSS00159737014 ChemDiv-5254-2769 MCULE-4065647770 PubChem-752229 ZINC000000203121 ZINC00203121
 23 26 0 0 0
SMALL
GASTEIGER

@<TRIPOS>ATOM
      1 C          11.9800   40.9121    7.2145 C.ar    1  UNL1        0.1678
      2 C          13.2102   42.4890    6.5102 C.ar    1  UNL1        0.0987
      3 C          13.7489   43.5976    5.8623 C.ar    1  UNL1        0.0206
      4 C          15.0826   43.9366    6.1589 C.ar    1  UNL1        0.0016
      5 C          15.8322   43.1696    7.0793 C.ar    1  UNL1        0.0016
      6 C          15.2579   42.0540    7.7161 C.ar    1  UNL1        0.0188
      7 C          13.9341   41.7504    7.3994 C.ar    1  UNL1        0.0789
      8 N          11.9713   41.9818    6.3733 N.ar    1  UNL1       -0.2250
      9 N          13.1677   40.7519    7.8594 N.ar    1  UNL1       -0.3101
     10 C           9.4810   40.3650    7.2813 C.ar    1  UNL1        0.1997
     11 C          10.8085   40.0317    7.3899 C.ar    1  UNL1        0.1910
     12 O           9.6176   38.3243    7.7620 O.2     1  UNL1       -0.2402
     13 N           8.7475   39.2655    7.5211 N.ar    1  UNL1       -0.0329
     14 N          10.8586   38.7235    7.6980 N.ar    1  UNL1       -0.0438
     15 C           7.1857   43.3027    6.2492 C.3     1  UNL1        0.0950
     16 C           7.6084   41.9097    6.5466 C.2     1  UNL1        0.2278
     17 O           6.7781   40.9706    6.4256 O.2     1  UNL1       -0.2747
     18 N           8.9527   41.6580    6.9659 N.am    1  UNL1       -0.2653
     19 H           9.5588   42.4299    7.0431 H       1  UNL1        0.1564
     20 C          13.5658   39.6975    8.7841 C.3     1  UNL1        0.1075
     21 C          13.4134   40.1774   10.2151 C.3     1  UNL1        0.0227
     22 C          12.9011   39.0368   11.0698 C.3     1  UNL1        0.0020
     23 C          14.3690   39.4041   11.0987 C.3     1  UNL1        0.0020
@<TRIPOS>BOND
     1    15    16    1
     2    16    18   am
     3    11     1    1
     4    11    10   ar
     5     2     8   ar
     6     3     4   ar
     7     5     6   ar
     8     7     9   ar
     9     7     2   ar
    10    20     9    1
    11    20    21    1
    12    21    22    1
    13    22    23    1
    14    23    21    1
    15    12    14   ar
    16    18    10    1
    17    13    12   ar
    18     9     1   ar
    19    16    17    2
    20    10    13   ar
    21    11    14   ar
    22     1     8   ar
    23     2     3   ar
    24     4     5   ar
    25     6     7   ar
    26    18    19    1
@<TRIPOS>MOLECULE
MolPort-001-982-606 203121 CHEMBL1566340 CSSS00159737014 ChemDiv-5254-2769 MCULE-4065647770 PubChem-752229 ZINC000000203121 ZINC00203121
 23 26 0 0 0
SMALL
GASTEIGER

@<TRIPOS>ATOM
      1 C          12.2299   40.3561    8.5178 C.ar    1  UNL1        0.1678
      2 C          14.1131   39.7777    9.3019 C.ar    1  UNL1        0.0987
      3 C          15.4538   39.4603    9.5046 C.ar    1  UNL1        0.0206
      4 C          15.8259   39.0073   10.7843 C.ar    1  UNL1        0.0016
      5 C          14.8633   38.8831   11.8117 C.ar    1  UNL1        0.0016
      6 C          13.5160   39.2113   11.5733 C.ar    1  UNL1        0.0188
      7 C          13.1853   39.6589   10.2945 C.ar    1  UNL1        0.0789
      8 N          13.5373   40.2160    8.1673 N.ar    1  UNL1       -0.2250
      9 N          11.9888   40.0273    9.8163 N.ar    1  UNL1       -0.3101
     10 C          11.3813   41.5340    6.4104 C.ar    1  UNL1        0.1997
     11 C          11.1992   40.8178    7.5676 C.ar    1  UNL1        0.1910
     12 O           9.3257   41.1742    6.6540 O.2     1  UNL1       -0.2402
     13 N          10.1789   41.7462    5.8504 N.ar    1  UNL1       -0.0329
     14 N           9.8769   40.6066    7.6921 N.ar    1  UNL1       -0.0438
     15 C          14.6934   43.4258    5.7660 C.3     1  UNL1        0.0950
     16 C          13.4089   43.0575    6.4158 C.2     1  UNL1        0.2278
     17 O          13.0224   43.6952    7.4307 O.2     1  UNL1       -0.2747
     18 N          12.6319   41.9839    5.8775 N.am    1  UNL1       -0.2653
     19 H          12.9824   41.5206    5.0827 H       1  UNL1        0.1564
     20 C          10.7159   39.9988   10.5263 C.3     1  UNL1        0.1075
     21 C          10.6423   41.1545   11.5063 C.3     1  UNL1        0.0227
     22 C           9.6927   42.2038   10.9667 C.3     1  UNL1        0.0020
     23 C           9.2323   41.2514   12.0491 C.3     1  UNL1        0.0020
@<TRIPOS>BOND
     1    15    16    1
     2    16    18   am
     3    11     1    1
     4    11    10   ar
     5     2     8   ar
     6     3     4   ar
     7     5     6   ar
     8     7     9   ar
     9     7     2   ar
    10    20     9    1
    11    20    21    1
    12    21    22    1
    13    22    23    1
    14    23    21    1
    15    12    14   ar
    16    18    10    1
    17    13    12   ar
    18     9     1   ar
    19    16    17    2
    20    10    13   ar
    21    11    14   ar
    22     1     8   ar
    23     2     3   ar
    24     4     5   ar
    25     6     7   ar
    26    18    19    1
@<TRIPOS>MOLECULE
MolPort-001-982-606 203121 CHEMBL1566340 CSSS00159737014 ChemDiv-5254-2769 MCULE-4065647770 PubChem-752229 ZINC000000203121 ZINC00203121
 23 26 0 0 0
SMALL
GASTEIGER

@<TRIPOS>ATOM
      1 C          11.6806   41.7053    8.8554 C.ar    1  UNL1        0.1678
      2 C           9.9677   42.9066    9.1998 C.ar    1  UNL1        0.0987
      3 C           9.0400   43.8400    9.6550 C.ar    1  UNL1        0.0206
      4 C           7.7545   43.8080    9.0822 C.ar    1  UNL1        0.0016
      5 C           7.4339   42.8577    8.0865 C.ar    1  UNL1        0.0016
      6 C           8.3948   41.9272    7.6496 C.ar    1  UNL1        0.0188
      7 C           9.6577   41.9908    8.2378 C.ar    1  UNL1        0.0789
      8 N          11.2400   42.7491    9.6090 N.ar    1  UNL1       -0.2250
      9 N          10.7334   41.2266    8.0035 N.ar    1  UNL1       -0.3101
     10 C          14.1007   41.3452    8.1054 C.ar    1  UNL1        0.1997
     11 C          13.0498   41.1662    8.9706 C.ar    1  UNL1        0.1910
     12 O          14.7457   40.1305    9.6937 O.2     1  UNL1       -0.2402
     13 N          15.1634   40.6793    8.5867 N.ar    1  UNL1       -0.0329
     14 N          13.4963   40.3862    9.9711 N.ar    1  UNL1       -0.0438
     15 C          14.7919   43.9551    5.3351 C.3     1  UNL1        0.0950
     16 C          14.9079   43.2494    6.6375 C.2     1  UNL1        0.2278
     17 O          15.7297   43.6649    7.4966 O.2     1  UNL1       -0.2747
     18 N          14.0836   42.1090    6.8943 N.am    1  UNL1       -0.2653
     19 H          13.4589   41.8287    6.1868 H       1  UNL1        0.1564
     20 C          10.8196   40.0927    7.0912 C.3     1  UNL1        0.1075
     21 C          11.2747   40.5616    5.7221 C.3     1  UNL1        0.0227
     22 C          11.0644   39.4460    4.7196 C.3     1  UNL1        0.0020
     23 C          10.0816   40.5947    4.7908 C.3     1  UNL1        0.0020
@<TRIPOS>BOND
     1    15    16    1
     2    16    18   am
     3    11     1    1
     4    11    10   ar
     5     2     8   ar
     6     3     4   ar
     7     5     6   ar
     8     7     9   ar
     9     7     2   ar
    10    20     9    1
    11    20    21    1
    12    21    22    1
    13    22    23    1
    14    23    21    1
    15    12    14   ar
    16    18    10    1
    17    13    12   ar
    18     9     1   ar
    19    16    17    2
    20    10    13   ar
    21    11    14   ar
    22     1     8   ar
    23     2     3   ar
    24     4     5   ar
    25     6     7   ar
    26    18    19    1
