@<TRIPOS>MOLECULE
MolPort-006-579-777 ChemDiv-V020-2125 MCULE-4092669362 PubChem-46040741 ZINC000037543905 ZINC37543905
 34 37 0 0 0
SMALL
GASTEIGER

@<TRIPOS>ATOM
      1 C           9.3641   40.5077    7.3704 C.ar    1  UNL1        0.0565
      2 C           9.1196   39.3222    6.6572 C.ar    1  UNL1        0.0150
      3 C           7.8329   39.0110    6.2124 C.ar    1  UNL1        0.0026
      4 C           6.7753   39.8845    6.4712 C.ar    1  UNL1        0.0148
      5 C           6.9976   41.0766    7.1745 C.ar    1  UNL1        0.0516
      6 C           8.2895   41.3791    7.6160 C.ar    1  UNL1        0.0296
      7 C          13.4733   40.8520    8.5271 C.3     1  UNL1        0.0971
      8 C          12.4291   41.0176    9.6158 C.3     1  UNL1        0.0435
      9 C          11.1088   40.3979    9.1581 C.3     1  UNL1        0.1015
     10 C          11.6545   41.4938    6.9467 C.2     1  UNL1        0.3112
     11 N          13.0346   41.5611    7.3344 N.am    1  UNL1       -0.2596
     12 N          10.7022   40.8296    7.8101 N.am    1  UNL1       -0.2430
     13 O          11.2764   42.0518    5.8802 O.2     1  UNL1       -0.2520
     14 C          13.9702   42.4431    6.6480 C.3     1  UNL1        0.1218
     15 F          17.1000   40.5292    9.8788 F       1  UNL1       -0.2041
     16 F          18.3002   44.5187    7.5601 F       1  UNL1       -0.2041
     17 C          16.8058   41.4947    8.9756 C.ar    1  UNL1        0.1421
     18 C          15.5865   41.4640    8.2920 C.ar    1  UNL1        0.0272
     19 C          15.2830   42.4588    7.3559 C.ar    1  UNL1        0.0022
     20 C          16.1965   43.4907    7.1141 C.ar    1  UNL1        0.0272
     21 C          17.4157   43.5210    7.7976 C.ar    1  UNL1        0.1421
     22 C          17.7204   42.5231    8.7284 C.ar    1  UNL1        0.0592
     23 C           6.0448   43.4248    7.5571 C.2     1  UNL1        0.2707
     24 N           5.9376   41.9987    7.4609 N.am    1  UNL1       -0.2808
     25 O           7.1514   44.0087    7.4152 O.2     1  UNL1       -0.2707
     26 H           5.0438   41.6125    7.6064 H       1  UNL1        0.1550
     27 C           4.8211   44.2337    7.8192 C.3     1  UNL1        0.2897
     28 O           4.3958   44.0648    9.1680 O.3     1  UNL1       -0.4656
     29 C           4.2296   42.8129    9.7708 C.ar    1  UNL1        0.1393
     30 C           5.1474   42.3198   10.7134 C.ar    1  UNL1        0.0369
     31 C           4.9534   41.0640   11.2959 C.ar    1  UNL1        0.0031
     32 C           3.8433   40.2931   10.9399 C.ar    1  UNL1        0.0002
     33 C           2.9282   40.7777   10.0012 C.ar    1  UNL1        0.0031
     34 C           3.1221   42.0339    9.4187 C.ar    1  UNL1        0.0369
@<TRIPOS>BOND
     1    17    15    1
     2    18    19   ar
     3    14    19    1
     4    14    11    1
     5     7    11    1
     6     7     8    1
     7     8     9    1
     8     9    12    1
     9    10    11   am
    10     2     3   ar
    11     4     5   ar
    12     5    24    1
    13    27    23    1
    14    27    28    1
    15    29    28    1
    16    30    31   ar
    17    32    33   ar
    18    34    29   ar
    19     6     1   ar
    20    20    21   ar
    21    21    16    1
    22    22    17   ar
    23    12    10   am
    24    12     1    1
    25    24    23   am
    26    17    18   ar
    27    19    20   ar
    28    10    13    2
    29     1     2   ar
    30     3     4   ar
    31     5     6   ar
    32    23    25    2
    33    29    30   ar
    34    31    32   ar
    35    33    34   ar
    36    21    22   ar
    37    24    26    1
@<TRIPOS>MOLECULE
MolPort-006-579-777 ChemDiv-V020-2125 MCULE-4092669362 PubChem-46040741 ZINC000037543905 ZINC37543905
 34 37 0 0 0
SMALL
GASTEIGER

@<TRIPOS>ATOM
      1 C           6.5743   43.6883    8.6051 C.ar    1  UNL1        0.0565
      2 C           6.1586   44.5716    7.5948 C.ar    1  UNL1        0.0150
      3 C           4.8062   44.8779    7.4286 C.ar    1  UNL1        0.0026
      4 C           3.8531   44.3083    8.2744 C.ar    1  UNL1        0.0148
      5 C           4.2460   43.4303    9.2940 C.ar    1  UNL1        0.0516
      6 C           5.6024   43.1295    9.4522 C.ar    1  UNL1        0.0296
      7 C          10.5341   42.3062    9.4721 C.3     1  UNL1        0.0971
      8 C          10.1332   43.6595   10.0298 C.3     1  UNL1        0.0435
      9 C           8.6089   43.7717   10.0561 C.3     1  UNL1        0.1015
     10 C           8.7437   42.6842    7.7783 C.2     1  UNL1        0.3112
     11 N          10.0523   42.1931    8.1036 N.am    1  UNL1       -0.2596
     12 N           7.9775   43.3923    8.7809 N.am    1  UNL1       -0.2430
     13 O           8.2916   42.5338    6.6101 O.2     1  UNL1       -0.2520
     14 C          10.9627   41.7241    7.0665 C.3     1  UNL1        0.1218
     15 F           8.8001   37.3400    7.0968 F       1  UNL1       -0.2041
     16 F           9.8666   39.3787    2.9207 F       1  UNL1       -0.2041
     17 C           9.3158   38.3780    6.3959 C.ar    1  UNL1        0.1421
     18 C           9.8433   39.4833    7.0704 C.ar    1  UNL1        0.0272
     19 C          10.3730   40.5578    6.3473 C.ar    1  UNL1        0.0022
     20 C          10.3849   40.5188    4.9487 C.ar    1  UNL1        0.0272
     21 C           9.8572   39.4135    4.2746 C.ar    1  UNL1        0.1421
     22 C           9.3227   38.3431    4.9981 C.ar    1  UNL1        0.0592
     23 C           3.5871   42.1345   11.4049 C.2     1  UNL1        0.2707
     24 N           3.2973   42.8242   10.1822 N.am    1  UNL1       -0.2808
     25 O           4.7716   41.9760   11.8016 O.2     1  UNL1       -0.2707
     26 H           2.3490   42.8884    9.9257 H       1  UNL1        0.1550
     27 C           2.4643   41.6043   12.2286 C.3     1  UNL1        0.2897
     28 O           1.3995   42.5490   12.2804 O.3     1  UNL1       -0.4656
     29 C           0.6059   42.7516   13.4151 C.ar    1  UNL1        0.1393
     30 C          -0.3220   41.7897   13.8483 C.ar    1  UNL1        0.0369
     31 C          -1.1011   42.0237   14.9851 C.ar    1  UNL1        0.0031
     32 C          -0.9591   43.2193   15.6949 C.ar    1  UNL1        0.0002
     33 C          -0.0391   44.1806   15.2674 C.ar    1  UNL1        0.0031
     34 C           0.7403   43.9465   14.1303 C.ar    1  UNL1        0.0369
@<TRIPOS>BOND
     1    17    15    1
     2    18    19   ar
     3    14    19    1
     4    14    11    1
     5     7    11    1
     6     7     8    1
     7     8     9    1
     8     9    12    1
     9    10    11   am
    10     2     3   ar
    11     4     5   ar
    12     5    24    1
    13    27    23    1
    14    27    28    1
    15    29    28    1
    16    30    31   ar
    17    32    33   ar
    18    34    29   ar
    19     6     1   ar
    20    20    21   ar
    21    21    16    1
    22    22    17   ar
    23    12    10   am
    24    12     1    1
    25    24    23   am
    26    17    18   ar
    27    19    20   ar
    28    10    13    2
    29     1     2   ar
    30     3     4   ar
    31     5     6   ar
    32    23    25    2
    33    29    30   ar
    34    31    32   ar
    35    33    34   ar
    36    21    22   ar
    37    24    26    1
@<TRIPOS>MOLECULE
MolPort-006-579-777 ChemDiv-V020-2125 MCULE-4092669362 PubChem-46040741 ZINC000037543905 ZINC37543905
 34 37 0 0 0
SMALL
GASTEIGER

@<TRIPOS>ATOM
      1 C           9.7661   41.3866   10.1951 C.ar    1  UNL1        0.0565
      2 C          10.3236   41.0436   11.4381 C.ar    1  UNL1        0.0150
      3 C           9.5593   41.1121   12.6050 C.ar    1  UNL1        0.0026
      4 C           8.2259   41.5201   12.5421 C.ar    1  UNL1        0.0148
      5 C           7.6467   41.8598   11.3116 C.ar    1  UNL1        0.0516
      6 C           8.4204   41.7883   10.1490 C.ar    1  UNL1        0.0296
      7 C          12.0774   41.7555    6.6085 C.3     1  UNL1        0.0971
      8 C          10.7488   41.0293    6.5069 C.3     1  UNL1        0.0435
      9 C           9.8663   41.4064    7.6969 C.3     1  UNL1        0.1015
     10 C          12.0003   41.1656    9.0300 C.2     1  UNL1        0.3112
     11 N          12.7589   41.3344    7.8235 N.am    1  UNL1       -0.2596
     12 N          10.5597   41.2945    8.9913 N.am    1  UNL1       -0.2430
     13 O          12.5908   40.8628   10.1030 O.2     1  UNL1       -0.2520
     14 C          14.1627   40.9488    7.7534 C.3     1  UNL1        0.1218
     15 F          14.9402   45.3598    5.7949 F       1  UNL1       -0.2041
     16 F          18.3517   43.3652    8.4625 F       1  UNL1       -0.2041
     17 C          15.3832   44.3300    6.5549 C.ar    1  UNL1        0.1421
     18 C          14.5666   43.2147    6.7650 C.ar    1  UNL1        0.0272
     19 C          15.0217   42.1517    7.5531 C.ar    1  UNL1        0.0022
     20 C          16.2998   42.2016    8.1203 C.ar    1  UNL1        0.0272
     21 C          17.1160   43.3171    7.9102 C.ar    1  UNL1        0.1421
     22 C          16.6578   44.3812    7.1275 C.ar    1  UNL1        0.0592
     23 C           5.1147   41.4673   11.3685 C.2     1  UNL1        0.2707
     24 N           6.2812   42.2843   11.2060 N.am    1  UNL1       -0.2808
     25 O           5.2075   40.2338   11.6041 O.2     1  UNL1       -0.2707
     26 H           6.1291   43.2351   11.0007 H       1  UNL1        0.1550
     27 C           3.7654   42.0916   11.2677 C.3     1  UNL1        0.2897
     28 O           3.3956   42.2532    9.9017 O.3     1  UNL1       -0.4656
     29 C           4.1926   42.9179    8.9629 C.ar    1  UNL1        0.1393
     30 C           3.9436   44.2508    8.5951 C.ar    1  UNL1        0.0369
     31 C           4.7576   44.8856    7.6525 C.ar    1  UNL1        0.0031
     32 C           5.8235   44.1932    7.0711 C.ar    1  UNL1        0.0002
     33 C           6.0745   42.8664    7.4317 C.ar    1  UNL1        0.0031
     34 C           5.2604   42.2315    8.3746 C.ar    1  UNL1        0.0369
@<TRIPOS>BOND
     1    17    15    1
     2    18    19   ar
     3    14    19    1
     4    14    11    1
     5     7    11    1
     6     7     8    1
     7     8     9    1
     8     9    12    1
     9    10    11   am
    10     2     3   ar
    11     4     5   ar
    12     5    24    1
    13    27    23    1
    14    27    28    1
    15    29    28    1
    16    30    31   ar
    17    32    33   ar
    18    34    29   ar
    19     6     1   ar
    20    20    21   ar
    21    21    16    1
    22    22    17   ar
    23    12    10   am
    24    12     1    1
    25    24    23   am
    26    17    18   ar
    27    19    20   ar
    28    10    13    2
    29     1     2   ar
    30     3     4   ar
    31     5     6   ar
    32    23    25    2
    33    29    30   ar
    34    31    32   ar
    35    33    34   ar
    36    21    22   ar
    37    24    26    1
@<TRIPOS>MOLECULE
MolPort-006-579-777 ChemDiv-V020-2125 MCULE-4092669362 PubChem-46040741 ZINC000037543905 ZINC37543905
 34 37 0 0 0
SMALL
GASTEIGER

@<TRIPOS>ATOM
      1 C           9.5429   40.0971    7.2753 C.ar    1  UNL1        0.0565
      2 C           9.2904   38.9211    6.5494 C.ar    1  UNL1        0.0150
      3 C           7.9932   38.5983    6.1450 C.ar    1  UNL1        0.0026
      4 C           6.9329   39.4507    6.4574 C.ar    1  UNL1        0.0148
      5 C           7.1628   40.6332    7.1742 C.ar    1  UNL1        0.0516
      6 C           8.4651   40.9474    7.5750 C.ar    1  UNL1        0.0296
      7 C          13.7078   40.5356    8.1714 C.3     1  UNL1        0.0971
      8 C          12.7569   40.3864    9.3447 C.3     1  UNL1        0.0435
      9 C          11.4444   39.7668    8.8649 C.3     1  UNL1        0.1015
     10 C          11.7164   41.3358    6.9020 C.2     1  UNL1        0.3112
     11 N          13.1183   41.4362    7.1919 N.am    1  UNL1       -0.2596
     12 N          10.8910   40.4315    7.6730 N.am    1  UNL1       -0.2430
     13 O          11.2083   42.0682    6.0091 O.2     1  UNL1       -0.2520
     14 C          13.9286   42.5151    6.6408 C.3     1  UNL1        0.1218
     15 F          17.1472   40.7278    9.8569 F       1  UNL1       -0.2041
     16 F          18.3746   44.4739    7.1749 F       1  UNL1       -0.2041
     17 C          16.8431   41.6322    8.8956 C.ar    1  UNL1        0.1421
     18 C          15.5899   41.5995    8.2766 C.ar    1  UNL1        0.0272
     19 C          15.2759   42.5310    7.2807 C.ar    1  UNL1        0.0022
     20 C          16.2137   43.5025    6.9141 C.ar    1  UNL1        0.0272
     21 C          17.4668   43.5348    7.5331 C.ar    1  UNL1        0.1421
     22 C          17.7816   42.5998    8.5238 C.ar    1  UNL1        0.0592
     23 C           5.2202   41.4334    8.6420 C.2     1  UNL1        0.2707
     24 N           6.1003   41.5337    7.5151 N.am    1  UNL1       -0.2808
     25 O           5.3018   40.4730    9.4524 O.2     1  UNL1       -0.2707
     26 H           5.9609   42.3000    6.9130 H       1  UNL1        0.1550
     27 C           4.1958   42.4921    8.8657 C.3     1  UNL1        0.2897
     28 O           4.8177   43.7000    9.2937 O.3     1  UNL1       -0.4656
     29 C           6.2005   43.8357    9.4601 C.ar    1  UNL1        0.1393
     30 C           6.9405   44.7887    8.7403 C.ar    1  UNL1        0.0369
     31 C           8.3214   44.8975    8.9285 C.ar    1  UNL1        0.0031
     32 C           8.9711   44.0552    9.8349 C.ar    1  UNL1        0.0002
     33 C           8.2403   43.1039   10.5521 C.ar    1  UNL1        0.0031
     34 C           6.8591   42.9951   10.3640 C.ar    1  UNL1        0.0369
@<TRIPOS>BOND
     1    17    15    1
     2    18    19   ar
     3    14    19    1
     4    14    11    1
     5     7    11    1
     6     7     8    1
     7     8     9    1
     8     9    12    1
     9    10    11   am
    10     2     3   ar
    11     4     5   ar
    12     5    24    1
    13    27    23    1
    14    27    28    1
    15    29    28    1
    16    30    31   ar
    17    32    33   ar
    18    34    29   ar
    19     6     1   ar
    20    20    21   ar
    21    21    16    1
    22    22    17   ar
    23    12    10   am
    24    12     1    1
    25    24    23   am
    26    17    18   ar
    27    19    20   ar
    28    10    13    2
    29     1     2   ar
    30     3     4   ar
    31     5     6   ar
    32    23    25    2
    33    29    30   ar
    34    31    32   ar
    35    33    34   ar
    36    21    22   ar
    37    24    26    1
@<TRIPOS>MOLECULE
MolPort-006-579-777 ChemDiv-V020-2125 MCULE-4092669362 PubChem-46040741 ZINC000037543905 ZINC37543905
 34 37 0 0 0
SMALL
GASTEIGER

@<TRIPOS>ATOM
      1 C          15.4534   41.7701    8.0829 C.ar    1  UNL1        0.0565
      2 C          16.2828   42.8103    7.6316 C.ar    1  UNL1        0.0150
      3 C          15.8182   43.7368    6.6956 C.ar    1  UNL1        0.0026
      4 C          14.5159   43.6371    6.2030 C.ar    1  UNL1        0.0148
      5 C          13.6684   42.6118    6.6450 C.ar    1  UNL1        0.0516
      6 C          14.1431   41.6888    7.5821 C.ar    1  UNL1        0.0296
      7 C          17.0233   39.4936   11.3532 C.3     1  UNL1        0.0971
      8 C          17.7693   39.4190   10.0337 C.3     1  UNL1        0.0435
      9 C          17.3915   40.6175    9.1631 C.3     1  UNL1        0.1015
     10 C          15.0465   40.1505    9.9827 C.2     1  UNL1        0.3112
     11 N          15.5924   39.4279   11.0960 N.am    1  UNL1       -0.2596
     12 N          15.9372   40.8277    9.0653 N.am    1  UNL1       -0.2430
     13 O          13.7999   40.1519    9.7886 O.2     1  UNL1       -0.2520
     14 C          14.7711   38.5136   11.8794 C.3     1  UNL1        0.1218
     15 F          15.6799   35.3114    8.2992 F       1  UNL1       -0.2041
     16 F          11.5430   35.0536   10.6556 F       1  UNL1       -0.2041
     17 C          14.8486   35.7730    9.2638 C.ar    1  UNL1        0.1421
     18 C          15.2318   36.8600   10.0552 C.ar    1  UNL1        0.0272
     19 C          14.3754   37.3354   11.0545 C.ar    1  UNL1        0.0022
     20 C          13.1302   36.7288   11.2522 C.ar    1  UNL1        0.0272
     21 C          12.7474   35.6417   10.4608 C.ar    1  UNL1        0.1421
     22 C          13.6065   35.1637    9.4666 C.ar    1  UNL1        0.0592
     23 C          11.5406   41.2759    6.1383 C.2     1  UNL1        0.2707
     24 N          12.3251   42.4753    6.1621 N.am    1  UNL1       -0.2808
     25 O          12.0106   40.1787    6.5396 O.2     1  UNL1       -0.2707
     26 H          11.8975   43.2895    5.8107 H       1  UNL1        0.1550
     27 C          10.1376   41.3301    5.6395 C.3     1  UNL1        0.2897
     28 O           9.2219   41.1880    6.7212 O.3     1  UNL1       -0.4656
     29 C           8.3983   42.2253    7.1728 C.ar    1  UNL1        0.1393
     30 C           7.3145   42.6924    6.4105 C.ar    1  UNL1        0.0369
     31 C           6.5120   43.7319    6.8895 C.ar    1  UNL1        0.0031
     32 C           6.7875   44.3115    8.1311 C.ar    1  UNL1        0.0002
     33 C           7.8655   43.8522    8.8928 C.ar    1  UNL1        0.0031
     34 C           8.6682   42.8124    8.4137 C.ar    1  UNL1        0.0369
@<TRIPOS>BOND
     1    17    15    1
     2    18    19   ar
     3    14    19    1
     4    14    11    1
     5     7    11    1
     6     7     8    1
     7     8     9    1
     8     9    12    1
     9    10    11   am
    10     2     3   ar
    11     4     5   ar
    12     5    24    1
    13    27    23    1
    14    27    28    1
    15    29    28    1
    16    30    31   ar
    17    32    33   ar
    18    34    29   ar
    19     6     1   ar
    20    20    21   ar
    21    21    16    1
    22    22    17   ar
    23    12    10   am
    24    12     1    1
    25    24    23   am
    26    17    18   ar
    27    19    20   ar
    28    10    13    2
    29     1     2   ar
    30     3     4   ar
    31     5     6   ar
    32    23    25    2
    33    29    30   ar
    34    31    32   ar
    35    33    34   ar
    36    21    22   ar
    37    24    26    1
@<TRIPOS>MOLECULE
MolPort-006-579-777 ChemDiv-V020-2125 MCULE-4092669362 PubChem-46040741 ZINC000037543905 ZINC37543905
 34 37 0 0 0
SMALL
GASTEIGER

@<TRIPOS>ATOM
      1 C           9.0636   40.5374    8.0696 C.ar    1  UNL1        0.0565
      2 C           9.0792   39.5754    7.0460 C.ar    1  UNL1        0.0150
      3 C           8.0225   39.4846    6.1374 C.ar    1  UNL1        0.0026
      4 C           6.9390   40.3588    6.2386 C.ar    1  UNL1        0.0148
      5 C           6.9058   41.3314    7.2474 C.ar    1  UNL1        0.0516
      6 C           7.9685   41.4140    8.1525 C.ar    1  UNL1        0.0296
      7 C          12.2561   40.1980   10.9041 C.3     1  UNL1        0.0971
      8 C          11.0765   41.0722   11.2881 C.3     1  UNL1        0.0435
      9 C           9.8649   40.7027   10.4323 C.3     1  UNL1        0.1015
     10 C          11.5465   40.6011    8.5480 C.2     1  UNL1        0.3112
     11 N          12.5986   40.4447    9.5114 N.am    1  UNL1       -0.2596
     12 N          10.1702   40.6355    8.9932 N.am    1  UNL1       -0.2430
     13 O          11.8324   40.7517    7.3284 O.2     1  UNL1       -0.2520
     14 C          13.9921   40.6772    9.1530 C.3     1  UNL1        0.1218
     15 F          18.4424   39.3790   10.7042 F       1  UNL1       -0.2041
     16 F          14.6743   36.7552   11.9886 F       1  UNL1       -0.2041
     17 C          17.1076   39.1509   10.6768 C.ar    1  UNL1        0.1421
     18 C          16.2663   40.0103    9.9638 C.ar    1  UNL1        0.0272
     19 C          14.8867   39.7779    9.9378 C.ar    1  UNL1        0.0022
     20 C          14.3521   38.6773   10.6165 C.ar    1  UNL1        0.0272
     21 C          15.1936   37.8182   11.3296 C.ar    1  UNL1        0.1421
     22 C          16.5713   38.0550   11.3598 C.ar    1  UNL1        0.0592
     23 C           5.8728   43.5896    7.8816 C.2     1  UNL1        0.2707
     24 N           5.8104   42.2464    7.3849 N.am    1  UNL1       -0.2808
     25 O           6.9565   44.0884    8.2845 O.2     1  UNL1       -0.2707
     26 H           4.9239   41.9183    7.1097 H       1  UNL1        0.1550
     27 C           4.6332   44.4160    7.9115 C.3     1  UNL1        0.2897
     28 O           3.8382   44.0748    9.0430 O.3     1  UNL1       -0.4656
     29 C           3.9189   42.8393    9.6951 C.ar    1  UNL1        0.1393
     30 C           4.8828   42.5894   10.6862 C.ar    1  UNL1        0.0369
     31 C           4.9381   41.3433   11.3174 C.ar    1  UNL1        0.0031
     32 C           4.0326   40.3398   10.9620 C.ar    1  UNL1        0.0002
     33 C           3.0729   40.5821    9.9752 C.ar    1  UNL1        0.0031
     34 C           3.0176   41.8285    9.3440 C.ar    1  UNL1        0.0369
@<TRIPOS>BOND
     1    17    15    1
     2    18    19   ar
     3    14    19    1
     4    14    11    1
     5     7    11    1
     6     7     8    1
     7     8     9    1
     8     9    12    1
     9    10    11   am
    10     2     3   ar
    11     4     5   ar
    12     5    24    1
    13    27    23    1
    14    27    28    1
    15    29    28    1
    16    30    31   ar
    17    32    33   ar
    18    34    29   ar
    19     6     1   ar
    20    20    21   ar
    21    21    16    1
    22    22    17   ar
    23    12    10   am
    24    12     1    1
    25    24    23   am
    26    17    18   ar
    27    19    20   ar
    28    10    13    2
    29     1     2   ar
    30     3     4   ar
    31     5     6   ar
    32    23    25    2
    33    29    30   ar
    34    31    32   ar
    35    33    34   ar
    36    21    22   ar
    37    24    26    1
@<TRIPOS>MOLECULE
MolPort-006-579-777 ChemDiv-V020-2125 MCULE-4092669362 PubChem-46040741 ZINC000037543905 ZINC37543905
 34 37 0 0 0
SMALL
GASTEIGER

@<TRIPOS>ATOM
      1 C           7.6487   42.0133    9.2846 C.ar    1  UNL1        0.0565
      2 C           7.2844   42.7544    8.1480 C.ar    1  UNL1        0.0150
      3 C           6.0085   43.3118    8.0398 C.ar    1  UNL1        0.0026
      4 C           5.0824   43.1389    9.0698 C.ar    1  UNL1        0.0148
      5 C           5.4267   42.4097   10.2163 C.ar    1  UNL1        0.0516
      6 C           6.7066   41.8552   10.3151 C.ar    1  UNL1        0.0296
      7 C          11.2912   39.8157    9.7784 C.3     1  UNL1        0.0971
      8 C          11.0497   40.9806   10.7206 C.3     1  UNL1        0.0435
      9 C           9.5600   41.3227   10.7411 C.3     1  UNL1        0.1015
     10 C           9.7056   40.9743    8.2419 C.2     1  UNL1        0.3112
     11 N          10.9016   40.2040    8.4311 N.am    1  UNL1       -0.2596
     12 N           8.9772   41.4565    9.3953 N.am    1  UNL1       -0.2430
     13 O           9.3249   41.2617    7.0739 O.2     1  UNL1       -0.2520
     14 C          11.8093   39.9335    7.3233 C.3     1  UNL1        0.1218
     15 F          13.5389   44.1196    5.4842 F       1  UNL1       -0.2041
     16 F          16.1723   41.7010    8.6383 F       1  UNL1       -0.2041
     17 C          13.7009   43.0552    6.3060 C.ar    1  UNL1        0.1421
     18 C          12.6995   42.0837    6.3968 C.ar    1  UNL1        0.0272
     19 C          12.8642   40.9855    7.2482 C.ar    1  UNL1        0.0022
     20 C          14.0375   40.8552    7.9992 C.ar    1  UNL1        0.0272
     21 C          15.0385   41.8270    7.9083 C.ar    1  UNL1        0.1421
     22 C          14.8703   42.9270    7.0618 C.ar    1  UNL1        0.0592
     23 C           3.0797   42.0787   11.1914 C.2     1  UNL1        0.2707
     24 N           4.5034   42.2092   11.2949 N.am    1  UNL1       -0.2808
     25 O           2.4942   42.1622   10.0797 O.2     1  UNL1       -0.2707
     26 H           4.8869   42.1558   12.2001 H       1  UNL1        0.1550
     27 C           2.2774   41.8280   12.4218 C.3     1  UNL1        0.2897
     28 O           1.1182   42.6556   12.4338 O.3     1  UNL1       -0.4656
     29 C           0.3799   42.9279   13.5911 C.ar    1  UNL1        0.1393
     30 C           0.4963   44.1525   14.2698 C.ar    1  UNL1        0.0369
     31 C          -0.2542   44.3925   15.4244 C.ar    1  UNL1        0.0031
     32 C          -1.1238   43.4112   15.9085 C.ar    1  UNL1        0.0002
     33 C          -1.2420   42.1903   15.2386 C.ar    1  UNL1        0.0031
     34 C          -0.4915   41.9503   14.0835 C.ar    1  UNL1        0.0369
@<TRIPOS>BOND
     1    17    15    1
     2    18    19   ar
     3    14    19    1
     4    14    11    1
     5     7    11    1
     6     7     8    1
     7     8     9    1
     8     9    12    1
     9    10    11   am
    10     2     3   ar
    11     4     5   ar
    12     5    24    1
    13    27    23    1
    14    27    28    1
    15    29    28    1
    16    30    31   ar
    17    32    33   ar
    18    34    29   ar
    19     6     1   ar
    20    20    21   ar
    21    21    16    1
    22    22    17   ar
    23    12    10   am
    24    12     1    1
    25    24    23   am
    26    17    18   ar
    27    19    20   ar
    28    10    13    2
    29     1     2   ar
    30     3     4   ar
    31     5     6   ar
    32    23    25    2
    33    29    30   ar
    34    31    32   ar
    35    33    34   ar
    36    21    22   ar
    37    24    26    1
@<TRIPOS>MOLECULE
MolPort-006-579-777 ChemDiv-V020-2125 MCULE-4092669362 PubChem-46040741 ZINC000037543905 ZINC37543905
 34 37 0 0 0
SMALL
GASTEIGER

@<TRIPOS>ATOM
      1 C           9.3053   40.1540    7.9324 C.ar    1  UNL1        0.0565
      2 C           9.2270   39.1579    6.9448 C.ar    1  UNL1        0.0150
      3 C           8.1119   39.0700    6.1086 C.ar    1  UNL1        0.0026
      4 C           7.0632   39.9808    6.2466 C.ar    1  UNL1        0.0148
      5 C           7.1234   40.9875    7.2202 C.ar    1  UNL1        0.0516
      6 C           8.2440   41.0670    8.0529 C.ar    1  UNL1        0.0296
      7 C          12.5474   39.8913   10.7183 C.3     1  UNL1        0.0971
      8 C          11.6152   41.0818   10.8478 C.3     1  UNL1        0.0435
      9 C          10.2934   40.7766   10.1432 C.3     1  UNL1        0.1015
     10 C          11.7717   39.7805    8.3512 C.2     1  UNL1        0.3112
     11 N          12.8326   39.6604    9.3101 N.am    1  UNL1       -0.2596
     12 N          10.4714   40.2481    8.7802 N.am    1  UNL1       -0.2430
     13 O          11.9937   39.5204    7.1368 O.2     1  UNL1       -0.2520
     14 C          14.2136   39.4621    8.8882 C.3     1  UNL1        0.1218
     15 F          14.0333   43.5351    6.1909 F       1  UNL1       -0.2041
     16 F          17.8598   42.7168    8.9150 F       1  UNL1       -0.2041
     17 C          14.6971   42.7552    7.0773 C.ar    1  UNL1        0.1421
     18 C          14.1259   41.5582    7.5198 C.ar    1  UNL1        0.0272
     19 C          14.8092   40.7535    8.4383 C.ar    1  UNL1        0.0022
     20 C          16.0700   41.1428    8.9037 C.ar    1  UNL1        0.0272
     21 C          16.6408   42.3399    8.4612 C.ar    1  UNL1        0.1421
     22 C          15.9544   43.1461    7.5480 C.ar    1  UNL1        0.0592
     23 C           6.2111   43.3445    7.6455 C.2     1  UNL1        0.2707
     24 N           6.0665   41.9408    7.3937 N.am    1  UNL1       -0.2808
     25 O           7.3473   43.8736    7.7674 O.2     1  UNL1       -0.2707
     26 H           5.1464   41.5956    7.3338 H       1  UNL1        0.1550
     27 C           4.9936   44.1967    7.7541 C.3     1  UNL1        0.2897
     28 O           4.4102   44.0638    9.0467 O.3     1  UNL1       -0.4656
     29 C           4.2477   42.8339    9.6942 C.ar    1  UNL1        0.1393
     30 C           5.1741   42.3717   10.6439 C.ar    1  UNL1        0.0369
     31 C           4.9837   41.1372   11.2716 C.ar    1  UNL1        0.0031
     32 C           3.8685   40.3571   10.9538 C.ar    1  UNL1        0.0002
     33 C           2.9448   40.8109   10.0082 C.ar    1  UNL1        0.0031
     34 C           3.1352   42.0457    9.3805 C.ar    1  UNL1        0.0369
@<TRIPOS>BOND
     1    17    15    1
     2    18    19   ar
     3    14    19    1
     4    14    11    1
     5     7    11    1
     6     7     8    1
     7     8     9    1
     8     9    12    1
     9    10    11   am
    10     2     3   ar
    11     4     5   ar
    12     5    24    1
    13    27    23    1
    14    27    28    1
    15    29    28    1
    16    30    31   ar
    17    32    33   ar
    18    34    29   ar
    19     6     1   ar
    20    20    21   ar
    21    21    16    1
    22    22    17   ar
    23    12    10   am
    24    12     1    1
    25    24    23   am
    26    17    18   ar
    27    19    20   ar
    28    10    13    2
    29     1     2   ar
    30     3     4   ar
    31     5     6   ar
    32    23    25    2
    33    29    30   ar
    34    31    32   ar
    35    33    34   ar
    36    21    22   ar
    37    24    26    1
@<TRIPOS>MOLECULE
MolPort-006-579-777 ChemDiv-V020-2125 MCULE-4092669362 PubChem-46040741 ZINC000037543905 ZINC37543905
 34 37 0 0 0
SMALL
GASTEIGER

@<TRIPOS>ATOM
      1 C          11.3014   41.6560    7.4346 C.ar    1  UNL1        0.0565
      2 C          12.0597   42.3437    6.4725 C.ar    1  UNL1        0.0150
      3 C          13.4541   42.3653    6.5468 C.ar    1  UNL1        0.0026
      4 C          14.1077   41.6949    7.5820 C.ar    1  UNL1        0.0148
      5 C          13.3715   40.9960    8.5488 C.ar    1  UNL1        0.0516
      6 C          11.9757   40.9806    8.4659 C.ar    1  UNL1        0.0296
      7 C           7.0720   40.9820    7.4269 C.3     1  UNL1        0.0971
      8 C           7.7597   41.0951    6.0788 C.3     1  UNL1        0.0435
      9 C           9.2582   40.8424    6.2451 C.3     1  UNL1        0.1015
     10 C           9.0115   42.2742    8.3134 C.2     1  UNL1        0.3112
     11 N           7.6025   42.0017    8.3194 N.am    1  UNL1       -0.2596
     12 N           9.8602   41.6240    7.3385 N.am    1  UNL1       -0.2430
     13 O           9.4904   43.1106    9.1277 O.2     1  UNL1       -0.2520
     14 C           6.6769   42.8254    9.0869 C.3     1  UNL1        0.1218
     15 F           2.0577   41.2644    8.7343 F       1  UNL1       -0.2041
     16 F           4.7500   39.7605   12.3706 F       1  UNL1       -0.2041
     17 C           3.2411   41.2570    9.3931 C.ar    1  UNL1        0.1421
     18 C           4.3154   42.0095    8.9088 C.ar    1  UNL1        0.0272
     19 C           5.5395   41.9996    9.5866 C.ar    1  UNL1        0.0022
     20 C           5.6829   41.2452   10.7562 C.ar    1  UNL1        0.0272
     21 C           4.6086   40.4927   11.2401 C.ar    1  UNL1        0.1421
     22 C           3.3877   40.4985   10.5586 C.ar    1  UNL1        0.0592
     23 C          13.3981   39.8896   10.8605 C.2     1  UNL1        0.2707
     24 N          14.0059   40.2962    9.6276 N.am    1  UNL1       -0.2808
     25 O          12.1942   40.1566   11.1156 O.2     1  UNL1       -0.2707
     26 H          14.9572   40.0718    9.5094 H       1  UNL1        0.1550
     27 C          14.2030   39.1263   11.8553 C.3     1  UNL1        0.2897
     28 O          15.0940   38.2349   11.1916 O.3     1  UNL1       -0.4656
     29 C          14.6736   37.0662   10.5468 C.ar    1  UNL1        0.1393
     30 C          15.3936   36.5157    9.4733 C.ar    1  UNL1        0.0369
     31 C          14.9456   35.3478    8.8493 C.ar    1  UNL1        0.0031
     32 C          13.7762   34.7238    9.2926 C.ar    1  UNL1        0.0002
     33 C          13.0548   35.2682   10.3587 C.ar    1  UNL1        0.0031
     34 C          13.5030   36.4363   10.9829 C.ar    1  UNL1        0.0369
@<TRIPOS>BOND
     1    17    15    1
     2    18    19   ar
     3    14    19    1
     4    14    11    1
     5     7    11    1
     6     7     8    1
     7     8     9    1
     8     9    12    1
     9    10    11   am
    10     2     3   ar
    11     4     5   ar
    12     5    24    1
    13    27    23    1
    14    27    28    1
    15    29    28    1
    16    30    31   ar
    17    32    33   ar
    18    34    29   ar
    19     6     1   ar
    20    20    21   ar
    21    21    16    1
    22    22    17   ar
    23    12    10   am
    24    12     1    1
    25    24    23   am
    26    17    18   ar
    27    19    20   ar
    28    10    13    2
    29     1     2   ar
    30     3     4   ar
    31     5     6   ar
    32    23    25    2
    33    29    30   ar
    34    31    32   ar
    35    33    34   ar
    36    21    22   ar
    37    24    26    1
@<TRIPOS>MOLECULE
MolPort-006-579-777 ChemDiv-V020-2125 MCULE-4092669362 PubChem-46040741 ZINC000037543905 ZINC37543905
 34 37 0 0 0
SMALL
GASTEIGER

@<TRIPOS>ATOM
      1 C           6.7241   42.1315    7.6646 C.ar    1  UNL1        0.0565
      2 C           6.5116   43.3038    6.9201 C.ar    1  UNL1        0.0150
      3 C           5.6141   44.2771    7.3647 C.ar    1  UNL1        0.0026
      4 C           4.9215   44.0920    8.5624 C.ar    1  UNL1        0.0148
      5 C           5.1236   42.9335    9.3252 C.ar    1  UNL1        0.0516
      6 C           6.0241   41.9646    8.8715 C.ar    1  UNL1        0.0296
      7 C           9.4119   39.4258    5.7162 C.3     1  UNL1        0.0971
      8 C           8.1990   38.8256    6.4030 C.3     1  UNL1        0.0435
      9 C           7.1360   39.9060    6.6021 C.3     1  UNL1        0.1015
     10 C           9.0980   41.3560    7.2632 C.2     1  UNL1        0.3112
     11 N           9.9783   40.4607    6.5681 N.am    1  UNL1       -0.2596
     12 N           7.6686   41.1392    7.2057 N.am    1  UNL1       -0.2430
     13 O           9.5792   42.2961    7.9534 O.2     1  UNL1       -0.2520
     14 C          11.4147   40.4700    6.8153 C.3     1  UNL1        0.1218
     15 F          10.6549   36.8246    9.9824 F       1  UNL1       -0.2041
     16 F          13.8615   40.1919   11.0372 F       1  UNL1       -0.2041
     17 C          11.3140   37.9612    9.6531 C.ar    1  UNL1        0.1421
     18 C          11.0423   38.5998    8.4394 C.ar    1  UNL1        0.0272
     19 C          11.7253   39.7721    8.0965 C.ar    1  UNL1        0.0022
     20 C          12.6715   40.3103    8.9754 C.ar    1  UNL1        0.0272
     21 C          12.9430   39.6713   10.1889 C.ar    1  UNL1        0.1421
     22 C          12.2643   38.4968   10.5278 C.ar    1  UNL1        0.0592
     23 C           3.0982   42.2009   10.7144 C.2     1  UNL1        0.2707
     24 N           4.4306   42.7063   10.5598 N.am    1  UNL1       -0.2808
     25 O           2.3825   41.9268    9.7153 O.2     1  UNL1       -0.2707
     26 H           4.9206   42.9195   11.3867 H       1  UNL1        0.1550
     27 C           2.5530   41.9847   12.0842 C.3     1  UNL1        0.2897
     28 O           1.2603   42.5715   12.2006 O.3     1  UNL1       -0.4656
     29 C           0.6035   42.7484   13.4236 C.ar    1  UNL1        0.1393
     30 C          -0.1566   41.7217   14.0085 C.ar    1  UNL1        0.0369
     31 C          -0.8021   41.9314   15.2306 C.ar    1  UNL1        0.0031
     32 C          -0.6934   43.1670   15.8747 C.ar    1  UNL1        0.0002
     33 C           0.0596   44.1925   15.2964 C.ar    1  UNL1        0.0031
     34 C           0.7054   43.9828   14.0741 C.ar    1  UNL1        0.0369
@<TRIPOS>BOND
     1    17    15    1
     2    18    19   ar
     3    14    19    1
     4    14    11    1
     5     7    11    1
     6     7     8    1
     7     8     9    1
     8     9    12    1
     9    10    11   am
    10     2     3   ar
    11     4     5   ar
    12     5    24    1
    13    27    23    1
    14    27    28    1
    15    29    28    1
    16    30    31   ar
    17    32    33   ar
    18    34    29   ar
    19     6     1   ar
    20    20    21   ar
    21    21    16    1
    22    22    17   ar
    23    12    10   am
    24    12     1    1
    25    24    23   am
    26    17    18   ar
    27    19    20   ar
    28    10    13    2
    29     1     2   ar
    30     3     4   ar
    31     5     6   ar
    32    23    25    2
    33    29    30   ar
    34    31    32   ar
    35    33    34   ar
    36    21    22   ar
    37    24    26    1
