@<TRIPOS>MOLECULE
MolPort-019-787-623 628436 CSSS00121608801 LN01241672 MCULE-6214710365 PubChem-982687 ZINC000000628436 ZINC00628436
 26 28 0 0 0
SMALL
GASTEIGER

@<TRIPOS>ATOM
      1 C           9.3159   42.6889    8.2149 C.ar    1  UNL1        0.0845
      2 C           9.6479   41.7720    7.2085 C.ar    1  UNL1        0.0704
      3 C           8.6496   41.0953    6.3336 C.3     1  UNL1        0.0528
      4 C          11.7119   42.2122    7.9686 C.ar    1  UNL1        0.1655
      5 N          10.9759   41.5078    7.0823 N.ar    1  UNL1       -0.2282
      6 S          10.7568   43.1881    8.9414 S.2     1  UNL1       -0.0485
      7 C          14.0559   42.9142    7.2813 C.2     1  UNL1        0.2509
      8 O          13.6289   43.7320    6.4210 O.2     1  UNL1       -0.2698
      9 N          13.1375   42.1431    8.0671 N.am    1  UNL1       -0.2606
     10 H          13.5173   41.5174    8.7256 H       1  UNL1        0.1571
     11 C          15.5068   42.7503    7.4798 C.ar    1  UNL1        0.0537
     12 C          15.9939   41.8339    8.4234 C.ar    1  UNL1        0.0045
     13 C          17.3702   41.6776    8.6123 C.ar    1  UNL1        0.0001
     14 C          18.2698   42.4368    7.8590 C.ar    1  UNL1        0.0000
     15 C          17.7933   43.3521    6.9168 C.ar    1  UNL1        0.0001
     16 C          16.4170   43.5084    6.7277 C.ar    1  UNL1        0.0045
     17 C           7.9602   43.2004    8.5339 C.2     1  UNL1        0.2027
     18 O           7.6767   44.3922    8.2343 O.2     1  UNL1       -0.2860
     19 C           4.9575   40.8475   10.5176 C.ar    1  UNL1        0.1387
     20 C           4.7736   41.2399    9.1890 C.ar    1  UNL1        0.0370
     21 C           5.7485   41.9992    8.5363 C.ar    1  UNL1        0.0063
     22 C           6.9272   42.3722    9.1992 C.ar    1  UNL1        0.0397
     23 C           7.1025   41.9863   10.5366 C.ar    1  UNL1        0.0063
     24 C           6.1287   41.2273   11.1911 C.ar    1  UNL1        0.0370
     25 C           3.0979   40.6215   12.1330 C.3     1  UNL1        0.2525
     26 O           3.9654   40.0869   11.1424 O.3     1  UNL1       -0.4714
@<TRIPOS>BOND
     1    25    26    1
     2    19    26    1
     3    20    21   ar
     4    22    23   ar
     5    22    17    1
     6    24    19   ar
     7    17     1    1
     8     1     6   ar
     9     2     5   ar
    10     3     2    1
    11     4     9    1
    12     4     6   ar
    13     7    11    1
    14    12    13   ar
    15    14    15   ar
    16    16    11   ar
    17     9     7   am
    18    19    20   ar
    19    21    22   ar
    20    23    24   ar
    21    17    18    2
    22     1     2   ar
    23     4     5   ar
    24     7     8    2
    25    11    12   ar
    26    13    14   ar
    27    15    16   ar
    28     9    10    1
@<TRIPOS>MOLECULE
MolPort-019-787-623 628436 CSSS00121608801 LN01241672 MCULE-6214710365 PubChem-982687 ZINC000000628436 ZINC00628436
 26 28 0 0 0
SMALL
GASTEIGER

@<TRIPOS>ATOM
      1 C          13.1254   36.5524    9.6424 C.ar    1  UNL1        0.0845
      2 C          13.3964   35.2035    9.3763 C.ar    1  UNL1        0.0704
      3 C          14.3800   34.7345    8.3601 C.3     1  UNL1        0.0528
      4 C          11.8342   34.9349   10.9635 C.ar    1  UNL1        0.1655
      5 N          12.6730   34.3134   10.1069 N.ar    1  UNL1       -0.2282
      6 S          11.9511   36.6039   10.8555 S.2     1  UNL1       -0.0485
      7 C          10.6933   34.6501   13.2167 C.2     1  UNL1        0.2509
      8 O          11.2597   35.6660   13.7048 O.2     1  UNL1       -0.2698
      9 N          10.9526   34.2560   11.8627 N.am    1  UNL1       -0.2606
     10 H          10.4879   33.4562   11.5257 H       1  UNL1        0.1571
     11 C           9.7601   33.8636   14.0424 C.ar    1  UNL1        0.0537
     12 C          10.1116   32.5782   14.4803 C.ar    1  UNL1        0.0045
     13 C           9.2268   31.8315   15.2637 C.ar    1  UNL1        0.0001
     14 C           7.9837   32.3646   15.6153 C.ar    1  UNL1        0.0000
     15 C           7.6253   33.6444   15.1835 C.ar    1  UNL1        0.0001
     16 C           8.5100   34.3912   14.4000 C.ar    1  UNL1        0.0045
     17 C          13.8018   37.7268    9.0385 C.2     1  UNL1        0.2027
     18 O          13.1674   38.4278    8.2038 O.2     1  UNL1       -0.2860
     19 C          17.8675   38.8094    9.9245 C.ar    1  UNL1        0.1387
     20 C          16.8372   39.7303   10.1332 C.ar    1  UNL1        0.0370
     21 C          15.5129   39.3827    9.8534 C.ar    1  UNL1        0.0063
     22 C          15.1960   38.1054    9.3674 C.ar    1  UNL1        0.0397
     23 C          16.2346   37.1880    9.1481 C.ar    1  UNL1        0.0063
     24 C          17.5595   37.5338    9.4269 C.ar    1  UNL1        0.0370
     25 C          19.6447   39.3926   11.5432 C.3     1  UNL1        0.2525
     26 O          19.1815   39.1860   10.2156 O.3     1  UNL1       -0.4714
@<TRIPOS>BOND
     1    25    26    1
     2    19    26    1
     3    20    21   ar
     4    22    23   ar
     5    22    17    1
     6    24    19   ar
     7    17     1    1
     8     1     6   ar
     9     2     5   ar
    10     3     2    1
    11     4     9    1
    12     4     6   ar
    13     7    11    1
    14    12    13   ar
    15    14    15   ar
    16    16    11   ar
    17     9     7   am
    18    19    20   ar
    19    21    22   ar
    20    23    24   ar
    21    17    18    2
    22     1     2   ar
    23     4     5   ar
    24     7     8    2
    25    11    12   ar
    26    13    14   ar
    27    15    16   ar
    28     9    10    1
@<TRIPOS>MOLECULE
MolPort-019-787-623 628436 CSSS00121608801 LN01241672 MCULE-6214710365 PubChem-982687 ZINC000000628436 ZINC00628436
 26 28 0 0 0
SMALL
GASTEIGER

@<TRIPOS>ATOM
      1 C           9.3207   40.9849    6.6489 C.ar    1  UNL1        0.0845
      2 C          10.0477   40.2025    5.7417 C.ar    1  UNL1        0.0704
      3 C           9.4256   39.3102    4.7235 C.3     1  UNL1        0.0528
      4 C          11.7637   41.1404    6.8406 C.ar    1  UNL1        0.1655
      5 N          11.4000   40.2886    5.8580 N.ar    1  UNL1       -0.2282
      6 S          10.4352   41.8214    7.6036 S.2     1  UNL1       -0.0485
      7 C          13.8246   42.6276    6.8193 C.2     1  UNL1        0.2509
      8 O          13.2545   43.5184    6.1317 O.2     1  UNL1       -0.2698
      9 N          13.1193   41.4356    7.1899 N.am    1  UNL1       -0.2606
     10 H          13.6055   40.7685    7.7264 H       1  UNL1        0.1571
     11 C          15.2234   42.8128    7.2439 C.ar    1  UNL1        0.0537
     12 C          15.8206   41.9060    8.1320 C.ar    1  UNL1        0.0045
     13 C          17.1476   42.0810    8.5353 C.ar    1  UNL1        0.0001
     14 C          17.8875   43.1643    8.0536 C.ar    1  UNL1        0.0000
     15 C          17.3007   44.0725    7.1686 C.ar    1  UNL1        0.0001
     16 C          15.9737   43.8977    6.7651 C.ar    1  UNL1        0.0045
     17 C           7.8452   41.1271    6.7108 C.2     1  UNL1        0.2027
     18 O           7.1955   41.1717    5.6308 O.2     1  UNL1       -0.2860
     19 C           5.7176   41.4903   10.4295 C.ar    1  UNL1        0.1387
     20 C           5.0239   41.1951    9.2528 C.ar    1  UNL1        0.0370
     21 C           5.7101   41.0692    8.0419 C.ar    1  UNL1        0.0063
     22 C           7.1028   41.2290    7.9891 C.ar    1  UNL1        0.0397
     23 C           7.7939   41.5371    9.1705 C.ar    1  UNL1        0.0063
     24 C           7.1095   41.6637   10.3822 C.ar    1  UNL1        0.0370
     25 C           3.5874   41.5067   11.6868 C.3     1  UNL1        0.2525
     26 O           5.0036   41.6079   11.6251 O.3     1  UNL1       -0.4714
@<TRIPOS>BOND
     1    25    26    1
     2    19    26    1
     3    20    21   ar
     4    22    23   ar
     5    22    17    1
     6    24    19   ar
     7    17     1    1
     8     1     6   ar
     9     2     5   ar
    10     3     2    1
    11     4     9    1
    12     4     6   ar
    13     7    11    1
    14    12    13   ar
    15    14    15   ar
    16    16    11   ar
    17     9     7   am
    18    19    20   ar
    19    21    22   ar
    20    23    24   ar
    21    17    18    2
    22     1     2   ar
    23     4     5   ar
    24     7     8    2
    25    11    12   ar
    26    13    14   ar
    27    15    16   ar
    28     9    10    1
@<TRIPOS>MOLECULE
MolPort-019-787-623 628436 CSSS00121608801 LN01241672 MCULE-6214710365 PubChem-982687 ZINC000000628436 ZINC00628436
 26 28 0 0 0
SMALL
GASTEIGER

@<TRIPOS>ATOM
      1 C          18.1197   32.5009    2.6536 C.ar    1  UNL1        0.0845
      2 C          16.8925   32.1291    3.2189 C.ar    1  UNL1        0.0704
      3 C          15.6865   31.7586    2.4262 C.3     1  UNL1        0.0528
      4 C          18.0398   32.5137    5.1077 C.ar    1  UNL1        0.1655
      5 N          16.8536   32.1448    4.5782 N.ar    1  UNL1       -0.2282
      6 S          19.1826   32.8338    3.9235 S.2     1  UNL1       -0.0485
      7 C          19.0184   33.6838    7.1406 C.2     1  UNL1        0.2509
      8 O          19.4818   34.6336    6.4517 O.2     1  UNL1       -0.2698
      9 N          18.2988   32.6154    6.5110 N.am    1  UNL1       -0.2606
     10 H          17.9563   31.8960    7.0893 H       1  UNL1        0.1571
     11 C          19.2178   33.6720    8.6005 C.ar    1  UNL1        0.0537
     12 C          19.1644   34.8672    9.3329 C.ar    1  UNL1        0.0045
     13 C          19.3534   34.8568   10.7180 C.ar    1  UNL1        0.0001
     14 C          19.5972   33.6511   11.3812 C.ar    1  UNL1        0.0000
     15 C          19.6520   32.4558   10.6596 C.ar    1  UNL1        0.0001
     16 C          19.4631   32.4660    9.2745 C.ar    1  UNL1        0.0045
     17 C          18.4599   32.5179    1.2096 C.2     1  UNL1        0.2027
     18 O          19.3075   31.6901    0.7776 O.2     1  UNL1       -0.2860
     19 C          16.6315   35.2630   -1.5487 C.ar    1  UNL1        0.1387
     20 C          17.3920   35.7472   -0.4809 C.ar    1  UNL1        0.0370
     21 C          17.9944   34.8603    0.4155 C.ar    1  UNL1        0.0063
     22 C          17.8524   33.4740    0.2544 C.ar    1  UNL1        0.0397
     23 C          17.0783   32.9924   -0.8120 C.ar    1  UNL1        0.0063
     24 C          16.4749   33.8776   -1.7092 C.ar    1  UNL1        0.0370
     25 C          16.4000   37.5503   -2.4619 C.3     1  UNL1        0.2525
     26 O          16.0434   36.1749   -2.4295 O.3     1  UNL1       -0.4714
@<TRIPOS>BOND
     1    25    26    1
     2    19    26    1
     3    20    21   ar
     4    22    23   ar
     5    22    17    1
     6    24    19   ar
     7    17     1    1
     8     1     6   ar
     9     2     5   ar
    10     3     2    1
    11     4     9    1
    12     4     6   ar
    13     7    11    1
    14    12    13   ar
    15    14    15   ar
    16    16    11   ar
    17     9     7   am
    18    19    20   ar
    19    21    22   ar
    20    23    24   ar
    21    17    18    2
    22     1     2   ar
    23     4     5   ar
    24     7     8    2
    25    11    12   ar
    26    13    14   ar
    27    15    16   ar
    28     9    10    1
@<TRIPOS>MOLECULE
MolPort-019-787-623 628436 CSSS00121608801 LN01241672 MCULE-6214710365 PubChem-982687 ZINC000000628436 ZINC00628436
 26 28 0 0 0
SMALL
GASTEIGER

@<TRIPOS>ATOM
      1 C          14.9802   42.3055    7.7345 C.ar    1  UNL1        0.0845
      2 C          16.2562   42.8717    7.8572 C.ar    1  UNL1        0.0704
      3 C          16.6157   44.2330    7.3697 C.3     1  UNL1        0.0528
      4 C          16.6681   40.8832    8.8100 C.ar    1  UNL1        0.1655
      5 N          17.1875   42.0758    8.4478 N.ar    1  UNL1       -0.2282
      6 S          15.0424   40.7623    8.4184 S.2     1  UNL1       -0.0485
      7 C          16.9649   38.4907    9.6148 C.2     1  UNL1        0.2509
      8 O          15.8405   38.1325    9.1690 O.2     1  UNL1       -0.2698
      9 N          17.4097   39.8446    9.4566 N.am    1  UNL1       -0.2606
     10 H          18.2940   40.0775    9.8212 H       1  UNL1        0.1571
     11 C          17.8263   37.5125   10.3021 C.ar    1  UNL1        0.0537
     12 C          17.6473   37.2467   11.6677 C.ar    1  UNL1        0.0045
     13 C          18.4640   36.3187   12.3205 C.ar    1  UNL1        0.0001
     14 C          19.4659   35.6494   11.6125 C.ar    1  UNL1        0.0000
     15 C          19.6512   35.9079   10.2518 C.ar    1  UNL1        0.0001
     16 C          18.8346   36.8359    9.5989 C.ar    1  UNL1        0.0045
     17 C          13.7689   42.9639    7.1862 C.2     1  UNL1        0.2027
     18 O          13.9035   44.0406    6.5434 O.2     1  UNL1       -0.2860
     19 C           9.7898   41.4346    7.7475 C.ar    1  UNL1        0.1387
     20 C          10.3885   41.3799    6.4859 C.ar    1  UNL1        0.0370
     21 C          11.6840   41.8692    6.2981 C.ar    1  UNL1        0.0063
     22 C          12.4052   42.4146    7.3706 C.ar    1  UNL1        0.0397
     23 C          11.7959   42.4785    8.6328 C.ar    1  UNL1        0.0063
     24 C          10.5006   41.9900    8.8226 C.ar    1  UNL1        0.0370
     25 C           8.0554   39.7315    7.2891 C.3     1  UNL1        0.2525
     26 O           8.4939   40.9353    7.9041 O.3     1  UNL1       -0.4714
@<TRIPOS>BOND
     1    25    26    1
     2    19    26    1
     3    20    21   ar
     4    22    23   ar
     5    22    17    1
     6    24    19   ar
     7    17     1    1
     8     1     6   ar
     9     2     5   ar
    10     3     2    1
    11     4     9    1
    12     4     6   ar
    13     7    11    1
    14    12    13   ar
    15    14    15   ar
    16    16    11   ar
    17     9     7   am
    18    19    20   ar
    19    21    22   ar
    20    23    24   ar
    21    17    18    2
    22     1     2   ar
    23     4     5   ar
    24     7     8    2
    25    11    12   ar
    26    13    14   ar
    27    15    16   ar
    28     9    10    1
@<TRIPOS>MOLECULE
MolPort-019-787-623 628436 CSSS00121608801 LN01241672 MCULE-6214710365 PubChem-982687 ZINC000000628436 ZINC00628436
 26 28 0 0 0
SMALL
GASTEIGER

@<TRIPOS>ATOM
      1 C           9.3637   40.6713    6.1319 C.ar    1  UNL1        0.0845
      2 C          10.1081   40.1619    5.0595 C.ar    1  UNL1        0.0704
      3 C           9.5801   39.1843    4.0668 C.3     1  UNL1        0.0528
      4 C          11.6775   41.4778    5.9745 C.ar    1  UNL1        0.1655
      5 N          11.3906   40.6078    4.9824 N.ar    1  UNL1       -0.2282
      6 S          10.3637   41.7326    6.9844 S.2     1  UNL1       -0.0485
      7 C          13.8972   41.7952    7.1712 C.2     1  UNL1        0.2509
      8 O          13.6453   40.8922    8.0153 O.2     1  UNL1       -0.2698
      9 N          12.9473   42.1142    6.1456 N.am    1  UNL1       -0.2606
     10 H          13.1876   42.8264    5.5098 H       1  UNL1        0.1571
     11 C          15.1746   42.5266    7.2395 C.ar    1  UNL1        0.0537
     12 C          15.3839   43.6632    6.4446 C.ar    1  UNL1        0.0045
     13 C          16.5955   44.3576    6.5089 C.ar    1  UNL1        0.0001
     14 C          17.6070   43.9206    7.3685 C.ar    1  UNL1        0.0000
     15 C          17.4070   42.7893    8.1640 C.ar    1  UNL1        0.0001
     16 C          16.1954   42.0947    8.0999 C.ar    1  UNL1        0.0045
     17 C           7.9341   40.4025    6.4236 C.2     1  UNL1        0.2027
     18 O           7.4658   39.2622    6.1571 O.2     1  UNL1       -0.2860
     19 C           5.3448   43.3530    8.1779 C.ar    1  UNL1        0.1387
     20 C           6.0766   43.6600    7.0276 C.ar    1  UNL1        0.0370
     21 C           6.9150   42.7036    6.4486 C.ar    1  UNL1        0.0063
     22 C           7.0296   41.4214    7.0061 C.ar    1  UNL1        0.0397
     23 C           6.3024   41.1211    8.1677 C.ar    1  UNL1        0.0063
     24 C           5.4637   42.0762    8.7483 C.ar    1  UNL1        0.0370
     25 C           3.5224   45.0135    7.9771 C.3     1  UNL1        0.2525
     26 O           4.5134   44.3299    8.7324 O.3     1  UNL1       -0.4714
@<TRIPOS>BOND
     1    25    26    1
     2    19    26    1
     3    20    21   ar
     4    22    23   ar
     5    22    17    1
     6    24    19   ar
     7    17     1    1
     8     1     6   ar
     9     2     5   ar
    10     3     2    1
    11     4     9    1
    12     4     6   ar
    13     7    11    1
    14    12    13   ar
    15    14    15   ar
    16    16    11   ar
    17     9     7   am
    18    19    20   ar
    19    21    22   ar
    20    23    24   ar
    21    17    18    2
    22     1     2   ar
    23     4     5   ar
    24     7     8    2
    25    11    12   ar
    26    13    14   ar
    27    15    16   ar
    28     9    10    1
@<TRIPOS>MOLECULE
MolPort-019-787-623 628436 CSSS00121608801 LN01241672 MCULE-6214710365 PubChem-982687 ZINC000000628436 ZINC00628436
 26 28 0 0 0
SMALL
GASTEIGER

@<TRIPOS>ATOM
      1 C          17.2729   33.6493    5.4927 C.ar    1  UNL1        0.0845
      2 C          18.1291   34.7583    5.5236 C.ar    1  UNL1        0.0704
      3 C          19.4320   34.8271    4.8041 C.3     1  UNL1        0.0528
      4 C          16.5066   35.5377    6.8622 C.ar    1  UNL1        0.1655
      5 N          17.7014   35.7977    6.2892 N.ar    1  UNL1       -0.2282
      6 S          15.9298   34.0190    6.4480 S.2     1  UNL1       -0.0485
      7 C          16.1276   36.6961    9.0925 C.2     1  UNL1        0.2509
      8 O          17.0889   36.0926    9.6430 O.2     1  UNL1       -0.2698
      9 N          15.8081   36.4478    7.7170 N.am    1  UNL1       -0.2606
     10 H          15.0491   36.9418    7.3308 H       1  UNL1        0.1571
     11 C          15.3284   37.6616    9.8672 C.ar    1  UNL1        0.0537
     12 C          15.0831   38.9466    9.3609 C.ar    1  UNL1        0.0045
     13 C          14.3249   39.8632   10.0952 C.ar    1  UNL1        0.0001
     14 C          13.8062   39.5017   11.3415 C.ar    1  UNL1        0.0000
     15 C          14.0455   38.2238   11.8536 C.ar    1  UNL1        0.0001
     16 C          14.8037   37.3071   11.1194 C.ar    1  UNL1        0.0045
     17 C          17.4599   32.4088    4.7007 C.2     1  UNL1        0.2027
     18 O          18.0769   31.4423    5.2259 O.2     1  UNL1       -0.2860
     19 C          16.0694   31.9385    0.6593 C.ar    1  UNL1        0.1387
     20 C          15.2556   31.5535    1.7281 C.ar    1  UNL1        0.0370
     21 C          15.6988   31.7096    3.0442 C.ar    1  UNL1        0.0063
     22 C          16.9604   32.2606    3.3135 C.ar    1  UNL1        0.0397
     23 C          17.7791   32.6349    2.2374 C.ar    1  UNL1        0.0063
     24 C          17.3379   32.4793    0.9207 C.ar    1  UNL1        0.0370
     25 C          15.9187   32.6701   -1.6989 C.3     1  UNL1        0.2525
     26 O          15.5974   31.7718   -0.6455 O.3     1  UNL1       -0.4714
@<TRIPOS>BOND
     1    25    26    1
     2    19    26    1
     3    20    21   ar
     4    22    23   ar
     5    22    17    1
     6    24    19   ar
     7    17     1    1
     8     1     6   ar
     9     2     5   ar
    10     3     2    1
    11     4     9    1
    12     4     6   ar
    13     7    11    1
    14    12    13   ar
    15    14    15   ar
    16    16    11   ar
    17     9     7   am
    18    19    20   ar
    19    21    22   ar
    20    23    24   ar
    21    17    18    2
    22     1     2   ar
    23     4     5   ar
    24     7     8    2
    25    11    12   ar
    26    13    14   ar
    27    15    16   ar
    28     9    10    1
@<TRIPOS>MOLECULE
MolPort-019-787-623 628436 CSSS00121608801 LN01241672 MCULE-6214710365 PubChem-982687 ZINC000000628436 ZINC00628436
 26 28 0 0 0
SMALL
GASTEIGER

@<TRIPOS>ATOM
      1 C           9.3642   41.7425    7.3199 C.ar    1  UNL1        0.0845
      2 C           9.7269   41.9491    8.6577 C.ar    1  UNL1        0.0704
      3 C           8.7554   42.0118    9.7856 C.3     1  UNL1        0.0528
      4 C          11.7676   42.0328    7.7303 C.ar    1  UNL1        0.1655
      5 N          11.0587   42.1156    8.8766 N.ar    1  UNL1       -0.2282
      6 S          10.7829   41.7505    6.4031 S.2     1  UNL1       -0.0485
      7 C          13.8854   43.1382    6.8626 C.2     1  UNL1        0.2509
      8 O          13.2431   43.9691    6.1639 O.2     1  UNL1       -0.2698
      9 N          13.1901   42.1636    7.6516 N.am    1  UNL1       -0.2606
     10 H          13.7337   41.5357    8.1802 H       1  UNL1        0.1571
     11 C          15.3586   43.1690    6.8681 C.ar    1  UNL1        0.0537
     12 C          16.0557   43.9083    5.9011 C.ar    1  UNL1        0.0045
     13 C          17.4533   43.9382    5.9057 C.ar    1  UNL1        0.0001
     14 C          18.1645   43.2289    6.8774 C.ar    1  UNL1        0.0000
     15 C          17.4782   42.4898    7.8445 C.ar    1  UNL1        0.0001
     16 C          16.0806   42.4599    7.8401 C.ar    1  UNL1        0.0045
     17 C           7.9987   41.4772    6.8041 C.2     1  UNL1        0.2027
     18 O           7.8740   40.9127    5.6832 O.2     1  UNL1       -0.2860
     19 C           4.4714   42.5465    9.0182 C.ar    1  UNL1        0.1387
     20 C           5.2246   43.5368    8.3818 C.ar    1  UNL1        0.0370
     21 C           6.3684   43.1954    7.6551 C.ar    1  UNL1        0.0063
     22 C           6.7738   41.8568    7.5464 C.ar    1  UNL1        0.0397
     23 C           6.0216   40.8671    8.1967 C.ar    1  UNL1        0.0063
     24 C           4.8777   41.2064    8.9240 C.ar    1  UNL1        0.0370
     25 C           2.8177   42.1496   10.8144 C.3     1  UNL1        0.2525
     26 O           3.3314   42.9191    9.7356 O.3     1  UNL1       -0.4714
@<TRIPOS>BOND
     1    25    26    1
     2    19    26    1
     3    20    21   ar
     4    22    23   ar
     5    22    17    1
     6    24    19   ar
     7    17     1    1
     8     1     6   ar
     9     2     5   ar
    10     3     2    1
    11     4     9    1
    12     4     6   ar
    13     7    11    1
    14    12    13   ar
    15    14    15   ar
    16    16    11   ar
    17     9     7   am
    18    19    20   ar
    19    21    22   ar
    20    23    24   ar
    21    17    18    2
    22     1     2   ar
    23     4     5   ar
    24     7     8    2
    25    11    12   ar
    26    13    14   ar
    27    15    16   ar
    28     9    10    1
@<TRIPOS>MOLECULE
MolPort-019-787-623 628436 CSSS00121608801 LN01241672 MCULE-6214710365 PubChem-982687 ZINC000000628436 ZINC00628436
 26 28 0 0 0
SMALL
GASTEIGER

@<TRIPOS>ATOM
      1 C           9.7864   42.5301    7.9183 C.ar    1  UNL1        0.0845
      2 C           9.8493   43.7431    7.2194 C.ar    1  UNL1        0.0704
      3 C           8.6597   44.4525    6.6700 C.3     1  UNL1        0.0528
      4 C          12.0397   43.4548    7.6075 C.ar    1  UNL1        0.1655
      5 N          11.1008   44.2459    7.0453 N.ar    1  UNL1       -0.2282
      6 S          11.3659   42.1064    8.3414 S.2     1  UNL1       -0.0485
      7 C          14.4764   42.7432    7.4812 C.2     1  UNL1        0.2509
      8 O          14.1820   41.5195    7.3957 O.2     1  UNL1       -0.2698
      9 N          13.4432   43.7316    7.5879 N.am    1  UNL1       -0.2606
     10 H          13.7211   44.6738    7.6527 H       1  UNL1        0.1571
     11 C          15.8898   43.1594    7.4716 C.ar    1  UNL1        0.0537
     12 C          16.5318   43.5166    8.6665 C.ar    1  UNL1        0.0045
     13 C          17.8728   43.9114    8.6582 C.ar    1  UNL1        0.0001
     14 C          18.5820   43.9521    7.4547 C.ar    1  UNL1        0.0000
     15 C          17.9505   43.5979    6.2596 C.ar    1  UNL1        0.0001
     16 C          16.6095   43.2030    6.2678 C.ar    1  UNL1        0.0045
     17 C           8.5578   41.7904    8.2983 C.2     1  UNL1        0.2027
     18 O           7.8929   41.2157    7.3937 O.2     1  UNL1       -0.2860
     19 C           7.1736   41.6154   12.3653 C.ar    1  UNL1        0.1387
     20 C           6.2877   41.3658   11.3138 C.ar    1  UNL1        0.0370
     21 C           6.7325   41.4147    9.9899 C.ar    1  UNL1        0.0063
     22 C           8.0728   41.7065    9.6959 C.ar    1  UNL1        0.0397
     23 C           8.9561   41.9682   10.7540 C.ar    1  UNL1        0.0063
     24 C           8.5132   41.9201   12.0785 C.ar    1  UNL1        0.0370
     25 C           7.3527   40.8140   14.6987 C.3     1  UNL1        0.2525
     26 O           6.6993   41.5572   13.6786 O.3     1  UNL1       -0.4714
@<TRIPOS>BOND
     1    25    26    1
     2    19    26    1
     3    20    21   ar
     4    22    23   ar
     5    22    17    1
     6    24    19   ar
     7    17     1    1
     8     1     6   ar
     9     2     5   ar
    10     3     2    1
    11     4     9    1
    12     4     6   ar
    13     7    11    1
    14    12    13   ar
    15    14    15   ar
    16    16    11   ar
    17     9     7   am
    18    19    20   ar
    19    21    22   ar
    20    23    24   ar
    21    17    18    2
    22     1     2   ar
    23     4     5   ar
    24     7     8    2
    25    11    12   ar
    26    13    14   ar
    27    15    16   ar
    28     9    10    1
@<TRIPOS>MOLECULE
MolPort-019-787-623 628436 CSSS00121608801 LN01241672 MCULE-6214710365 PubChem-982687 ZINC000000628436 ZINC00628436
 26 28 0 0 0
SMALL
GASTEIGER

@<TRIPOS>ATOM
      1 C          17.4655   33.8846    7.2994 C.ar    1  UNL1        0.0845
      2 C          18.1626   35.0991    7.3516 C.ar    1  UNL1        0.0704
      3 C          19.5869   35.2622    6.9457 C.3     1  UNL1        0.0528
      4 C          16.1866   35.8009    8.1483 C.ar    1  UNL1        0.1655
      5 N          17.4500   36.1546    7.8289 N.ar    1  UNL1       -0.2282
      6 S          15.8971   34.1759    7.8547 S.2     1  UNL1       -0.0485
      7 C          15.4940   37.9293    9.3525 C.2     1  UNL1        0.2509
      8 O          16.6883   38.2916    9.5356 O.2     1  UNL1       -0.2698
      9 N          15.2053   36.7020    8.6699 N.am    1  UNL1       -0.2606
     10 H          14.2583   36.4605    8.5508 H       1  UNL1        0.1571
     11 C          14.3891   38.7720    9.8428 C.ar    1  UNL1        0.0537
     12 C          14.0237   38.7446   11.1968 C.ar    1  UNL1        0.0045
     13 C          12.9757   39.5438   11.6628 C.ar    1  UNL1        0.0001
     14 C          12.2851   40.3767   10.7782 C.ar    1  UNL1        0.0000
     15 C          12.6424   40.4104    9.4277 C.ar    1  UNL1        0.0001
     16 C          13.6904   39.6112    8.9615 C.ar    1  UNL1        0.0045
     17 C          17.9745   32.5942    6.7731 C.2     1  UNL1        0.2027
     18 O          18.4136   31.7385    7.5889 O.2     1  UNL1       -0.2860
     19 C          18.1037   31.6201    2.5872 C.ar    1  UNL1        0.1387
     20 C          16.9732   31.3018    3.3446 C.ar    1  UNL1        0.0370
     21 C          16.9221   31.6215    4.7041 C.ar    1  UNL1        0.0063
     22 C          17.9978   32.2717    5.3270 C.ar    1  UNL1        0.0397
     23 C          19.1355   32.5786    4.5657 C.ar    1  UNL1        0.0063
     24 C          19.1887   32.2596    3.2063 C.ar    1  UNL1        0.0370
     25 C          18.8658   32.0302    0.2699 C.3     1  UNL1        0.2525
     26 O          18.1241   31.2894    1.2295 O.3     1  UNL1       -0.4714
@<TRIPOS>BOND
     1    25    26    1
     2    19    26    1
     3    20    21   ar
     4    22    23   ar
     5    22    17    1
     6    24    19   ar
     7    17     1    1
     8     1     6   ar
     9     2     5   ar
    10     3     2    1
    11     4     9    1
    12     4     6   ar
    13     7    11    1
    14    12    13   ar
    15    14    15   ar
    16    16    11   ar
    17     9     7   am
    18    19    20   ar
    19    21    22   ar
    20    23    24   ar
    21    17    18    2
    22     1     2   ar
    23     4     5   ar
    24     7     8    2
    25    11    12   ar
    26    13    14   ar
    27    15    16   ar
    28     9    10    1
