@<TRIPOS>MOLECULE
MolPort-051-458-278 CSSS09880971376 MCULE-9621950982 PubChem-162625871 PubChem-164183837
 29 32 0 0 0
SMALL
GASTEIGER

@<TRIPOS>ATOM
      1 C          12.9011   38.6828    8.5237 C.2     1  UNL1        0.2520
      2 N          11.8843   39.6041    8.1097 N.am    1  UNL1       -0.2644
      3 O          14.0818   38.8081    8.1000 O.2     1  UNL1       -0.2697
      4 H          10.9676   39.4463    8.4321 H       1  UNL1        0.1566
      5 C          15.1498   43.4199    6.6503 C.ar    1  UNL1        0.0729
      6 C          15.3972   42.4314    7.6380 C.ar    1  UNL1        0.0040
      7 C          14.4324   41.4534    7.9424 C.ar    1  UNL1        0.0043
      8 C          13.2371   41.5044    7.2335 C.ar    1  UNL1        0.0504
      9 C          12.1028   40.7367    7.2623 C.ar    1  UNL1        0.1553
     10 C          12.9864   42.4492    6.2813 C.ar    1  UNL1        0.0766
     11 C          13.9194   43.4295    5.9572 C.ar    1  UNL1        0.0224
     12 N          11.2185   41.2158    6.3565 N.ar    1  UNL1       -0.1574
     13 N          11.7617   42.2704    5.7524 N.ar    1  UNL1       -0.2745
     14 H          11.3447   42.8184    5.0488 H       1  UNL1        0.1890
     15 F          17.0162   44.6350    7.4211 F       1  UNL1       -0.1659
     16 F          16.9369   44.0463    5.2473 F       1  UNL1       -0.1659
     17 F          15.5907   45.6737    6.0237 F       1  UNL1       -0.1659
     18 C          16.1835   44.4604    6.3306 C.3     1  UNL1        0.4186
     19 C          12.5411   37.5472    9.3981 C.ar    1  UNL1        0.0699
     20 C          13.4164   36.4589    9.6622 C.ar    1  UNL1        0.0713
     21 C          12.9414   35.3650   10.4027 C.ar    1  UNL1        0.0178
     22 C          11.6399   35.3496   10.9047 C.ar    1  UNL1        0.0015
     23 C          10.7934   36.4324   10.6759 C.ar    1  UNL1        0.0002
     24 C          11.2415   37.5202    9.9260 C.ar    1  UNL1        0.0060
     25 C          15.3253   35.9484    8.1333 C.ar    1  UNL1        0.2069
     26 C          15.8063   37.1244    9.8511 C.ar    1  UNL1        0.2069
     27 N          14.7957   36.4632    9.2584 N.ar    1  UNL1       -0.2688
     28 N          16.6333   36.2566    8.0606 N.ar    1  UNL1       -0.1251
     29 N          16.9316   36.9858    9.1256 N.ar    1  UNL1       -0.1251
@<TRIPOS>BOND
     1    18    15    1
     2    18    16    1
     3    18    17    1
     4    18     5    1
     5     6     7   ar
     6     8     9   ar
     7     9     2    1
     8     1    19    1
     9    19    20   ar
    10    20    27    1
    11    21    22   ar
    12    23    24   ar
    13    26    27   ar
    14    10     8   ar
    15    11     5   ar
    16     2     1   am
    17    27    25   ar
    18    28    29   ar
    19    13    12   ar
    20    13    10   ar
    21     5     6   ar
    22     7     8   ar
    23     9    12   ar
    24     1     3    2
    25    20    21   ar
    26    22    23   ar
    27    24    19   ar
    28    25    28   ar
    29    26    29   ar
    30    10    11   ar
    31     2     4    1
    32    13    14    1
@<TRIPOS>MOLECULE
MolPort-051-458-278 CSSS09880971376 MCULE-9621950982 PubChem-162625871 PubChem-164183837
 29 32 0 0 0
SMALL
GASTEIGER

@<TRIPOS>ATOM
      1 C          12.9513   38.6711    8.3555 C.2     1  UNL1        0.2520
      2 N          12.2626   39.9109    8.1489 N.am    1  UNL1       -0.2644
      3 O          14.0416   38.4447    7.7645 O.2     1  UNL1       -0.2697
      4 H          11.3948   40.0305    8.5981 H       1  UNL1        0.1566
      5 C          16.1933   43.2021    7.1141 C.ar    1  UNL1        0.0729
      6 C          16.1739   42.2037    8.1224 C.ar    1  UNL1        0.0040
      7 C          15.0495   41.3772    8.3027 C.ar    1  UNL1        0.0043
      8 C          13.9699   41.5864    7.4514 C.ar    1  UNL1        0.0504
      9 C          12.7428   40.9879    7.3378 C.ar    1  UNL1        0.1553
     10 C          13.9753   42.5426    6.4778 C.ar    1  UNL1        0.0766
     11 C          15.0714   43.3756    6.2741 C.ar    1  UNL1        0.0224
     12 N          12.0539   41.5738    6.3307 N.ar    1  UNL1       -0.1574
     13 N          12.8120   42.5314    5.8010 N.ar    1  UNL1       -0.2745
     14 H          12.5670   43.1221    5.0526 H       1  UNL1        0.1890
     15 F          17.0138   45.2666    6.3275 F       1  UNL1       -0.1659
     16 F          17.9620   44.3574    8.1585 F       1  UNL1       -0.1659
     17 F          18.3448   43.4631    6.1295 F       1  UNL1       -0.1659
     18 C          17.3962   44.0805    6.9274 C.3     1  UNL1        0.4186
     19 C          12.3415   37.6348    9.2146 C.ar    1  UNL1        0.0699
     20 C          10.9416   37.5326    9.4382 C.ar    1  UNL1        0.0713
     21 C          10.4656   36.5956   10.3689 C.ar    1  UNL1        0.0178
     22 C          11.3429   35.7494   11.0473 C.ar    1  UNL1        0.0015
     23 C          12.7122   35.8255   10.8016 C.ar    1  UNL1        0.0002
     24 C          13.2057   36.7632    9.8941 C.ar    1  UNL1        0.0060
     25 C           9.6412   39.5935    8.8870 C.ar    1  UNL1        0.2069
     26 C           9.3576   37.9404    7.5634 C.ar    1  UNL1        0.2069
     27 N           9.9838   38.3060    8.6966 N.ar    1  UNL1       -0.2688
     28 N           8.7989   39.9913    7.9156 N.ar    1  UNL1       -0.1251
     29 N           8.6232   38.9664    7.0949 N.ar    1  UNL1       -0.1251
@<TRIPOS>BOND
     1    18    15    1
     2    18    16    1
     3    18    17    1
     4    18     5    1
     5     6     7   ar
     6     8     9   ar
     7     9     2    1
     8     1    19    1
     9    19    20   ar
    10    20    27    1
    11    21    22   ar
    12    23    24   ar
    13    26    27   ar
    14    10     8   ar
    15    11     5   ar
    16     2     1   am
    17    27    25   ar
    18    28    29   ar
    19    13    12   ar
    20    13    10   ar
    21     5     6   ar
    22     7     8   ar
    23     9    12   ar
    24     1     3    2
    25    20    21   ar
    26    22    23   ar
    27    24    19   ar
    28    25    28   ar
    29    26    29   ar
    30    10    11   ar
    31     2     4    1
    32    13    14    1
@<TRIPOS>MOLECULE
MolPort-051-458-278 CSSS09880971376 MCULE-9621950982 PubChem-162625871 PubChem-164183837
 29 32 0 0 0
SMALL
GASTEIGER

@<TRIPOS>ATOM
      1 C          12.9892   41.5260    7.2325 C.2     1  UNL1        0.2520
      2 N          11.7842   41.7475    7.9761 N.am    1  UNL1       -0.2644
      3 O          12.9412   41.3418    5.9863 O.2     1  UNL1       -0.2697
      4 H          11.8628   41.8467    8.9524 H       1  UNL1        0.1566
      5 C           6.6303   41.9569    8.8405 C.ar    1  UNL1        0.0729
      6 C           7.6466   41.8606    9.8263 C.ar    1  UNL1        0.0040
      7 C           9.0053   41.8107    9.4643 C.ar    1  UNL1        0.0043
      8 C           9.2983   41.8601    8.1057 C.ar    1  UNL1        0.0504
      9 C          10.4749   41.8352    7.4045 C.ar    1  UNL1        0.1553
     10 C           8.3311   41.9527    7.1476 C.ar    1  UNL1        0.0766
     11 C           6.9790   42.0041    7.4729 C.ar    1  UNL1        0.0224
     12 N          10.2050   41.9119    6.0803 N.ar    1  UNL1       -0.1574
     13 N           8.8852   41.9839    5.9214 N.ar    1  UNL1       -0.2745
     14 H           8.4036   42.0480    5.0652 H       1  UNL1        0.1890
     15 F           5.0808   42.2721   10.5880 F       1  UNL1       -0.1659
     16 F           4.5482   43.0160    8.5286 F       1  UNL1       -0.1659
     17 F           4.5490   40.8083    8.9638 F       1  UNL1       -0.1659
     18 C           5.1826   42.0096    9.2339 C.3     1  UNL1        0.4186
     19 C          14.2807   41.4499    7.9466 C.ar    1  UNL1        0.0699
     20 C          15.3814   42.3021    7.6595 C.ar    1  UNL1        0.0713
     21 C          16.6083   42.0725    8.3019 C.ar    1  UNL1        0.0178
     22 C          16.7480   41.0447    9.2348 C.ar    1  UNL1        0.0015
     23 C          15.6590   40.2319    9.5424 C.ar    1  UNL1        0.0002
     24 C          14.4369   40.4328    8.9003 C.ar    1  UNL1        0.0060
     25 C          14.1467   44.0631    6.3882 C.ar    1  UNL1        0.2069
     26 C          16.2780   44.1968    6.3191 C.ar    1  UNL1        0.2069
     27 N          15.2701   43.4373    6.7853 N.ar    1  UNL1       -0.2688
     28 N          14.4616   45.1553    5.6675 N.ar    1  UNL1       -0.1251
     29 N          15.7830   45.2382    5.6248 N.ar    1  UNL1       -0.1251
@<TRIPOS>BOND
     1    18    15    1
     2    18    16    1
     3    18    17    1
     4    18     5    1
     5     6     7   ar
     6     8     9   ar
     7     9     2    1
     8     1    19    1
     9    19    20   ar
    10    20    27    1
    11    21    22   ar
    12    23    24   ar
    13    26    27   ar
    14    10     8   ar
    15    11     5   ar
    16     2     1   am
    17    27    25   ar
    18    28    29   ar
    19    13    12   ar
    20    13    10   ar
    21     5     6   ar
    22     7     8   ar
    23     9    12   ar
    24     1     3    2
    25    20    21   ar
    26    22    23   ar
    27    24    19   ar
    28    25    28   ar
    29    26    29   ar
    30    10    11   ar
    31     2     4    1
    32    13    14    1
@<TRIPOS>MOLECULE
MolPort-051-458-278 CSSS09880971376 MCULE-9621950982 PubChem-162625871 PubChem-164183837
 29 32 0 0 0
SMALL
GASTEIGER

@<TRIPOS>ATOM
      1 C          10.6040   41.8779    8.4783 C.2     1  UNL1        0.2520
      2 N          11.5568   40.8633    8.1366 N.am    1  UNL1       -0.2644
      3 O          10.9693   42.9030    9.1149 O.2     1  UNL1       -0.2697
      4 H          11.2220   40.0608    7.6749 H       1  UNL1        0.1566
      5 C          16.1326   43.1634    7.0765 C.ar    1  UNL1        0.0729
      6 C          14.8808   43.4631    6.4790 C.ar    1  UNL1        0.0040
      7 C          13.7151   42.7686    6.8513 C.ar    1  UNL1        0.0043
      8 C          13.8509   41.7841    7.8241 C.ar    1  UNL1        0.0504
      9 C          12.9587   40.9301    8.4168 C.ar    1  UNL1        0.1553
     10 C          15.0483   41.4860    8.4067 C.ar    1  UNL1        0.0766
     11 C          16.2189   42.1543    8.0606 C.ar    1  UNL1        0.0224
     12 N          13.6123   40.1588    9.3169 N.ar    1  UNL1       -0.1574
     13 N          14.8990   40.5003    9.3108 N.ar    1  UNL1       -0.2745
     14 H          15.6099   40.1048    9.8653 H       1  UNL1        0.1890
     15 F          18.1535   43.1032    5.8654 F       1  UNL1       -0.1659
     16 F          17.0205   45.0480    5.9746 F       1  UNL1       -0.1659
     17 F          18.1135   44.2777    7.7844 F       1  UNL1       -0.1659
     18 C          17.3723   43.9083    6.6745 C.3     1  UNL1        0.4186
     19 C           9.1796   41.6827    8.1367 C.ar    1  UNL1        0.0699
     20 C           8.1769   41.4050    9.1050 C.ar    1  UNL1        0.0713
     21 C           6.8741   41.1099    8.6734 C.ar    1  UNL1        0.0178
     22 C           6.5492   41.1174    7.3167 C.ar    1  UNL1        0.0015
     23 C           7.5240   41.4246    6.3698 C.ar    1  UNL1        0.0002
     24 C           8.8287   41.7021    6.7785 C.ar    1  UNL1        0.0060
     25 C           7.5771   41.8746   11.4845 C.ar    1  UNL1        0.2069
     26 C           9.5110   41.0224   11.1700 C.ar    1  UNL1        0.2069
     27 N           8.4274   41.4815   10.5181 N.ar    1  UNL1       -0.2688
     28 N           8.1423   41.6941   12.6925 N.ar    1  UNL1       -0.1251
     29 N           9.3413   41.1657   12.4975 N.ar    1  UNL1       -0.1251
@<TRIPOS>BOND
     1    18    15    1
     2    18    16    1
     3    18    17    1
     4    18     5    1
     5     6     7   ar
     6     8     9   ar
     7     9     2    1
     8     1    19    1
     9    19    20   ar
    10    20    27    1
    11    21    22   ar
    12    23    24   ar
    13    26    27   ar
    14    10     8   ar
    15    11     5   ar
    16     2     1   am
    17    27    25   ar
    18    28    29   ar
    19    13    12   ar
    20    13    10   ar
    21     5     6   ar
    22     7     8   ar
    23     9    12   ar
    24     1     3    2
    25    20    21   ar
    26    22    23   ar
    27    24    19   ar
    28    25    28   ar
    29    26    29   ar
    30    10    11   ar
    31     2     4    1
    32    13    14    1
@<TRIPOS>MOLECULE
MolPort-051-458-278 CSSS09880971376 MCULE-9621950982 PubChem-162625871 PubChem-164183837
 29 32 0 0 0
SMALL
GASTEIGER

@<TRIPOS>ATOM
      1 C          10.9621   40.9940    6.3178 C.2     1  UNL1        0.2520
      2 N          11.3471   42.3743    6.2945 N.am    1  UNL1       -0.2644
      3 O          11.8313   40.0903    6.1870 O.2     1  UNL1       -0.2697
      4 H          10.6322   43.0480    6.3596 H       1  UNL1        0.1566
      5 C          16.2445   42.1150    8.1113 C.ar    1  UNL1        0.0729
      6 C          15.1277   41.3838    8.5928 C.ar    1  UNL1        0.0040
      7 C          13.8537   41.5436    8.0171 C.ar    1  UNL1        0.0043
      8 C          13.7463   42.4450    6.9636 C.ar    1  UNL1        0.0504
      9 C          12.6938   42.8459    6.1835 C.ar    1  UNL1        0.1553
     10 C          14.8119   43.1544    6.4908 C.ar    1  UNL1        0.0766
     11 C          16.0841   43.0189    7.0383 C.ar    1  UNL1        0.0224
     12 N          13.1295   43.7585    5.2838 N.ar    1  UNL1       -0.1574
     13 N          14.4334   43.9492    5.4727 N.ar    1  UNL1       -0.2745
     14 H          15.0136   44.5589    4.9621 H       1  UNL1        0.1890
     15 F          17.5263   41.0092    9.7509 F       1  UNL1       -0.1659
     16 F          18.4916   41.4906    7.7724 F       1  UNL1       -0.1659
     17 F          18.0696   43.1346    9.2497 F       1  UNL1       -0.1659
     18 C          17.6008   41.9396    8.7303 C.3     1  UNL1        0.4186
     19 C           9.5318   40.6397    6.4305 C.ar    1  UNL1        0.0699
     20 C           8.7786   40.8091    7.6239 C.ar    1  UNL1        0.0713
     21 C           7.4610   40.3273    7.6737 C.ar    1  UNL1        0.0178
     22 C           6.8779   39.7175    6.5627 C.ar    1  UNL1        0.0015
     23 C           7.6046   39.5836    5.3815 C.ar    1  UNL1        0.0002
     24 C           8.9218   40.0392    5.3189 C.ar    1  UNL1        0.0060
     25 C          10.1871   41.0833    9.6691 C.ar    1  UNL1        0.2069
     26 C           9.0930   42.8151    9.0617 C.ar    1  UNL1        0.2069
     27 N           9.2903   41.5179    8.7645 N.ar    1  UNL1       -0.2688
     28 N          10.5004   42.0796   10.5179 N.ar    1  UNL1       -0.1251
     29 N           9.8221   43.1534   10.1413 N.ar    1  UNL1       -0.1251
@<TRIPOS>BOND
     1    18    15    1
     2    18    16    1
     3    18    17    1
     4    18     5    1
     5     6     7   ar
     6     8     9   ar
     7     9     2    1
     8     1    19    1
     9    19    20   ar
    10    20    27    1
    11    21    22   ar
    12    23    24   ar
    13    26    27   ar
    14    10     8   ar
    15    11     5   ar
    16     2     1   am
    17    27    25   ar
    18    28    29   ar
    19    13    12   ar
    20    13    10   ar
    21     5     6   ar
    22     7     8   ar
    23     9    12   ar
    24     1     3    2
    25    20    21   ar
    26    22    23   ar
    27    24    19   ar
    28    25    28   ar
    29    26    29   ar
    30    10    11   ar
    31     2     4    1
    32    13    14    1
@<TRIPOS>MOLECULE
MolPort-051-458-278 CSSS09880971376 MCULE-9621950982 PubChem-162625871 PubChem-164183837
 29 32 0 0 0
SMALL
GASTEIGER

@<TRIPOS>ATOM
      1 C          10.1942   40.4570    8.2913 C.2     1  UNL1        0.2520
      2 N          11.3132   40.7750    7.4543 N.am    1  UNL1       -0.2644
      3 O          10.3745   40.1355    9.4969 O.2     1  UNL1       -0.2697
      4 H          11.1311   40.9815    6.5090 H       1  UNL1        0.1566
      5 C          15.9465   43.1807    7.1406 C.ar    1  UNL1        0.0729
      6 C          14.7626   43.5387    6.4448 C.ar    1  UNL1        0.0040
      7 C          13.5726   42.8073    6.6145 C.ar    1  UNL1        0.0043
      8 C          13.6155   41.7273    7.4895 C.ar    1  UNL1        0.0504
      9 C          12.6757   40.8147    7.8906 C.ar    1  UNL1        0.1553
     10 C          14.7468   41.3722    8.1649 C.ar    1  UNL1        0.0766
     11 C          15.9391   42.0749    8.0189 C.ar    1  UNL1        0.0224
     12 N          13.2383   39.9552    8.7719 N.ar    1  UNL1       -0.1574
     13 N          14.5136   40.2976    8.9410 N.ar    1  UNL1       -0.2745
     14 H          15.1656   39.8479    9.5257 H       1  UNL1        0.1890
     15 F          16.9409   45.1190    6.2417 F       1  UNL1       -0.1659
     16 F          17.7298   44.3083    8.1907 F       1  UNL1       -0.1659
     17 F          18.1593   43.2273    6.2644 F       1  UNL1       -0.1659
     18 C          17.2125   43.9654    6.9547 C.3     1  UNL1        0.4186
     19 C           8.8340   40.4449    7.7137 C.ar    1  UNL1        0.0699
     20 C           7.8528   41.4296    8.0097 C.ar    1  UNL1        0.0713
     21 C           6.5499   41.2659    7.5134 C.ar    1  UNL1        0.0178
     22 C           6.2195   40.1720    6.7131 C.ar    1  UNL1        0.0015
     23 C           7.1907   39.2254    6.3937 C.ar    1  UNL1        0.0002
     24 C           8.4863   39.3612    6.8932 C.ar    1  UNL1        0.0060
     25 C           9.0579   42.7785    9.7332 C.ar    1  UNL1        0.2069
     26 C           7.7199   43.8702    8.4748 C.ar    1  UNL1        0.2069
     27 N           8.1589   42.6271    8.7431 N.ar    1  UNL1       -0.2688
     28 N           9.1377   44.0752   10.0844 N.ar    1  UNL1       -0.1251
     29 N           8.3082   44.7521    9.3042 N.ar    1  UNL1       -0.1251
@<TRIPOS>BOND
     1    18    15    1
     2    18    16    1
     3    18    17    1
     4    18     5    1
     5     6     7   ar
     6     8     9   ar
     7     9     2    1
     8     1    19    1
     9    19    20   ar
    10    20    27    1
    11    21    22   ar
    12    23    24   ar
    13    26    27   ar
    14    10     8   ar
    15    11     5   ar
    16     2     1   am
    17    27    25   ar
    18    28    29   ar
    19    13    12   ar
    20    13    10   ar
    21     5     6   ar
    22     7     8   ar
    23     9    12   ar
    24     1     3    2
    25    20    21   ar
    26    22    23   ar
    27    24    19   ar
    28    25    28   ar
    29    26    29   ar
    30    10    11   ar
    31     2     4    1
    32    13    14    1
@<TRIPOS>MOLECULE
MolPort-051-458-278 CSSS09880971376 MCULE-9621950982 PubChem-162625871 PubChem-164183837
 29 32 0 0 0
SMALL
GASTEIGER

@<TRIPOS>ATOM
      1 C          10.4561   41.7197    9.0771 C.2     1  UNL1        0.2520
      2 N          11.3641   40.7137    8.6107 N.am    1  UNL1       -0.2644
      3 O          10.8967   42.7832    9.5910 O.2     1  UNL1       -0.2697
      4 H          10.9779   39.8816    8.2532 H       1  UNL1        0.1566
      5 C          15.5720   43.2826    6.8652 C.ar    1  UNL1        0.0729
      6 C          14.2197   43.5586    6.5352 C.ar    1  UNL1        0.0040
      7 C          13.1709   42.7899    7.0727 C.ar    1  UNL1        0.0043
      8 C          13.5235   41.7570    7.9346 C.ar    1  UNL1        0.0504
      9 C          12.7906   40.8289    8.6261 C.ar    1  UNL1        0.1553
     10 C          14.8196   41.4809    8.2604 C.ar    1  UNL1        0.0766
     11 C          15.8790   42.2223    7.7459 C.ar    1  UNL1        0.0224
     12 N          13.6299   40.0370    9.3337 N.ar    1  UNL1       -0.1574
     13 N          14.8793   40.4377    9.1086 N.ar    1  UNL1       -0.2745
     14 H          15.6961   40.0436    9.4918 H       1  UNL1        0.1890
     15 F          17.7761   44.0708    7.1384 F       1  UNL1       -0.1659
     16 F          17.0536   43.5910    5.0585 F       1  UNL1       -0.1659
     17 F          16.2952   45.4245    6.1197 F       1  UNL1       -0.1659
     18 C          16.6860   44.1067    6.2879 C.3     1  UNL1        0.4186
     19 C           9.0006   41.4728    9.0110 C.ar    1  UNL1        0.0699
     20 C           8.3175   41.1581    7.8049 C.ar    1  UNL1        0.0713
     21 C           6.9169   41.0648    7.8181 C.ar    1  UNL1        0.0178
     22 C           6.1972   41.2450    8.9995 C.ar    1  UNL1        0.0015
     23 C           6.8698   41.5183   10.1887 C.ar    1  UNL1        0.0002
     24 C           8.2601   41.6336   10.1917 C.ar    1  UNL1        0.0060
     25 C           8.9000   39.7589    5.8187 C.ar    1  UNL1        0.2069
     26 C           9.7868   41.7022    5.8721 C.ar    1  UNL1        0.2069
     27 N           9.0103   40.8627    6.5809 N.ar    1  UNL1       -0.2688
     28 N           9.6204   39.9074    4.6916 N.ar    1  UNL1       -0.1251
     29 N          10.1701   41.1122    4.7247 N.ar    1  UNL1       -0.1251
@<TRIPOS>BOND
     1    18    15    1
     2    18    16    1
     3    18    17    1
     4    18     5    1
     5     6     7   ar
     6     8     9   ar
     7     9     2    1
     8     1    19    1
     9    19    20   ar
    10    20    27    1
    11    21    22   ar
    12    23    24   ar
    13    26    27   ar
    14    10     8   ar
    15    11     5   ar
    16     2     1   am
    17    27    25   ar
    18    28    29   ar
    19    13    12   ar
    20    13    10   ar
    21     5     6   ar
    22     7     8   ar
    23     9    12   ar
    24     1     3    2
    25    20    21   ar
    26    22    23   ar
    27    24    19   ar
    28    25    28   ar
    29    26    29   ar
    30    10    11   ar
    31     2     4    1
    32    13    14    1
@<TRIPOS>MOLECULE
MolPort-051-458-278 CSSS09880971376 MCULE-9621950982 PubChem-162625871 PubChem-164183837
 29 32 0 0 0
SMALL
GASTEIGER

@<TRIPOS>ATOM
      1 C           7.1194   42.3202    9.2594 C.2     1  UNL1        0.2520
      2 N           8.0387   42.7679   10.2636 N.am    1  UNL1       -0.2644
      3 O           7.3025   41.2165    8.6781 O.2     1  UNL1       -0.2697
      4 H           7.8810   43.6536   10.6636 H       1  UNL1        0.1566
      5 C          12.8317   40.9622    9.2053 C.ar    1  UNL1        0.0729
      6 C          12.0119   41.7328    8.3404 C.ar    1  UNL1        0.0040
      7 C          10.7333   42.1599    8.7435 C.ar    1  UNL1        0.0043
      8 C          10.3185   41.7923   10.0190 C.ar    1  UNL1        0.0504
      9 C           9.1692   42.0231   10.7280 C.ar    1  UNL1        0.1553
     10 C          11.0966   41.0518   10.8606 C.ar    1  UNL1        0.0766
     11 C          12.3652   40.6143   10.4919 C.ar    1  UNL1        0.0224
     12 N           9.2721   41.4379   11.9443 N.ar    1  UNL1       -0.1574
     13 N          10.4584   40.8394   12.0264 N.ar    1  UNL1       -0.2745
     14 H          10.8048   40.3347   12.7974 H       1  UNL1        0.1890
     15 F          14.6132   41.2735    7.6942 F       1  UNL1       -0.1659
     16 F          15.0899   40.6663    9.8113 F       1  UNL1       -0.1659
     17 F          14.1800   39.1779    8.3900 F       1  UNL1       -0.1659
     18 C          14.1948   40.5098    8.7687 C.3     1  UNL1        0.4186
     19 C           5.9929   43.1912    8.8644 C.ar    1  UNL1        0.0699
     20 C           4.6489   42.9557    9.2625 C.ar    1  UNL1        0.0713
     21 C           3.6292   43.7637    8.7352 C.ar    1  UNL1        0.0178
     22 C           3.9227   44.8066    7.8565 C.ar    1  UNL1        0.0015
     23 C           5.2441   45.0598    7.4942 C.ar    1  UNL1        0.0002
     24 C           6.2691   44.2555    7.9931 C.ar    1  UNL1        0.0060
     25 C           3.9159   42.1633   11.5157 C.ar    1  UNL1        0.2069
     26 C           4.1253   40.6462   10.0257 C.ar    1  UNL1        0.2069
     27 N           4.2970   41.9632   10.2405 N.ar    1  UNL1       -0.2688
     28 N           3.5563   40.9930   12.0748 N.ar    1  UNL1       -0.1251
     29 N           3.6860   40.0525   11.1510 N.ar    1  UNL1       -0.1251
@<TRIPOS>BOND
     1    18    15    1
     2    18    16    1
     3    18    17    1
     4    18     5    1
     5     6     7   ar
     6     8     9   ar
     7     9     2    1
     8     1    19    1
     9    19    20   ar
    10    20    27    1
    11    21    22   ar
    12    23    24   ar
    13    26    27   ar
    14    10     8   ar
    15    11     5   ar
    16     2     1   am
    17    27    25   ar
    18    28    29   ar
    19    13    12   ar
    20    13    10   ar
    21     5     6   ar
    22     7     8   ar
    23     9    12   ar
    24     1     3    2
    25    20    21   ar
    26    22    23   ar
    27    24    19   ar
    28    25    28   ar
    29    26    29   ar
    30    10    11   ar
    31     2     4    1
    32    13    14    1
@<TRIPOS>MOLECULE
MolPort-051-458-278 CSSS09880971376 MCULE-9621950982 PubChem-162625871 PubChem-164183837
 29 32 0 0 0
SMALL
GASTEIGER

@<TRIPOS>ATOM
      1 C          11.5223   41.6507    9.0699 C.2     1  UNL1        0.2520
      2 N          10.5977   40.9856    8.2000 N.am    1  UNL1       -0.2644
      3 O          11.3523   42.8635    9.3690 O.2     1  UNL1       -0.2697
      4 H          10.7898   40.0504    7.9600 H       1  UNL1        0.1566
      5 C           5.6553   42.4773    9.0367 C.ar    1  UNL1        0.0729
      6 C           6.5209   41.8635    9.9789 C.ar    1  UNL1        0.0040
      7 C           7.8363   41.5063    9.6296 C.ar    1  UNL1        0.0043
      8 C           8.2403   41.7825    8.3279 C.ar    1  UNL1        0.0504
      9 C           9.4159   41.5804    7.6541 C.ar    1  UNL1        0.1553
     10 C           7.4184   42.3723    7.4121 C.ar    1  UNL1        0.0766
     11 C           6.1127   42.7374    7.7262 C.ar    1  UNL1        0.0224
     12 N           9.2862   42.0376    6.3867 N.ar    1  UNL1       -0.1574
     13 N           8.0564   42.5249    6.2369 N.ar    1  UNL1       -0.2745
     14 H           7.6828   42.9233    5.4178 H       1  UNL1        0.1890
     15 F           3.3663   41.9375    8.8835 F       1  UNL1       -0.1659
     16 F           4.1310   42.8565   10.7937 F       1  UNL1       -0.1659
     17 F           3.9306   44.1151    8.9392 F       1  UNL1       -0.1659
     18 C           4.2530   42.8556    9.4161 C.3     1  UNL1        0.4186
     19 C          12.7113   40.9231    9.5606 C.ar    1  UNL1        0.0699
     20 C          13.9501   40.8949    8.8642 C.ar    1  UNL1        0.0713
     21 C          14.9837   40.0744    9.3429 C.ar    1  UNL1        0.0178
     22 C          14.8195   39.3172   10.5029 C.ar    1  UNL1        0.0015
     23 C          13.6173   39.3724   11.2051 C.ar    1  UNL1        0.0002
     24 C          12.5719   40.1675   10.7345 C.ar    1  UNL1        0.0060
     25 C          13.3995   41.9733    6.6789 C.ar    1  UNL1        0.2069
     26 C          15.2603   42.5548    7.5533 C.ar    1  UNL1        0.2069
     27 N          14.2123   41.7284    7.7232 N.ar    1  UNL1       -0.2688
     28 N          13.9547   42.8981    5.8740 N.ar    1  UNL1       -0.1251
     29 N          15.1084   43.2587    6.4162 N.ar    1  UNL1       -0.1251
@<TRIPOS>BOND
     1    18    15    1
     2    18    16    1
     3    18    17    1
     4    18     5    1
     5     6     7   ar
     6     8     9   ar
     7     9     2    1
     8     1    19    1
     9    19    20   ar
    10    20    27    1
    11    21    22   ar
    12    23    24   ar
    13    26    27   ar
    14    10     8   ar
    15    11     5   ar
    16     2     1   am
    17    27    25   ar
    18    28    29   ar
    19    13    12   ar
    20    13    10   ar
    21     5     6   ar
    22     7     8   ar
    23     9    12   ar
    24     1     3    2
    25    20    21   ar
    26    22    23   ar
    27    24    19   ar
    28    25    28   ar
    29    26    29   ar
    30    10    11   ar
    31     2     4    1
    32    13    14    1
@<TRIPOS>MOLECULE
MolPort-051-458-278 CSSS09880971376 MCULE-9621950982 PubChem-162625871 PubChem-164183837
 29 32 0 0 0
SMALL
GASTEIGER

@<TRIPOS>ATOM
      1 C          12.7625   41.9334    7.6631 C.2     1  UNL1        0.2520
      2 N          12.1664   42.4569    8.8566 N.am    1  UNL1       -0.2644
      3 O          12.3577   40.8429    7.1771 O.2     1  UNL1       -0.2697
      4 H          12.5393   43.2904    9.2246 H       1  UNL1        0.1566
      5 C           6.9877   42.3059    9.5720 C.ar    1  UNL1        0.0729
      6 C           7.6905   43.1584    8.6814 C.ar    1  UNL1        0.0040
      7 C           9.0929   43.1036    8.5805 C.ar    1  UNL1        0.0043
      8 C           9.7479   42.1812    9.3893 C.ar    1  UNL1        0.0504
      9 C          11.0690   41.8579    9.5533 C.ar    1  UNL1        0.1553
     10 C           9.0845   41.3556   10.2498 C.ar    1  UNL1        0.0766
     11 C           7.6986   41.3853   10.3728 C.ar    1  UNL1        0.0224
     12 N          11.1747   40.8751   10.4781 N.ar    1  UNL1       -0.1574
     13 N           9.9533   40.5657   10.9076 N.ar    1  UNL1       -0.2745
     14 H           9.7272   39.8849   11.5818 H       1  UNL1        0.1890
     15 F           4.9314   41.3809    8.8864 F       1  UNL1       -0.1659
     16 F           5.1093   42.1718   10.9890 F       1  UNL1       -0.1659
     17 F           5.0152   43.5996    9.2523 F       1  UNL1       -0.1659
     18 C           5.4915   42.3697    9.6747 C.3     1  UNL1        0.4186
     19 C          13.8982   42.6478    7.0437 C.ar    1  UNL1        0.0699
     20 C          15.2469   42.4743    7.4573 C.ar    1  UNL1        0.0713
     21 C          16.2432   43.2888    6.8963 C.ar    1  UNL1        0.0178
     22 C          15.9299   44.2370    5.9222 C.ar    1  UNL1        0.0015
     23 C          14.6129   44.3824    5.4912 C.ar    1  UNL1        0.0002
     24 C          13.6063   43.5949    6.0507 C.ar    1  UNL1        0.0060
     25 C          16.8360   41.3041    8.9895 C.ar    1  UNL1        0.2069
     26 C          14.8500   40.5177    8.9420 C.ar    1  UNL1        0.2069
     27 N          15.6442   41.4474    8.3809 N.ar    1  UNL1       -0.2688
     28 N          16.7802   40.2896    9.8720 N.ar    1  UNL1       -0.1251
     29 N          15.5488   39.8020    9.8426 N.ar    1  UNL1       -0.1251
@<TRIPOS>BOND
     1    18    15    1
     2    18    16    1
     3    18    17    1
     4    18     5    1
     5     6     7   ar
     6     8     9   ar
     7     9     2    1
     8     1    19    1
     9    19    20   ar
    10    20    27    1
    11    21    22   ar
    12    23    24   ar
    13    26    27   ar
    14    10     8   ar
    15    11     5   ar
    16     2     1   am
    17    27    25   ar
    18    28    29   ar
    19    13    12   ar
    20    13    10   ar
    21     5     6   ar
    22     7     8   ar
    23     9    12   ar
    24     1     3    2
    25    20    21   ar
    26    22    23   ar
    27    24    19   ar
    28    25    28   ar
    29    26    29   ar
    30    10    11   ar
    31     2     4    1
    32    13    14    1
