@<TRIPOS>MOLECULE
MolPort-021-753-313 72410854 CSSS00159812936 MCULE-3609066862 PubChem-70723644 ZINC000072410854
 28 30 0 0 0
SMALL
GASTEIGER

@<TRIPOS>ATOM
      1 C           9.6627   41.7496    8.1230 C.ar    1  UNL1        0.0464
      2 C          10.4915   41.0995    7.1819 C.ar    1  UNL1       -0.0069
      3 C           9.9979   40.6981    5.8339 C.3     1  UNL1        0.0324
      4 C          11.7983   40.7493    7.5343 C.ar    1  UNL1        0.0145
      5 C          12.2927   41.0156    8.8183 C.ar    1  UNL1        0.0652
      6 C          11.4599   41.6485    9.7505 C.ar    1  UNL1        0.0188
      7 C          10.1533   42.0005    9.4078 C.ar    1  UNL1        0.0158
      8 C          14.0173   39.7930   10.0866 C.ar    1  UNL1        0.1022
      9 C          15.3923   39.6629   10.0405 C.ar    1  UNL1        0.1195
     10 C          14.8028   41.0843    8.5538 C.ar    1  UNL1        0.1500
     11 N          13.6535   40.6866    9.1481 N.ar    1  UNL1       -0.2888
     12 N          15.8815   40.4724    9.0795 N.ar    1  UNL1       -0.2248
     13 C          14.9227   42.1463    7.5319 C.ar    1  UNL1        0.0642
     14 C          15.9944   43.0586    7.5636 C.ar    1  UNL1        0.1702
     15 C          16.0711   44.0840    6.6126 C.ar    1  UNL1        0.1675
     16 C          15.0772   44.2143    5.6397 C.ar    1  UNL1        0.0320
     17 C          14.0027   43.3235    5.6141 C.ar    1  UNL1        0.0026
     18 C          13.9237   42.2985    6.5594 C.ar    1  UNL1        0.0054
     19 F          16.9721   42.9443    8.4984 F       1  UNL1       -0.2017
     20 F          17.1088   44.9556    6.6319 F       1  UNL1       -0.2018
     21 C           7.7332   43.4061    8.0865 C.2     1  UNL1        0.2425
     22 N           8.3087   42.1181    7.8310 N.am    1  UNL1       -0.2830
     23 O           8.3361   44.2407    8.8122 O.2     1  UNL1       -0.2733
     24 H           7.7293   41.4342    7.4236 H       1  UNL1        0.1549
     25 C           6.3883   43.7665    7.5359 C.3     1  UNL1        0.1588
     26 C           5.0543   43.0446    9.3060 C.3     1  UNL1        0.0900
     27 C           4.3112   44.7646    7.9263 C.3     1  UNL1        0.0900
     28 N           5.4890   44.2259    8.5838 N.3     1  UNL1       -0.2626
@<TRIPOS>BOND
     1    26    28    1
     2    27    28    1
     3    25    28    1
     4    25    21    1
     5    21    22   am
     6     2     4   ar
     7     3     2    1
     8     5     6   ar
     9     5    11    1
    10     7     1   ar
    11     9    12   ar
    12    10    13    1
    13    10    11   ar
    14    14    19    1
    15    14    15   ar
    16    15    20    1
    17    16    17   ar
    18    18    13   ar
    19    22     1    1
    20    11     8   ar
    21    21    23    2
    22     1     2   ar
    23     4     5   ar
    24     6     7   ar
    25     8     9   ar
    26    10    12   ar
    27    13    14   ar
    28    15    16   ar
    29    17    18   ar
    30    22    24    1
@<TRIPOS>MOLECULE
MolPort-021-753-313 72410854 CSSS00159812936 MCULE-3609066862 PubChem-70723644 ZINC000072410854
 28 30 0 0 0
SMALL
GASTEIGER

@<TRIPOS>ATOM
      1 C          10.4892   40.0717    9.2108 C.ar    1  UNL1        0.0464
      2 C          11.0708   40.6073   10.3812 C.ar    1  UNL1       -0.0069
      3 C          10.2660   41.3269   11.4091 C.3     1  UNL1        0.0324
      4 C          12.4548   40.5324   10.5644 C.ar    1  UNL1        0.0145
      5 C          13.2785   39.9507    9.5912 C.ar    1  UNL1        0.0652
      6 C          12.6954   39.4339    8.4267 C.ar    1  UNL1        0.0188
      7 C          11.3146   39.5055    8.2348 C.ar    1  UNL1        0.0158
      8 C          15.2707   38.9602   10.6529 C.ar    1  UNL1        0.1022
      9 C          16.6411   39.0805   10.5219 C.ar    1  UNL1        0.1195
     10 C          15.7150   40.4847    9.1994 C.ar    1  UNL1        0.1500
     11 N          14.6949   39.8444    9.8173 N.ar    1  UNL1       -0.2888
     12 N          16.9164   40.0356    9.6107 N.ar    1  UNL1       -0.2248
     13 C          15.5797   41.6264    8.2696 C.ar    1  UNL1        0.0642
     14 C          16.5698   42.6252    8.2066 C.ar    1  UNL1        0.1702
     15 C          16.4068   43.7215    7.3503 C.ar    1  UNL1        0.1675
     16 C          15.2551   43.8355    6.5680 C.ar    1  UNL1        0.0320
     17 C          14.2617   42.8573    6.6393 C.ar    1  UNL1        0.0026
     18 C          14.4214   41.7617    7.4904 C.ar    1  UNL1        0.0054
     19 F          17.6978   42.5286    8.9557 F       1  UNL1       -0.2017
     20 F          17.3644   44.6778    7.2772 F       1  UNL1       -0.2018
     21 C           8.4141   41.2044    8.2731 C.2     1  UNL1        0.2425
     22 N           9.0804   40.1330    8.9540 N.am    1  UNL1       -0.2830
     23 O           9.0124   42.2914    8.0564 O.2     1  UNL1       -0.2733
     24 H           8.5278   39.3817    9.2695 H       1  UNL1        0.1549
     25 C           6.9847   41.0697    7.8484 C.3     1  UNL1        0.1588
     26 C           5.4395   42.6533    8.5822 C.3     1  UNL1        0.0900
     27 C           6.8874   41.6588   10.1082 C.3     1  UNL1        0.0900
     28 N           6.0729   41.3961    8.9346 N.3     1  UNL1       -0.2626
@<TRIPOS>BOND
     1    26    28    1
     2    27    28    1
     3    25    28    1
     4    25    21    1
     5    21    22   am
     6     2     4   ar
     7     3     2    1
     8     5     6   ar
     9     5    11    1
    10     7     1   ar
    11     9    12   ar
    12    10    13    1
    13    10    11   ar
    14    14    19    1
    15    14    15   ar
    16    15    20    1
    17    16    17   ar
    18    18    13   ar
    19    22     1    1
    20    11     8   ar
    21    21    23    2
    22     1     2   ar
    23     4     5   ar
    24     6     7   ar
    25     8     9   ar
    26    10    12   ar
    27    13    14   ar
    28    15    16   ar
    29    17    18   ar
    30    22    24    1
@<TRIPOS>MOLECULE
MolPort-021-753-313 72410854 CSSS00159812936 MCULE-3609066862 PubChem-70723644 ZINC000072410854
 28 30 0 0 0
SMALL
GASTEIGER

@<TRIPOS>ATOM
      1 C           9.4268   41.6080    7.4563 C.ar    1  UNL1        0.0464
      2 C           8.2850   41.2304    6.7155 C.ar    1  UNL1       -0.0069
      3 C           8.3328   40.1682    5.6708 C.3     1  UNL1        0.0324
      4 C           7.0794   41.9127    6.9042 C.ar    1  UNL1        0.0145
      5 C           6.9921   42.9829    7.8048 C.ar    1  UNL1        0.0652
      6 C           8.1326   43.3602    8.5259 C.ar    1  UNL1        0.0188
      7 C           9.3408   42.6855    8.3430 C.ar    1  UNL1        0.0158
      8 C           5.3288   44.7468    7.3585 C.ar    1  UNL1        0.1022
      9 C           4.0312   45.0225    7.7456 C.ar    1  UNL1        0.1195
     10 C           4.6849   43.2723    8.7887 C.ar    1  UNL1        0.1500
     11 N           5.7326   43.6443    8.0166 N.ar    1  UNL1       -0.2888
     12 N           3.6304   44.0973    8.6409 N.ar    1  UNL1       -0.2248
     13 C           4.6901   42.1743    9.7790 C.ar    1  UNL1        0.0642
     14 C           3.6897   41.1841    9.7618 C.ar    1  UNL1        0.1702
     15 C           3.6856   40.1741   10.7321 C.ar    1  UNL1        0.1675
     16 C           4.6643   40.1547   11.7287 C.ar    1  UNL1        0.0320
     17 C           5.6485   41.1441   11.7615 C.ar    1  UNL1        0.0026
     18 C           5.6572   42.1517   10.7945 C.ar    1  UNL1        0.0054
     19 F           2.7336   41.1840    8.7980 F       1  UNL1       -0.2017
     20 F           2.7318   39.2114   10.7103 F       1  UNL1       -0.2018
     21 C          11.9118   41.3659    7.9404 C.2     1  UNL1        0.2425
     22 N          10.6962   40.9620    7.2964 N.am    1  UNL1       -0.2830
     23 O          11.9848   42.4810    8.5217 O.2     1  UNL1       -0.2733
     24 H          10.7365   40.1809    6.6985 H       1  UNL1        0.1549
     25 C          13.1282   40.4940    7.8954 C.3     1  UNL1        0.1588
     26 C          11.8092   38.8843    8.9457 C.3     1  UNL1        0.0900
     27 C          13.2049   40.2435   10.2180 C.3     1  UNL1        0.0900
     28 N          13.1185   39.5098    8.9674 N.3     1  UNL1       -0.2626
@<TRIPOS>BOND
     1    26    28    1
     2    27    28    1
     3    25    28    1
     4    25    21    1
     5    21    22   am
     6     2     4   ar
     7     3     2    1
     8     5     6   ar
     9     5    11    1
    10     7     1   ar
    11     9    12   ar
    12    10    13    1
    13    10    11   ar
    14    14    19    1
    15    14    15   ar
    16    15    20    1
    17    16    17   ar
    18    18    13   ar
    19    22     1    1
    20    11     8   ar
    21    21    23    2
    22     1     2   ar
    23     4     5   ar
    24     6     7   ar
    25     8     9   ar
    26    10    12   ar
    27    13    14   ar
    28    15    16   ar
    29    17    18   ar
    30    22    24    1
@<TRIPOS>MOLECULE
MolPort-021-753-313 72410854 CSSS00159812936 MCULE-3609066862 PubChem-70723644 ZINC000072410854
 28 30 0 0 0
SMALL
GASTEIGER

@<TRIPOS>ATOM
      1 C          10.0244   40.4226    9.4644 C.ar    1  UNL1        0.0464
      2 C          10.6817   39.4539    8.6739 C.ar    1  UNL1       -0.0069
      3 C           9.9590   38.6344    7.6599 C.3     1  UNL1        0.0324
      4 C          12.0385   39.1914    8.8851 C.ar    1  UNL1        0.0145
      5 C          12.7533   39.8621    9.8866 C.ar    1  UNL1        0.0652
      6 C          12.0909   40.8118   10.6756 C.ar    1  UNL1        0.0188
      7 C          10.7360   41.0793   10.4727 C.ar    1  UNL1        0.0158
      8 C          14.6702   38.6581   10.8629 C.ar    1  UNL1        0.1022
      9 C          16.0404   38.6412   10.6839 C.ar    1  UNL1        0.1195
     10 C          15.2164   40.1530    9.4135 C.ar    1  UNL1        0.1500
     11 N          14.1586   39.6094   10.0599 N.ar    1  UNL1       -0.2888
     12 N          16.3795   39.5781    9.7753 N.ar    1  UNL1       -0.2248
     13 C          15.1657   41.3175    8.5036 C.ar    1  UNL1        0.0642
     14 C          16.2353   42.2308    8.4424 C.ar    1  UNL1        0.1702
     15 C          16.1541   43.3510    7.6057 C.ar    1  UNL1        0.1675
     16 C          15.0063   43.5742    6.8414 C.ar    1  UNL1        0.0320
     17 C          13.9352   42.6816    6.9114 C.ar    1  UNL1        0.0026
     18 C          14.0131   41.5623    7.7430 C.ar    1  UNL1        0.0054
     19 F          17.3606   42.0275    9.1740 F       1  UNL1       -0.2017
     20 F          17.1876   44.2249    7.5340 F       1  UNL1       -0.2018
     21 C           8.1102   41.9077    8.6908 C.2     1  UNL1        0.2425
     22 N           8.6318   40.7250    9.3110 N.am    1  UNL1       -0.2830
     23 O           8.8670   42.8835    8.4423 O.2     1  UNL1       -0.2733
     24 H           7.9836   40.0703    9.6582 H       1  UNL1        0.1549
     25 C           6.6525   42.0242    8.3695 C.3     1  UNL1        0.1588
     26 C           5.0540   41.4165    9.9536 C.3     1  UNL1        0.0900
     27 C           4.9967   43.5436    9.0122 C.3     1  UNL1        0.0900
     28 N           5.8928   42.5144    9.5098 N.3     1  UNL1       -0.2626
@<TRIPOS>BOND
     1    26    28    1
     2    27    28    1
     3    25    28    1
     4    25    21    1
     5    21    22   am
     6     2     4   ar
     7     3     2    1
     8     5     6   ar
     9     5    11    1
    10     7     1   ar
    11     9    12   ar
    12    10    13    1
    13    10    11   ar
    14    14    19    1
    15    14    15   ar
    16    15    20    1
    17    16    17   ar
    18    18    13   ar
    19    22     1    1
    20    11     8   ar
    21    21    23    2
    22     1     2   ar
    23     4     5   ar
    24     6     7   ar
    25     8     9   ar
    26    10    12   ar
    27    13    14   ar
    28    15    16   ar
    29    17    18   ar
    30    22    24    1
@<TRIPOS>MOLECULE
MolPort-021-753-313 72410854 CSSS00159812936 MCULE-3609066862 PubChem-70723644 ZINC000072410854
 28 30 0 0 0
SMALL
GASTEIGER

@<TRIPOS>ATOM
      1 C          10.2581   40.2003    9.7729 C.ar    1  UNL1        0.0464
      2 C           9.7433   41.2679   10.5411 C.ar    1  UNL1       -0.0069
      3 C          10.1607   41.5028   11.9527 C.3     1  UNL1        0.0324
      4 C           8.7570   42.0984   10.0007 C.ar    1  UNL1        0.0145
      5 C           8.2548   41.8737    8.7118 C.ar    1  UNL1        0.0652
      6 C           8.7608   40.8042    7.9611 C.ar    1  UNL1        0.0188
      7 C           9.7448   39.9692    8.4932 C.ar    1  UNL1        0.0158
      8 C           7.4965   43.6085    7.1330 C.ar    1  UNL1        0.1022
      9 C           6.2974   44.2142    6.8087 C.ar    1  UNL1        0.1195
     10 C           5.9518   42.8720    8.4389 C.ar    1  UNL1        0.1500
     11 N           7.2714   42.7647    8.1572 N.ar    1  UNL1       -0.2888
     12 N           5.3317   43.7507    7.6279 N.ar    1  UNL1       -0.2248
     13 C           5.2545   42.2169    9.5664 C.ar    1  UNL1        0.0642
     14 C           3.9351   42.5744    9.9026 C.ar    1  UNL1        0.1702
     15 C           3.3033   41.9739   10.9990 C.ar    1  UNL1        0.1675
     16 C           3.9850   41.0303   11.7712 C.ar    1  UNL1        0.0320
     17 C           5.2997   40.6848   11.4534 C.ar    1  UNL1        0.0026
     18 C           5.9324   41.2799   10.3598 C.ar    1  UNL1        0.0054
     19 F           3.2552   43.4856    9.1606 F       1  UNL1       -0.2017
     20 F           2.0283   42.3057   11.3171 F       1  UNL1       -0.2018
     21 C          12.6574   39.5924   10.3579 C.2     1  UNL1        0.2425
     22 N          11.2558   39.3020   10.2749 N.am    1  UNL1       -0.2830
     23 O          13.1363   40.5959    9.7661 O.2     1  UNL1       -0.2733
     24 H          10.9557   38.4177   10.5866 H       1  UNL1        0.1549
     25 C          13.5836   38.6867   11.1086 C.3     1  UNL1        0.1588
     26 C          13.5092   37.8228    8.9447 C.3     1  UNL1        0.0900
     27 C          13.5720   36.3747   10.7650 C.3     1  UNL1        0.0900
     28 N          14.1013   37.6276   10.2552 N.3     1  UNL1       -0.2626
@<TRIPOS>BOND
     1    26    28    1
     2    27    28    1
     3    25    28    1
     4    25    21    1
     5    21    22   am
     6     2     4   ar
     7     3     2    1
     8     5     6   ar
     9     5    11    1
    10     7     1   ar
    11     9    12   ar
    12    10    13    1
    13    10    11   ar
    14    14    19    1
    15    14    15   ar
    16    15    20    1
    17    16    17   ar
    18    18    13   ar
    19    22     1    1
    20    11     8   ar
    21    21    23    2
    22     1     2   ar
    23     4     5   ar
    24     6     7   ar
    25     8     9   ar
    26    10    12   ar
    27    13    14   ar
    28    15    16   ar
    29    17    18   ar
    30    22    24    1
@<TRIPOS>MOLECULE
MolPort-021-753-313 72410854 CSSS00159812936 MCULE-3609066862 PubChem-70723644 ZINC000072410854
 28 30 0 0 0
SMALL
GASTEIGER

@<TRIPOS>ATOM
      1 C           8.9817   41.4832    9.4464 C.ar    1  UNL1        0.0464
      2 C           9.7781   42.5988    9.7875 C.ar    1  UNL1       -0.0069
      3 C           9.2630   43.7118   10.6346 C.3     1  UNL1        0.0324
      4 C          11.0695   42.7146    9.2644 C.ar    1  UNL1        0.0145
      5 C          11.5793   41.7479    8.3872 C.ar    1  UNL1        0.0652
      6 C          10.7781   40.6512    8.0429 C.ar    1  UNL1        0.0188
      7 C           9.4872   40.5281    8.5594 C.ar    1  UNL1        0.0158
      8 C          13.2797   42.5539    6.7947 C.ar    1  UNL1        0.1022
      9 C          14.6583   42.5289    6.7017 C.ar    1  UNL1        0.1195
     10 C          14.0834   41.4291    8.4448 C.ar    1  UNL1        0.1500
     11 N          12.9254   41.8624    7.8937 N.ar    1  UNL1       -0.2888
     12 N          15.1589   41.8242    7.7366 N.ar    1  UNL1       -0.2248
     13 C          14.1993   40.5289    9.6122 C.ar    1  UNL1        0.0642
     14 C          15.4338   39.9428    9.9499 C.ar    1  UNL1        0.1702
     15 C          15.5180   39.0600   11.0340 C.ar    1  UNL1        0.1675
     16 C          14.3752   38.7462   11.7736 C.ar    1  UNL1        0.0320
     17 C          13.1448   39.3105   11.4325 C.ar    1  UNL1        0.0026
     18 C          13.0571   40.1928   10.3535 C.ar    1  UNL1        0.0054
     19 F          16.5558   40.2398    9.2457 F       1  UNL1       -0.2017
     20 F          16.7077   38.5046   11.3702 F       1  UNL1       -0.2018
     21 C           6.4551   41.5133    9.1573 C.2     1  UNL1        0.2425
     22 N           7.6442   41.3148    9.9333 N.am    1  UNL1       -0.2830
     23 O           6.5139   42.0845    8.0361 O.2     1  UNL1       -0.2733
     24 H           7.5335   41.0418   10.8727 H       1  UNL1        0.1549
     25 C           5.1188   41.0888    9.6823 C.3     1  UNL1        0.1588
     26 C           3.9644   43.1122    9.7689 C.3     1  UNL1        0.0900
     27 C           2.8046   41.1375    9.3575 C.3     1  UNL1        0.0900
     28 N           4.0390   41.8450    9.0656 N.3     1  UNL1       -0.2626
@<TRIPOS>BOND
     1    26    28    1
     2    27    28    1
     3    25    28    1
     4    25    21    1
     5    21    22   am
     6     2     4   ar
     7     3     2    1
     8     5     6   ar
     9     5    11    1
    10     7     1   ar
    11     9    12   ar
    12    10    13    1
    13    10    11   ar
    14    14    19    1
    15    14    15   ar
    16    15    20    1
    17    16    17   ar
    18    18    13   ar
    19    22     1    1
    20    11     8   ar
    21    21    23    2
    22     1     2   ar
    23     4     5   ar
    24     6     7   ar
    25     8     9   ar
    26    10    12   ar
    27    13    14   ar
    28    15    16   ar
    29    17    18   ar
    30    22    24    1
@<TRIPOS>MOLECULE
MolPort-021-753-313 72410854 CSSS00159812936 MCULE-3609066862 PubChem-70723644 ZINC000072410854
 28 30 0 0 0
SMALL
GASTEIGER

@<TRIPOS>ATOM
      1 C          10.0993   41.9702    7.9475 C.ar    1  UNL1        0.0464
      2 C          10.7720   42.4919    9.0746 C.ar    1  UNL1       -0.0069
      3 C          10.2294   43.6341    9.8639 C.3     1  UNL1        0.0324
      4 C          12.0226   41.9803    9.4337 C.ar    1  UNL1        0.0145
      5 C          12.6299   40.9689    8.6774 C.ar    1  UNL1        0.0652
      6 C          11.9623   40.4661    7.5528 C.ar    1  UNL1        0.0188
      7 C          10.7140   40.9718    7.1861 C.ar    1  UNL1        0.0158
      8 C          14.0474   39.3021    9.8130 C.ar    1  UNL1        0.1022
      9 C          15.4001   39.0382    9.9139 C.ar    1  UNL1        0.1195
     10 C          15.1492   40.8255    8.7646 C.ar    1  UNL1        0.1500
     11 N          13.8970   40.4258    9.0876 N.ar    1  UNL1       -0.2888
     12 N          16.0877   39.9936    9.2561 N.ar    1  UNL1       -0.2248
     13 C          15.5006   42.0791    8.0635 C.ar    1  UNL1        0.0642
     14 C          14.8685   42.4302    6.8557 C.ar    1  UNL1        0.1702
     15 C          15.2420   43.6005    6.1828 C.ar    1  UNL1        0.1675
     16 C          16.2530   44.4145    6.6994 C.ar    1  UNL1        0.0320
     17 C          16.8957   44.0622    7.8875 C.ar    1  UNL1        0.0026
     18 C          16.5247   42.8971    8.5624 C.ar    1  UNL1        0.0054
     19 F          13.8805   41.6541    6.3413 F       1  UNL1       -0.2017
     20 F          14.6259   43.9486    5.0269 F       1  UNL1       -0.2018
     21 C           7.5602   41.8704    7.8403 C.2     1  UNL1        0.2425
     22 N           8.8246   42.4633    7.5157 N.am    1  UNL1       -0.2830
     23 O           7.5081   40.7190    8.3485 O.2     1  UNL1       -0.2733
     24 H           8.8167   43.2711    6.9529 H       1  UNL1        0.1549
     25 C           6.2798   42.5861    7.5405 C.3     1  UNL1        0.1588
     26 C           4.9689   42.8363    9.4518 C.3     1  UNL1        0.0900
     27 C           5.2187   44.6216    7.9806 C.3     1  UNL1        0.0900
     28 N           5.9283   43.5173    8.6022 N.3     1  UNL1       -0.2626
@<TRIPOS>BOND
     1    26    28    1
     2    27    28    1
     3    25    28    1
     4    25    21    1
     5    21    22   am
     6     2     4   ar
     7     3     2    1
     8     5     6   ar
     9     5    11    1
    10     7     1   ar
    11     9    12   ar
    12    10    13    1
    13    10    11   ar
    14    14    19    1
    15    14    15   ar
    16    15    20    1
    17    16    17   ar
    18    18    13   ar
    19    22     1    1
    20    11     8   ar
    21    21    23    2
    22     1     2   ar
    23     4     5   ar
    24     6     7   ar
    25     8     9   ar
    26    10    12   ar
    27    13    14   ar
    28    15    16   ar
    29    17    18   ar
    30    22    24    1
@<TRIPOS>MOLECULE
MolPort-021-753-313 72410854 CSSS00159812936 MCULE-3609066862 PubChem-70723644 ZINC000072410854
 28 30 0 0 0
SMALL
GASTEIGER

@<TRIPOS>ATOM
      1 C          10.0141   41.7304    7.7138 C.ar    1  UNL1        0.0464
      2 C          10.7712   41.1674    6.6626 C.ar    1  UNL1       -0.0069
      3 C          10.1350   40.4352    5.5307 C.3     1  UNL1        0.0324
      4 C          12.1674   41.2270    6.7048 C.ar    1  UNL1        0.0145
      5 C          12.8294   41.8202    7.7882 C.ar    1  UNL1        0.0652
      6 C          12.0716   42.3642    8.8337 C.ar    1  UNL1        0.0188
      7 C          10.6772   42.3080    8.8005 C.ar    1  UNL1        0.0158
      8 C          14.9845   42.6814    6.9570 C.ar    1  UNL1        0.1022
      9 C          16.3115   42.5935    7.3325 C.ar    1  UNL1        0.1195
     10 C          15.1579   41.3677    8.6534 C.ar    1  UNL1        0.1500
     11 N          14.2648   41.9100    7.7928 N.ar    1  UNL1       -0.2888
     12 N          16.4170   41.7705    8.3954 N.ar    1  UNL1       -0.2248
     13 C          14.8533   40.3579    9.6898 C.ar    1  UNL1        0.0642
     14 C          15.8640   39.5204   10.1984 C.ar    1  UNL1        0.1702
     15 C          15.5511   38.5413   11.1497 C.ar    1  UNL1        0.1675
     16 C          14.2333   38.3822   11.5853 C.ar    1  UNL1        0.0320
     17 C          13.2237   39.1979   11.0714 C.ar    1  UNL1        0.0026
     18 C          13.5321   40.1767   10.1242 C.ar    1  UNL1        0.0054
     19 F          17.1509   39.6638    9.7906 F       1  UNL1       -0.2017
     20 F          16.5242   37.7425   11.6516 F       1  UNL1       -0.2018
     21 C           7.7329   42.7623    8.1606 C.2     1  UNL1        0.2425
     22 N           8.5817   41.6861    7.7399 N.am    1  UNL1       -0.2830
     23 O           8.2163   43.7564    8.7644 O.2     1  UNL1       -0.2733
     24 H           8.1473   40.8527    7.4465 H       1  UNL1        0.1549
     25 C           6.2543   42.7050    7.9323 C.3     1  UNL1        0.1588
     26 C           4.4974   43.1122    9.4093 C.3     1  UNL1        0.0900
     27 C           4.9167   44.6042    7.6737 C.3     1  UNL1        0.0900
     28 N           5.5612   43.7566    8.6615 N.3     1  UNL1       -0.2626
@<TRIPOS>BOND
     1    26    28    1
     2    27    28    1
     3    25    28    1
     4    25    21    1
     5    21    22   am
     6     2     4   ar
     7     3     2    1
     8     5     6   ar
     9     5    11    1
    10     7     1   ar
    11     9    12   ar
    12    10    13    1
    13    10    11   ar
    14    14    19    1
    15    14    15   ar
    16    15    20    1
    17    16    17   ar
    18    18    13   ar
    19    22     1    1
    20    11     8   ar
    21    21    23    2
    22     1     2   ar
    23     4     5   ar
    24     6     7   ar
    25     8     9   ar
    26    10    12   ar
    27    13    14   ar
    28    15    16   ar
    29    17    18   ar
    30    22    24    1
@<TRIPOS>MOLECULE
MolPort-021-753-313 72410854 CSSS00159812936 MCULE-3609066862 PubChem-70723644 ZINC000072410854
 28 30 0 0 0
SMALL
GASTEIGER

@<TRIPOS>ATOM
      1 C           8.6853   41.3208    9.3488 C.ar    1  UNL1        0.0464
      2 C           9.5818   42.2248    9.9607 C.ar    1  UNL1       -0.0069
      3 C           9.1356   43.2167   10.9800 C.3     1  UNL1        0.0324
      4 C          10.9204   42.2529    9.5583 C.ar    1  UNL1        0.0145
      5 C          11.3826   41.4096    8.5389 C.ar    1  UNL1        0.0652
      6 C          10.4841   40.5253    7.9274 C.ar    1  UNL1        0.0188
      7 C           9.1456   40.4913    8.3219 C.ar    1  UNL1        0.0158
      8 C          13.3578   42.3868    7.4339 C.ar    1  UNL1        0.1022
      9 C          14.7122   42.1178    7.3798 C.ar    1  UNL1        0.1195
     10 C          13.7705   40.5891    8.5438 C.ar    1  UNL1        0.1500
     11 N          12.7724   41.4230    8.1687 N.ar    1  UNL1       -0.2888
     12 N          14.9678   40.9917    8.0761 N.ar    1  UNL1       -0.2248
     13 C          13.6011   39.3150    9.2749 C.ar    1  UNL1        0.0642
     14 C          14.3083   39.0692   10.4671 C.ar    1  UNL1        0.1702
     15 C          14.1679   37.8410   11.1255 C.ar    1  UNL1        0.1675
     16 C          13.3384   36.8507   10.5937 C.ar    1  UNL1        0.0320
     17 C          12.6484   37.0820    9.4024 C.ar    1  UNL1        0.0026
     18 C          12.7842   38.3062    8.7440 C.ar    1  UNL1        0.0054
     19 F          15.1149   40.0216   11.0013 F       1  UNL1       -0.2017
     20 F          14.8366   37.6063   12.2807 F       1  UNL1       -0.2018
     21 C           6.2267   41.8270    8.9398 C.2     1  UNL1        0.2425
     22 N           7.2978   41.2551    9.7022 N.am    1  UNL1       -0.2830
     23 O           6.4705   42.6392    8.0084 O.2     1  UNL1       -0.2733
     24 H           7.0622   40.7809   10.5322 H       1  UNL1        0.1549
     25 C           4.8005   41.5070    9.2641 C.3     1  UNL1        0.1588
     26 C           3.5978   40.0624   10.6427 C.3     1  UNL1        0.0900
     27 C           4.1603   42.1870   11.4067 C.3     1  UNL1        0.0900
     28 N           4.6548   41.0567   10.6403 N.3     1  UNL1       -0.2626
@<TRIPOS>BOND
     1    26    28    1
     2    27    28    1
     3    25    28    1
     4    25    21    1
     5    21    22   am
     6     2     4   ar
     7     3     2    1
     8     5     6   ar
     9     5    11    1
    10     7     1   ar
    11     9    12   ar
    12    10    13    1
    13    10    11   ar
    14    14    19    1
    15    14    15   ar
    16    15    20    1
    17    16    17   ar
    18    18    13   ar
    19    22     1    1
    20    11     8   ar
    21    21    23    2
    22     1     2   ar
    23     4     5   ar
    24     6     7   ar
    25     8     9   ar
    26    10    12   ar
    27    13    14   ar
    28    15    16   ar
    29    17    18   ar
    30    22    24    1
@<TRIPOS>MOLECULE
MolPort-021-753-313 72410854 CSSS00159812936 MCULE-3609066862 PubChem-70723644 ZINC000072410854
 28 30 0 0 0
SMALL
GASTEIGER

@<TRIPOS>ATOM
      1 C          10.7143   40.2691    9.0136 C.ar    1  UNL1        0.0464
      2 C          11.4098   41.1215    9.8995 C.ar    1  UNL1       -0.0069
      3 C          10.7517   42.2819   10.5644 C.3     1  UNL1        0.0324
      4 C          12.7775   40.9288   10.1163 C.ar    1  UNL1        0.0145
      5 C          13.4751   39.9126    9.4496 C.ar    1  UNL1        0.0652
      6 C          12.7809   39.0799    8.5620 C.ar    1  UNL1        0.0188
      7 C          11.4156   39.2658    8.3384 C.ar    1  UNL1        0.0158
      8 C          15.3672   38.6730   10.4297 C.ar    1  UNL1        0.1022
      9 C          16.7463   38.7444   10.3798 C.ar    1  UNL1        0.1195
     10 C          15.9487   40.3800    9.2542 C.ar    1  UNL1        0.1500
     11 N          14.8724   39.7030    9.7185 N.ar    1  UNL1       -0.2888
     12 N          17.1077   39.8141    9.6426 N.ar    1  UNL1       -0.2248
     13 C          15.9090   41.6571    8.5098 C.ar    1  UNL1        0.0642
     14 C          14.9759   41.8589    7.4752 C.ar    1  UNL1        0.1702
     15 C          14.9786   43.0587    6.7525 C.ar    1  UNL1        0.1675
     16 C          15.9163   44.0519    7.0451 C.ar    1  UNL1        0.0320
     17 C          16.8554   43.8503    8.0581 C.ar    1  UNL1        0.0026
     18 C          16.8547   42.6562    8.7823 C.ar    1  UNL1        0.0054
     19 F          14.0541   40.9071    7.1802 F       1  UNL1       -0.2017
     20 F          14.0728   43.2617    5.7650 F       1  UNL1       -0.2018
     21 C           8.7694   41.3105    7.7482 C.2     1  UNL1        0.2425
     22 N           9.3172   40.4249    8.7336 N.am    1  UNL1       -0.2830
     23 O           9.4907   42.1947    7.2148 O.2     1  UNL1       -0.2733
     24 H           8.6853   39.8820    9.2583 H       1  UNL1        0.1549
     25 C           7.3232   41.2325    7.3684 C.3     1  UNL1        0.1588
     26 C           6.0984   39.6750    6.1404 C.3     1  UNL1        0.0900
     27 C           8.3711   39.9463    5.7219 C.3     1  UNL1        0.0900
     28 N           7.1512   40.6685    6.0379 N.3     1  UNL1       -0.2626
@<TRIPOS>BOND
     1    26    28    1
     2    27    28    1
     3    25    28    1
     4    25    21    1
     5    21    22   am
     6     2     4   ar
     7     3     2    1
     8     5     6   ar
     9     5    11    1
    10     7     1   ar
    11     9    12   ar
    12    10    13    1
    13    10    11   ar
    14    14    19    1
    15    14    15   ar
    16    15    20    1
    17    16    17   ar
    18    18    13   ar
    19    22     1    1
    20    11     8   ar
    21    21    23    2
    22     1     2   ar
    23     4     5   ar
    24     6     7   ar
    25     8     9   ar
    26    10    12   ar
    27    13    14   ar
    28    15    16   ar
    29    17    18   ar
    30    22    24    1
