@<TRIPOS>MOLECULE
MolPort-047-071-752 PubChem-132766475
 32 35 0 0 0
SMALL
GASTEIGER

@<TRIPOS>ATOM
      1 C          17.1682   40.4239    9.5437 C.ar    1  UNL1        0.1357
      2 C          15.7816   40.2982    9.6253 C.ar    1  UNL1        0.0492
      3 C          15.2459   39.1177   10.1399 C.ar    1  UNL1        0.0644
      4 C          17.4248   38.2572   10.4635 C.ar    1  UNL1        0.1406
      5 C          18.3136   37.1558   10.9157 C.3     1  UNL1        0.0737
      6 N          16.0761   38.1200   10.5492 N.ar    1  UNL1       -0.2348
      7 N          17.9613   39.4010    9.9645 N.ar    1  UNL1       -0.2159
      8 C          13.7645   38.9624   10.2353 C.3     1  UNL1        0.0603
      9 C          13.2597   37.9261    9.2261 C.3     1  UNL1        0.0094
     10 C          11.7268   37.8353    9.1573 C.3     1  UNL1        0.0220
     11 C          11.0245   38.8137   10.0984 C.3     1  UNL1        0.0937
     12 C          13.0638   40.3079   10.0341 C.3     1  UNL1        0.0996
     13 C          10.8008   41.2902    9.6061 C.2     1  UNL1        0.2492
     14 N          11.6074   40.1493    9.9588 N.am    1  UNL1       -0.2757
     15 O          11.3445   42.2833    9.0531 O.2     1  UNL1       -0.2699
     16 C           9.3518   41.3687    9.8708 C.2     1  UNL1        0.0580
     17 C           8.4196   41.2821    8.9274 C.2     1  UNL1        0.0078
     18 C           6.9908   41.3674    9.2421 C.ar    1  UNL1        0.0398
     19 C           5.9257   41.1707    8.3785 C.ar    1  UNL1        0.1216
     20 C           4.1658   41.8948   11.3858 C.3     1  UNL1        0.1538
     21 C           6.4628   41.6640   10.4799 C.ar    1  UNL1        0.0967
     22 N           4.7928   41.3461    9.0857 N.ar    1  UNL1       -0.1676
     23 N           5.1282   41.6384   10.3311 N.ar    1  UNL1       -0.2473
     24 N          17.7289   41.6322    9.0165 N.pl3   1  UNL1       -0.2833
     25 H          18.6088   41.9036    9.3648 H       1  UNL1        0.1550
     26 C          13.8062   42.9793    6.4084 C.3     1  UNL1        0.0521
     27 C          15.2410   43.1562    6.7524 C.ar    1  UNL1        0.0608
     28 C          15.9943   44.1451    6.1168 C.ar    1  UNL1        0.0148
     29 C          17.3403   44.2962    6.4531 C.ar    1  UNL1        0.0041
     30 C          17.9148   43.4628    7.4145 C.ar    1  UNL1        0.0344
     31 C          17.1316   42.4833    8.0310 C.ar    1  UNL1        0.1328
     32 N          15.8193   42.3542    7.6864 N.ar    1  UNL1       -0.2349
@<TRIPOS>BOND
     1    26    27    1
     2    27    32   ar
     3    28    29   ar
     4    30    31   ar
     5    31    24    1
     6     1     7   ar
     7     2     3   ar
     8     4     6   ar
     9     5     4    1
    10     8     3    1
    11     8     9    1
    12     9    10    1
    13    10    11    1
    14    11    14    1
    15    12    14    1
    16    12     8    1
    17    13    16    1
    18    17    18    1
    19    18    19   ar
    20    20    23    1
    21    24     1    1
    22    14    13   am
    23    23    22   ar
    24    23    21   ar
    25    27    28   ar
    26    29    30   ar
    27    31    32   ar
    28     1     2   ar
    29     3     6   ar
    30     4     7   ar
    31    13    15    2
    32    16    17    2
    33    19    22   ar
    34    21    18   ar
    35    24    25    1
@<TRIPOS>MOLECULE
MolPort-047-071-752 PubChem-132766475
 32 35 0 0 0
SMALL
GASTEIGER

@<TRIPOS>ATOM
      1 C          15.3890   40.3227    9.4297 C.ar    1  UNL1        0.1357
      2 C          14.1114   40.8443    9.2281 C.ar    1  UNL1        0.0492
      3 C          13.0111   40.1076    9.6664 C.ar    1  UNL1        0.0644
      4 C          14.4517   38.4110   10.4658 C.ar    1  UNL1        0.1406
      5 C          14.6373   37.0971   11.1340 C.3     1  UNL1        0.0737
      6 N          13.2010   38.9060   10.2765 N.ar    1  UNL1       -0.2348
      7 N          15.5331   39.1169   10.0444 N.ar    1  UNL1       -0.2159
      8 C          11.6350   40.6473    9.4599 C.3     1  UNL1        0.0603
      9 C          11.6857   42.1136    9.0190 C.3     1  UNL1        0.0094
     10 C          10.3020   42.7790    8.9464 C.3     1  UNL1        0.0220
     11 C           9.1633   41.8420    9.3488 C.3     1  UNL1        0.0937
     12 C          10.7933   40.4866   10.7279 C.3     1  UNL1        0.0996
     13 C           8.6427   41.2503   11.7580 C.2     1  UNL1        0.2492
     14 N           9.4955   41.1583   10.5999 N.am    1  UNL1       -0.2757
     15 O           9.1356   41.0693   12.9034 O.2     1  UNL1       -0.2699
     16 C           7.1981   41.5372   11.6774 C.2     1  UNL1        0.0580
     17 C           6.5305   41.6684   10.5357 C.2     1  UNL1        0.0078
     18 C           5.0936   41.9551   10.5088 C.ar    1  UNL1        0.0398
     19 C           4.3386   42.3715    9.4245 C.ar    1  UNL1        0.1216
     20 C           1.8140   42.2398   11.9294 C.3     1  UNL1        0.1538
     21 C           4.2394   41.8536   11.5855 C.ar    1  UNL1        0.0967
     22 N           3.0674   42.5139    9.8465 N.ar    1  UNL1       -0.1676
     23 N           3.0247   42.2029   11.1311 N.ar    1  UNL1       -0.2473
     24 N          16.5260   41.0711    8.9832 N.pl3   1  UNL1       -0.2833
     25 H          17.4058   40.7898    9.3238 H       1  UNL1        0.1550
     26 C          14.0945   43.9084    5.8144 C.3     1  UNL1        0.0521
     27 C          15.3461   43.5825    6.5461 C.ar    1  UNL1        0.0608
     28 C          16.4879   44.3637    6.3584 C.ar    1  UNL1        0.0148
     29 C          17.6541   44.0419    7.0542 C.ar    1  UNL1        0.0041
     30 C          17.6661   42.9503    7.9243 C.ar    1  UNL1        0.0344
     31 C          16.5053   42.1898    8.0885 C.ar    1  UNL1        0.1328
     32 N          15.3782   42.5228    7.3983 N.ar    1  UNL1       -0.2349
@<TRIPOS>BOND
     1    26    27    1
     2    27    32   ar
     3    28    29   ar
     4    30    31   ar
     5    31    24    1
     6     1     7   ar
     7     2     3   ar
     8     4     6   ar
     9     5     4    1
    10     8     3    1
    11     8     9    1
    12     9    10    1
    13    10    11    1
    14    11    14    1
    15    12    14    1
    16    12     8    1
    17    13    16    1
    18    17    18    1
    19    18    19   ar
    20    20    23    1
    21    24     1    1
    22    14    13   am
    23    23    22   ar
    24    23    21   ar
    25    27    28   ar
    26    29    30   ar
    27    31    32   ar
    28     1     2   ar
    29     3     6   ar
    30     4     7   ar
    31    13    15    2
    32    16    17    2
    33    19    22   ar
    34    21    18   ar
    35    24    25    1
@<TRIPOS>MOLECULE
MolPort-047-071-752 PubChem-132766475
 32 35 0 0 0
SMALL
GASTEIGER

@<TRIPOS>ATOM
      1 C           6.3976   41.0148    7.2830 C.ar    1  UNL1        0.1357
      2 C           7.4451   40.1844    6.8854 C.ar    1  UNL1        0.0492
      3 C           8.4745   40.7272    6.1167 C.ar    1  UNL1        0.0644
      4 C           7.4126   42.8397    6.1667 C.ar    1  UNL1        0.1406
      5 C           7.3935   44.2740    5.7794 C.3     1  UNL1        0.0737
      6 N           8.4397   42.0433    5.7718 N.ar    1  UNL1       -0.2348
      7 N           6.4027   42.3254    6.9156 N.ar    1  UNL1       -0.2159
      8 C           9.6048   39.8557    5.6799 C.3     1  UNL1        0.0603
      9 C          10.6091   40.6482    4.8370 C.3     1  UNL1        0.0094
     10 C          11.7124   39.7749    4.2185 C.3     1  UNL1        0.0220
     11 C          11.5658   38.2920    4.5585 C.3     1  UNL1        0.0937
     12 C           9.0856   38.6388    4.9108 C.3     1  UNL1        0.0996
     13 C           9.8734   36.7746    3.4365 C.2     1  UNL1        0.2492
     14 N          10.1856   37.8599    4.3317 N.am    1  UNL1       -0.2757
     15 O           8.7310   36.7196    2.9079 O.2     1  UNL1       -0.2699
     16 C          10.8271   35.6987    3.1070 C.2     1  UNL1        0.0580
     17 C          10.6853   34.4363    3.4978 C.2     1  UNL1        0.0078
     18 C          11.6629   33.4031    3.1449 C.ar    1  UNL1        0.0398
     19 C          11.6336   32.5559    2.0492 C.ar    1  UNL1        0.1216
     20 C          14.6469   31.4683    3.5991 C.3     1  UNL1        0.1538
     21 C          12.7987   33.1005    3.8642 C.ar    1  UNL1        0.0967
     22 N          12.7250   31.7693    2.1159 N.ar    1  UNL1       -0.1676
     23 N          13.4063   32.1046    3.1986 N.ar    1  UNL1       -0.2473
     24 N           5.3350   40.4674    8.0726 N.pl3   1  UNL1       -0.2833
     25 H           5.0517   39.5483    7.8619 H       1  UNL1        0.1550
     26 C           3.3413   40.3336   12.5460 C.3     1  UNL1        0.0521
     27 C           3.6702   41.0898   11.3098 C.ar    1  UNL1        0.0608
     28 C           3.3071   42.4331   11.1960 C.ar    1  UNL1        0.0148
     29 C           3.6245   43.1268   10.0272 C.ar    1  UNL1        0.0041
     30 C           4.2968   42.4745    8.9921 C.ar    1  UNL1        0.0344
     31 C           4.6453   41.1293    9.1396 C.ar    1  UNL1        0.1328
     32 N           4.3248   40.4723   10.2898 N.ar    1  UNL1       -0.2349
@<TRIPOS>BOND
     1    26    27    1
     2    27    32   ar
     3    28    29   ar
     4    30    31   ar
     5    31    24    1
     6     1     7   ar
     7     2     3   ar
     8     4     6   ar
     9     5     4    1
    10     8     3    1
    11     8     9    1
    12     9    10    1
    13    10    11    1
    14    11    14    1
    15    12    14    1
    16    12     8    1
    17    13    16    1
    18    17    18    1
    19    18    19   ar
    20    20    23    1
    21    24     1    1
    22    14    13   am
    23    23    22   ar
    24    23    21   ar
    25    27    28   ar
    26    29    30   ar
    27    31    32   ar
    28     1     2   ar
    29     3     6   ar
    30     4     7   ar
    31    13    15    2
    32    16    17    2
    33    19    22   ar
    34    21    18   ar
    35    24    25    1
@<TRIPOS>MOLECULE
MolPort-047-071-752 PubChem-132766475
 32 35 0 0 0
SMALL
GASTEIGER

@<TRIPOS>ATOM
      1 C          16.6481   41.7483    8.5351 C.ar    1  UNL1        0.1357
      2 C          15.3367   41.2821    8.4469 C.ar    1  UNL1        0.0492
      3 C          14.4540   41.9271    7.5808 C.ar    1  UNL1        0.0644
      4 C          16.1635   43.4308    6.9411 C.ar    1  UNL1        0.1406
      5 C          16.6116   44.5912    6.1286 C.3     1  UNL1        0.0737
      6 N          14.8829   42.9882    6.8446 N.ar    1  UNL1       -0.2348
      7 N          17.0347   42.8129    7.7804 N.ar    1  UNL1       -0.2159
      8 C          13.0458   41.4446    7.4720 C.3     1  UNL1        0.0603
      9 C          12.4464   41.8166    6.1119 C.3     1  UNL1        0.0094
     10 C          10.9482   41.4942    5.9947 C.3     1  UNL1        0.0220
     11 C          10.3633   40.8861    7.2693 C.3     1  UNL1        0.0937
     12 C          12.1926   41.9987    8.6152 C.3     1  UNL1        0.0996
     13 C           9.8061   42.2561    9.3280 C.2     1  UNL1        0.2492
     14 N          10.7739   41.6724    8.4338 N.am    1  UNL1       -0.2757
     15 O          10.1266   43.2653   10.0109 O.2     1  UNL1       -0.2699
     16 C           8.4418   41.7232    9.5019 C.2     1  UNL1        0.0580
     17 C           7.4825   42.3466   10.1785 C.2     1  UNL1        0.0078
     18 C           6.1415   41.7739   10.3239 C.ar    1  UNL1        0.0398
     19 C           5.6667   40.9972   11.3682 C.ar    1  UNL1        0.1216
     20 C           2.7621   41.1272    9.3158 C.3     1  UNL1        0.1538
     21 C           5.1095   41.9198    9.4222 C.ar    1  UNL1        0.0967
     22 N           4.3844   40.6893   11.0937 N.ar    1  UNL1       -0.1676
     23 N           4.0685   41.2440    9.9356 N.ar    1  UNL1       -0.2473
     24 N          17.5629   41.0931    9.4218 N.pl3   1  UNL1       -0.2833
     25 H          18.4219   41.5443    9.5881 H       1  UNL1        0.1550
     26 C          14.5699   38.0320   11.8042 C.3     1  UNL1        0.0521
     27 C          15.9134   38.3401   11.2490 C.ar    1  UNL1        0.0608
     28 C          16.9516   37.4159   11.3806 C.ar    1  UNL1        0.0148
     29 C          18.2066   37.7231   10.8528 C.ar    1  UNL1        0.0041
     30 C          18.4085   38.9423   10.2034 C.ar    1  UNL1        0.0344
     31 C          17.3471   39.8441   10.0895 C.ar    1  UNL1        0.1328
     32 N          16.1305   39.5227   10.6129 N.ar    1  UNL1       -0.2349
@<TRIPOS>BOND
     1    26    27    1
     2    27    32   ar
     3    28    29   ar
     4    30    31   ar
     5    31    24    1
     6     1     7   ar
     7     2     3   ar
     8     4     6   ar
     9     5     4    1
    10     8     3    1
    11     8     9    1
    12     9    10    1
    13    10    11    1
    14    11    14    1
    15    12    14    1
    16    12     8    1
    17    13    16    1
    18    17    18    1
    19    18    19   ar
    20    20    23    1
    21    24     1    1
    22    14    13   am
    23    23    22   ar
    24    23    21   ar
    25    27    28   ar
    26    29    30   ar
    27    31    32   ar
    28     1     2   ar
    29     3     6   ar
    30     4     7   ar
    31    13    15    2
    32    16    17    2
    33    19    22   ar
    34    21    18   ar
    35    24    25    1
@<TRIPOS>MOLECULE
MolPort-047-071-752 PubChem-132766475
 32 35 0 0 0
SMALL
GASTEIGER

@<TRIPOS>ATOM
      1 C           2.8371   42.3321   11.8066 C.ar    1  UNL1        0.1357
      2 C           4.2202   42.1539   11.7966 C.ar    1  UNL1        0.0492
      3 C           4.8056   41.5223   10.6994 C.ar    1  UNL1        0.0644
      4 C           2.6797   41.2766    9.6929 C.ar    1  UNL1        0.1406
      5 C           1.8462   40.8034    8.5576 C.3     1  UNL1        0.0737
      6 N           4.0257   41.0958    9.6689 N.ar    1  UNL1       -0.2348
      7 N           2.0951   41.8899   10.7547 N.ar    1  UNL1       -0.2159
      8 C           6.2842   41.3209   10.6689 C.3     1  UNL1        0.0603
      9 C           6.8559   41.2691   12.0894 C.3     1  UNL1        0.0094
     10 C           8.3919   41.2273   12.1296 C.3     1  UNL1        0.0220
     11 C           9.0302   41.2659   10.7412 C.3     1  UNL1        0.0937
     12 C           6.9642   42.4172    9.8457 C.3     1  UNL1        0.0996
     13 C           9.2226   43.3852    9.3638 C.2     1  UNL1        0.2492
     14 N           8.4256   42.3324    9.9412 N.am    1  UNL1       -0.2757
     15 O           8.6831   44.4920    9.0966 O.2     1  UNL1       -0.2699
     16 C          10.6562   43.2347    9.0509 C.2     1  UNL1        0.0580
     17 C          11.1707   42.1870    8.4152 C.2     1  UNL1        0.0078
     18 C          12.6043   42.0840    8.1288 C.ar    1  UNL1        0.0398
     19 C          13.4738   41.0847    8.5343 C.ar    1  UNL1        0.1216
     20 C          15.7141   43.1569    6.7034 C.3     1  UNL1        0.1538
     21 C          13.3372   42.9874    7.3902 C.ar    1  UNL1        0.0967
     22 N          14.6933   41.3871    8.0487 N.ar    1  UNL1       -0.1676
     23 N          14.5959   42.5190    7.3720 N.ar    1  UNL1       -0.2473
     24 N           2.2256   42.9794   12.9288 N.pl3   1  UNL1       -0.2833
     25 H           2.7859   43.6066   13.4406 H       1  UNL1        0.1550
     26 C          -2.3106   44.7415   13.4968 C.3     1  UNL1        0.0521
     27 C          -1.3337   43.6343   13.6645 C.ar    1  UNL1        0.0608
     28 C          -1.7337   42.4341   14.2550 C.ar    1  UNL1        0.0148
     29 C          -0.8020   41.4057   14.4041 C.ar    1  UNL1        0.0041
     30 C           0.5105   41.5871   13.9642 C.ar    1  UNL1        0.0344
     31 C           0.8768   42.8014   13.3775 C.ar    1  UNL1        0.1328
     32 N          -0.0501   43.7914   13.2425 N.ar    1  UNL1       -0.2349
@<TRIPOS>BOND
     1    26    27    1
     2    27    32   ar
     3    28    29   ar
     4    30    31   ar
     5    31    24    1
     6     1     7   ar
     7     2     3   ar
     8     4     6   ar
     9     5     4    1
    10     8     3    1
    11     8     9    1
    12     9    10    1
    13    10    11    1
    14    11    14    1
    15    12    14    1
    16    12     8    1
    17    13    16    1
    18    17    18    1
    19    18    19   ar
    20    20    23    1
    21    24     1    1
    22    14    13   am
    23    23    22   ar
    24    23    21   ar
    25    27    28   ar
    26    29    30   ar
    27    31    32   ar
    28     1     2   ar
    29     3     6   ar
    30     4     7   ar
    31    13    15    2
    32    16    17    2
    33    19    22   ar
    34    21    18   ar
    35    24    25    1
@<TRIPOS>MOLECULE
MolPort-047-071-752 PubChem-132766475
 32 35 0 0 0
SMALL
GASTEIGER

@<TRIPOS>ATOM
      1 C           3.1875   41.9645   11.5817 C.ar    1  UNL1        0.1357
      2 C           4.4852   41.4944   11.7815 C.ar    1  UNL1        0.0492
      3 C           5.4795   41.8700   10.8784 C.ar    1  UNL1        0.0644
      4 C           3.9011   43.1299    9.6479 C.ar    1  UNL1        0.1406
      5 C           3.5839   44.0131    8.4961 C.3     1  UNL1        0.0737
      6 N           5.1698   42.6799    9.8294 N.ar    1  UNL1       -0.2348
      7 N           2.9220   42.7726   10.5191 N.ar    1  UNL1       -0.2159
      8 C           6.8748   41.3774   11.0735 C.3     1  UNL1        0.0603
      9 C           7.4700   41.9285   12.3732 C.3     1  UNL1        0.0094
     10 C           8.9591   41.5935   12.5547 C.3     1  UNL1        0.0220
     11 C           9.5414   40.7950   11.3886 C.3     1  UNL1        0.0937
     12 C           7.7516   41.7417    9.8732 C.3     1  UNL1        0.0996
     13 C          10.1500   41.8407    9.1611 C.2     1  UNL1        0.2492
     14 N           9.1604   41.4138   10.1178 N.am    1  UNL1       -0.2757
     15 O           9.8600   42.7476    8.3358 O.2     1  UNL1       -0.2699
     16 C          11.5030   41.2583    9.0832 C.2     1  UNL1        0.0580
     17 C          12.1594   40.7647   10.1282 C.2     1  UNL1        0.0078
     18 C          13.5044   40.1974    9.9987 C.ar    1  UNL1        0.0398
     19 C          14.3665   40.3134    8.9205 C.ar    1  UNL1        0.1216
     20 C          16.3594   38.3307   11.1029 C.3     1  UNL1        0.1538
     21 C          14.1454   39.4380   10.9534 C.ar    1  UNL1        0.0967
     22 N          15.4918   39.6395    9.2271 N.ar    1  UNL1       -0.1676
     23 N          15.3451   39.1256   10.4367 N.ar    1  UNL1       -0.2473
     24 N           2.1587   41.5847   12.5033 N.pl3   1  UNL1       -0.2833
     25 H           2.0840   40.6265   12.7170 H       1  UNL1        0.1550
     26 C           1.2645   45.7087   14.9927 C.3     1  UNL1        0.0521
     27 C           0.7680   44.4626   14.3531 C.ar    1  UNL1        0.0608
     28 C          -0.5946   44.1594   14.3800 C.ar    1  UNL1        0.0148
     29 C          -1.0420   42.9845   13.7741 C.ar    1  UNL1        0.0041
     30 C          -0.1288   42.1313   13.1520 C.ar    1  UNL1        0.0344
     31 C           1.2281   42.4657   13.1438 C.ar    1  UNL1        0.1328
     32 N           1.6419   43.6182   13.7420 N.ar    1  UNL1       -0.2349
@<TRIPOS>BOND
     1    26    27    1
     2    27    32   ar
     3    28    29   ar
     4    30    31   ar
     5    31    24    1
     6     1     7   ar
     7     2     3   ar
     8     4     6   ar
     9     5     4    1
    10     8     3    1
    11     8     9    1
    12     9    10    1
    13    10    11    1
    14    11    14    1
    15    12    14    1
    16    12     8    1
    17    13    16    1
    18    17    18    1
    19    18    19   ar
    20    20    23    1
    21    24     1    1
    22    14    13   am
    23    23    22   ar
    24    23    21   ar
    25    27    28   ar
    26    29    30   ar
    27    31    32   ar
    28     1     2   ar
    29     3     6   ar
    30     4     7   ar
    31    13    15    2
    32    16    17    2
    33    19    22   ar
    34    21    18   ar
    35    24    25    1
@<TRIPOS>MOLECULE
MolPort-047-071-752 PubChem-132766475
 32 35 0 0 0
SMALL
GASTEIGER

@<TRIPOS>ATOM
      1 C           6.9435   42.2989    8.1304 C.ar    1  UNL1        0.1357
      2 C           6.3217   41.6891    9.2196 C.ar    1  UNL1        0.0492
      3 C           5.1597   42.2634    9.7347 C.ar    1  UNL1        0.0644
      4 C           5.2750   43.9789    8.1109 C.ar    1  UNL1        0.1406
      5 C           4.7110   45.2157    7.5110 C.3     1  UNL1        0.0737
      6 N           4.6582   43.3964    9.1717 N.ar    1  UNL1       -0.2348
      7 N           6.4075   43.4312    7.5983 N.ar    1  UNL1       -0.2159
      8 C           4.4790   41.6272   10.9006 C.3     1  UNL1        0.0603
      9 C           4.0009   40.2150   10.5478 C.3     1  UNL1        0.0094
     10 C           3.1486   39.5645   11.6491 C.3     1  UNL1        0.0220
     11 C           2.9393   40.4720   12.8612 C.3     1  UNL1        0.0937
     12 C           3.3146   42.4927   11.3875 C.3     1  UNL1        0.0996
     13 C           1.3029   42.4078   12.8760 C.2     1  UNL1        0.2492
     14 N           2.5324   41.8080   12.4226 N.am    1  UNL1       -0.2757
     15 O           0.7539   43.2973   12.1724 O.2     1  UNL1       -0.2699
     16 C           0.6449   42.0423   14.1445 C.2     1  UNL1        0.0580
     17 C          -0.5221   42.5373   14.5443 C.2     1  UNL1        0.0078
     18 C          -1.1344   42.1427   15.8159 C.ar    1  UNL1        0.0398
     19 C          -1.8150   40.9685   16.0937 C.ar    1  UNL1        0.1216
     20 C          -2.0329   42.5805   19.2591 C.3     1  UNL1        0.1538
     21 C          -1.1311   42.8951   16.9705 C.ar    1  UNL1        0.0967
     22 N          -2.2065   41.0221   17.3814 N.ar    1  UNL1       -0.1676
     23 N          -1.7932   42.1715   17.8881 N.ar    1  UNL1       -0.2473
     24 N           8.1376   41.7173    7.5937 N.pl3   1  UNL1       -0.2833
     25 H           8.0843   41.3547    6.6800 H       1  UNL1        0.1550
     26 C          10.7080   40.9867   11.7001 C.3     1  UNL1        0.0521
     27 C          10.6727   41.2610   10.2401 C.ar    1  UNL1        0.0608
     28 C          11.8648   41.4145    9.5298 C.ar    1  UNL1        0.0148
     29 C          11.8115   41.6718    8.1591 C.ar    1  UNL1        0.0041
     30 C          10.5755   41.7720    7.5178 C.ar    1  UNL1        0.0344
     31 C           9.4018   41.6129    8.2594 C.ar    1  UNL1        0.1328
     32 N           9.4785   41.3624    9.5969 N.ar    1  UNL1       -0.2349
@<TRIPOS>BOND
     1    26    27    1
     2    27    32   ar
     3    28    29   ar
     4    30    31   ar
     5    31    24    1
     6     1     7   ar
     7     2     3   ar
     8     4     6   ar
     9     5     4    1
    10     8     3    1
    11     8     9    1
    12     9    10    1
    13    10    11    1
    14    11    14    1
    15    12    14    1
    16    12     8    1
    17    13    16    1
    18    17    18    1
    19    18    19   ar
    20    20    23    1
    21    24     1    1
    22    14    13   am
    23    23    22   ar
    24    23    21   ar
    25    27    28   ar
    26    29    30   ar
    27    31    32   ar
    28     1     2   ar
    29     3     6   ar
    30     4     7   ar
    31    13    15    2
    32    16    17    2
    33    19    22   ar
    34    21    18   ar
    35    24    25    1
@<TRIPOS>MOLECULE
MolPort-047-071-752 PubChem-132766475
 32 35 0 0 0
SMALL
GASTEIGER

@<TRIPOS>ATOM
      1 C           2.8912   41.9733   11.8361 C.ar    1  UNL1        0.1357
      2 C           4.2043   42.3722   11.5880 C.ar    1  UNL1        0.0492
      3 C           4.7119   42.2371   10.2959 C.ar    1  UNL1        0.0644
      4 C           2.6484   41.3404    9.5674 C.ar    1  UNL1        0.1406
      5 C           1.8068   40.7828    8.4773 C.3     1  UNL1        0.0737
      6 N           3.9257   41.7244    9.3104 N.ar    1  UNL1       -0.2348
      7 N           2.1401   41.4657   10.8209 N.ar    1  UNL1       -0.2159
      8 C           6.1151   42.6572   10.0090 C.3     1  UNL1        0.0603
      9 C           6.1449   43.7810    8.9682 C.3     1  UNL1        0.0094
     10 C           7.5637   44.1492    8.5057 C.3     1  UNL1        0.0220
     11 C           8.6500   43.3020    9.1680 C.3     1  UNL1        0.0937
     12 C           6.9554   41.4638    9.5491 C.3     1  UNL1        0.0996
     13 C           9.1535   40.9138    8.4836 C.2     1  UNL1        0.2492
     14 N           8.2885   41.8849    9.1046 N.am    1  UNL1       -0.2757
     15 O           8.6595   39.8460    8.0327 O.2     1  UNL1       -0.2699
     16 C          10.6115   41.0958    8.3539 C.2     1  UNL1        0.0580
     17 C          11.1865   41.8223    7.4010 C.2     1  UNL1        0.0078
     18 C          12.6419   41.9713    7.3143 C.ar    1  UNL1        0.0398
     19 C          13.3665   42.5842    6.3052 C.ar    1  UNL1        0.1216
     20 C          16.0183   41.5727    8.4523 C.3     1  UNL1        0.1538
     21 C          13.5476   41.5147    8.2472 C.ar    1  UNL1        0.0967
     22 N          14.6705   42.4938    6.6304 N.ar    1  UNL1       -0.1676
     23 N          14.7616   41.8565    7.7855 N.ar    1  UNL1       -0.2473
     24 N           2.3601   42.1076   13.1598 N.pl3   1  UNL1       -0.2833
     25 H           2.9894   41.9835   13.9067 H       1  UNL1        0.1550
     26 C          -2.1675   40.5685   14.2258 C.3     1  UNL1        0.0521
     27 C          -1.2059   41.6828   14.0210 C.ar    1  UNL1        0.0608
     28 C          -1.6303   43.0055   14.1610 C.ar    1  UNL1        0.0148
     29 C          -0.7128   44.0386   13.9646 C.ar    1  UNL1        0.0041
     30 C           0.6100   43.7402   13.6327 C.ar    1  UNL1        0.0344
     31 C           1.0008   42.4051   13.5006 C.ar    1  UNL1        0.1328
     32 N           0.0873   41.4129   13.6970 N.ar    1  UNL1       -0.2349
@<TRIPOS>BOND
     1    26    27    1
     2    27    32   ar
     3    28    29   ar
     4    30    31   ar
     5    31    24    1
     6     1     7   ar
     7     2     3   ar
     8     4     6   ar
     9     5     4    1
    10     8     3    1
    11     8     9    1
    12     9    10    1
    13    10    11    1
    14    11    14    1
    15    12    14    1
    16    12     8    1
    17    13    16    1
    18    17    18    1
    19    18    19   ar
    20    20    23    1
    21    24     1    1
    22    14    13   am
    23    23    22   ar
    24    23    21   ar
    25    27    28   ar
    26    29    30   ar
    27    31    32   ar
    28     1     2   ar
    29     3     6   ar
    30     4     7   ar
    31    13    15    2
    32    16    17    2
    33    19    22   ar
    34    21    18   ar
    35    24    25    1
@<TRIPOS>MOLECULE
MolPort-047-071-752 PubChem-132766475
 32 35 0 0 0
SMALL
GASTEIGER

@<TRIPOS>ATOM
      1 C          16.6926   41.5624    8.7828 C.ar    1  UNL1        0.1357
      2 C          15.3389   41.2403    8.6897 C.ar    1  UNL1        0.0492
      3 C          14.5592   41.8951    7.7366 C.ar    1  UNL1        0.0644
      4 C          16.4465   43.1298    7.0251 C.ar    1  UNL1        0.1406
      5 C          17.0463   44.1501    6.1269 C.3     1  UNL1        0.0737
      6 N          15.1264   42.8267    6.9227 N.ar    1  UNL1       -0.2348
      7 N          17.2187   42.5004    7.9486 N.ar    1  UNL1       -0.2159
      8 C          13.1080   41.5657    7.6209 C.3     1  UNL1        0.0603
      9 C          12.5715   41.9484    6.2378 C.3     1  UNL1        0.0094
     10 C          11.0486   41.7875    6.1063 C.3     1  UNL1        0.0220
     11 C          10.3834   41.2966    7.3919 C.3     1  UNL1        0.0937
     12 C          12.3057   42.2535    8.7279 C.3     1  UNL1        0.0996
     13 C           9.9526   42.7975    9.3888 C.2     1  UNL1        0.2492
     14 N          10.8623   42.0775    8.5337 N.am    1  UNL1       -0.2757
     15 O          10.3729   43.7912   10.0396 O.2     1  UNL1       -0.2699
     16 C           8.5358   42.4241    9.5582 C.2     1  UNL1        0.0580
     17 C           7.5217   43.1022    9.0305 C.2     1  UNL1        0.0078
     18 C           6.1294   42.6904    9.2295 C.ar    1  UNL1        0.0398
     19 C           4.9870   43.3690    8.8376 C.ar    1  UNL1        0.1216
     20 C           3.5212   40.5103   10.3691 C.3     1  UNL1        0.1538
     21 C           5.7216   41.5316    9.8538 C.ar    1  UNL1        0.0967
     22 N           3.9266   42.6315    9.2198 N.ar    1  UNL1       -0.1676
     23 N           4.3789   41.5442    9.8215 N.ar    1  UNL1       -0.2473
     24 N          17.5025   40.8958    9.7584 N.pl3   1  UNL1       -0.2833
     25 H          18.0247   41.4659   10.3681 H       1  UNL1        0.1550
     26 C          15.6171   36.3980    9.2909 C.3     1  UNL1        0.0521
     27 C          16.7316   37.2844    9.7155 C.ar    1  UNL1        0.0608
     28 C          17.8853   36.7346   10.2777 C.ar    1  UNL1        0.0148
     29 C          18.9214   37.5831   10.6704 C.ar    1  UNL1        0.0041
     30 C          18.7939   38.9626   10.4980 C.ar    1  UNL1        0.0344
     31 C          17.6254   39.4791    9.9318 C.ar    1  UNL1        0.1328
     32 N          16.6267   38.6312    9.5560 N.ar    1  UNL1       -0.2349
@<TRIPOS>BOND
     1    26    27    1
     2    27    32   ar
     3    28    29   ar
     4    30    31   ar
     5    31    24    1
     6     1     7   ar
     7     2     3   ar
     8     4     6   ar
     9     5     4    1
    10     8     3    1
    11     8     9    1
    12     9    10    1
    13    10    11    1
    14    11    14    1
    15    12    14    1
    16    12     8    1
    17    13    16    1
    18    17    18    1
    19    18    19   ar
    20    20    23    1
    21    24     1    1
    22    14    13   am
    23    23    22   ar
    24    23    21   ar
    25    27    28   ar
    26    29    30   ar
    27    31    32   ar
    28     1     2   ar
    29     3     6   ar
    30     4     7   ar
    31    13    15    2
    32    16    17    2
    33    19    22   ar
    34    21    18   ar
    35    24    25    1
@<TRIPOS>MOLECULE
MolPort-047-071-752 PubChem-132766475
 32 35 0 0 0
SMALL
GASTEIGER

@<TRIPOS>ATOM
      1 C          15.4436   40.1801    9.2826 C.ar    1  UNL1        0.1357
      2 C          14.2331   40.8538    9.4433 C.ar    1  UNL1        0.0492
      3 C          13.0973   40.1178    9.7805 C.ar    1  UNL1        0.0644
      4 C          14.3750   38.1278    9.7853 C.ar    1  UNL1        0.1406
      5 C          14.4534   36.6556    9.9695 C.3     1  UNL1        0.0737
      6 N          13.1888   38.7700    9.9451 N.ar    1  UNL1       -0.2348
      7 N          15.4898   38.8311    9.4569 N.ar    1  UNL1       -0.2159
      8 C          11.7916   40.8191    9.9565 C.3     1  UNL1        0.0603
      9 C          11.1965   40.5233   11.3369 C.3     1  UNL1        0.0094
     10 C           9.7764   41.0812   11.5234 C.3     1  UNL1        0.0220
     11 C           9.2458   41.7995   10.2829 C.3     1  UNL1        0.0937
     12 C          10.8135   40.4317    8.8452 C.3     1  UNL1        0.0996
     13 C           8.3895   40.5765    8.2344 C.2     1  UNL1        0.2492
     14 N           9.4752   40.9793    9.0923 N.am    1  UNL1       -0.2757
     15 O           8.5137   39.5418    7.5261 O.2     1  UNL1       -0.2699
     16 C           7.1236   41.3259    8.1266 C.2     1  UNL1        0.0580
     17 C           6.4679   41.8280    9.1681 C.2     1  UNL1        0.0078
     18 C           5.2113   42.5649    9.0083 C.ar    1  UNL1        0.0398
     19 C           3.9650   42.2212    9.5061 C.ar    1  UNL1        0.1216
     20 C           3.1555   45.2598    7.8397 C.3     1  UNL1        0.1538
     21 C           5.0629   43.7495    8.3200 C.ar    1  UNL1        0.0967
     22 N           3.0977   43.1779    9.1230 N.ar    1  UNL1       -0.1676
     23 N           3.7644   44.0778    8.4198 N.ar    1  UNL1       -0.2473
     24 N          16.6162   40.9265    8.9362 N.pl3   1  UNL1       -0.2833
     25 H          17.4771   40.5819    9.2670 H       1  UNL1        0.1550
     26 C          14.4638   43.9884    5.7745 C.3     1  UNL1        0.0521
     27 C          15.6321   43.6290    6.6196 C.ar    1  UNL1        0.0608
     28 C          16.7552   44.4580    6.6467 C.ar    1  UNL1        0.0148
     29 C          17.8428   44.1038    7.4464 C.ar    1  UNL1        0.0041
     30 C          17.7961   42.9330    8.2053 C.ar    1  UNL1        0.0344
     31 C          16.6560   42.1264    8.1545 C.ar    1  UNL1        0.1328
     32 N          15.6062   42.4923    7.3662 N.ar    1  UNL1       -0.2349
@<TRIPOS>BOND
     1    26    27    1
     2    27    32   ar
     3    28    29   ar
     4    30    31   ar
     5    31    24    1
     6     1     7   ar
     7     2     3   ar
     8     4     6   ar
     9     5     4    1
    10     8     3    1
    11     8     9    1
    12     9    10    1
    13    10    11    1
    14    11    14    1
    15    12    14    1
    16    12     8    1
    17    13    16    1
    18    17    18    1
    19    18    19   ar
    20    20    23    1
    21    24     1    1
    22    14    13   am
    23    23    22   ar
    24    23    21   ar
    25    27    28   ar
    26    29    30   ar
    27    31    32   ar
    28     1     2   ar
    29     3     6   ar
    30     4     7   ar
    31    13    15    2
    32    16    17    2
    33    19    22   ar
    34    21    18   ar
    35    24    25    1
