@<TRIPOS>MOLECULE
Molport-051-836-447 MCULE-6687774003 MCULE-7570445166
 31 34 0 0 0
SMALL
GASTEIGER

@<TRIPOS>ATOM
      1 C           7.4419   41.8415   10.1682 C.2     1  UNL1        0.2555
      2 O           7.1792   42.9623    9.6536 O.2     1  UNL1       -0.2696
      3 N           6.3793   40.9738   10.5914 N.am    1  UNL1       -0.2801
      4 H           6.6458   40.1025   10.9640 H       1  UNL1        0.1552
      5 C           8.7600   41.5495   12.8582 C.3     1  UNL1        0.0315
      6 C           9.4661   41.2509   11.5783 C.ar    1  UNL1       -0.0085
      7 C           8.8592   41.4120   10.3127 C.ar    1  UNL1        0.1256
      8 C           9.6527   41.1492    9.1720 C.ar    1  UNL1        0.3496
      9 C          11.5072   40.6006   10.4813 C.ar    1  UNL1        0.1268
     10 C          10.7949   40.8447   11.6578 C.ar    1  UNL1        0.0292
     11 O           9.1715   41.2623    8.0129 O.2     1  UNL1       -0.2443
     12 O          10.9181   40.7615    9.3024 O.2     1  UNL1       -0.4254
     13 C          12.9357   40.1599   10.5260 C.3     1  UNL1        0.0733
     14 C          13.7063   40.6768    9.3061 C.3     1  UNL1        0.0103
     15 C          15.0368   39.9425    9.1550 C.3     1  UNL1        0.0176
     16 C          14.8660   38.4134    9.1787 C.3     1  UNL1        0.0686
     17 C          13.0442   38.6361   10.6939 C.3     1  UNL1        0.0761
     18 N          13.4861   38.0023    9.4530 N.3     1  UNL1       -0.2971
     19 H          13.4437   36.9880    9.5520 H       1  UNL1        0.1233
     20 C           4.9714   41.2395   10.5297 C.ar    1  UNL1        0.0536
     21 C           4.3048   41.6056   11.7041 C.ar    1  UNL1        0.0516
     22 C           2.9324   41.8753   11.6934 C.ar    1  UNL1        0.1396
     23 C           2.2206   41.7793   10.4871 C.ar    1  UNL1        0.0370
     24 C           2.8780   41.4152    9.3099 C.ar    1  UNL1        0.0044
     25 C           4.2486   41.1462    9.3311 C.ar    1  UNL1        0.0149
     26 O           2.3052   42.2400   12.8896 O.3     1  UNL1       -0.4791
     27 C           0.9263   42.5844   12.9738 C.3     1  UNL1        0.1659
     28 C           0.7630   43.8168   13.8459 C.3     1  UNL1        0.0435
     29 C           0.0420   43.3686   15.0991 C.3     1  UNL1        0.0038
     30 C          -0.7075   42.1197   14.7041 C.3     1  UNL1        0.0038
     31 C           0.1503   41.4634   13.6469 C.3     1  UNL1        0.0435
@<TRIPOS>BOND
     1     5     6    1
     2     7     1    1
     3     7     8   ar
     4     1     3   am
     5    21    22   ar
     6    22    26    1
     7    27    26    1
     8    27    28    1
     9    28    29    1
    10    29    30    1
    11    30    31    1
    12    31    27    1
    13    23    24   ar
    14    25    20   ar
    15     8    12   ar
    16     9    12   ar
    17    10     6   ar
    18    13     9    1
    19    13    14    1
    20    14    15    1
    21    15    16    1
    22    16    18    1
    23    17    18    1
    24    17    13    1
    25     3    20    1
    26     6     7   ar
    27     1     2    2
    28    20    21   ar
    29    22    23   ar
    30    24    25   ar
    31     8    11    2
    32     9    10   ar
    33     3     4    1
    34    18    19    1
@<TRIPOS>MOLECULE
Molport-051-836-447 MCULE-6687774003 MCULE-7570445166
 31 34 0 0 0
SMALL
GASTEIGER

@<TRIPOS>ATOM
      1 C          10.4145   39.4496    7.7686 C.2     1  UNL1        0.2555
      2 O           9.4087   38.7249    7.9989 O.2     1  UNL1       -0.2696
      3 N          10.2440   40.8284    7.4067 N.am    1  UNL1       -0.2801
      4 H          11.0667   41.3495    7.2620 H       1  UNL1        0.1552
      5 C          12.2813   40.2414    9.9927 C.3     1  UNL1        0.0315
      6 C          12.6441   39.2296    8.9581 C.ar    1  UNL1       -0.0085
      7 C          11.7809   38.8747    7.8975 C.ar    1  UNL1        0.1256
      8 C          12.2637   37.9434    6.9490 C.ar    1  UNL1        0.3496
      9 C          14.3097   37.7440    8.0574 C.ar    1  UNL1        0.1268
     10 C          13.9120   38.6606    9.0335 C.ar    1  UNL1        0.0292
     11 O          11.5421   37.5744    5.9840 O.2     1  UNL1       -0.2443
     12 O          13.4836   37.4273    7.0674 O.2     1  UNL1       -0.4254
     13 C          15.6630   37.1092    8.1060 C.3     1  UNL1        0.0733
     14 C          15.8602   36.1498    6.9271 C.3     1  UNL1        0.0103
     15 C          17.0632   35.2397    7.1648 C.3     1  UNL1        0.0176
     16 C          17.0030   34.5375    8.5328 C.3     1  UNL1        0.0686
     17 C          15.9156   36.4380    9.4653 C.3     1  UNL1        0.0761
     18 N          15.8686   34.9817    9.3475 N.3     1  UNL1       -0.2971
     19 H          15.9265   34.5606   10.2747 H       1  UNL1        0.1233
     20 C           9.0046   41.5285    7.2331 C.ar    1  UNL1        0.0536
     21 C           8.8336   42.3187    6.0912 C.ar    1  UNL1        0.0516
     22 C           7.6421   43.0195    5.8779 C.ar    1  UNL1        0.1396
     23 C           6.6075   42.9230    6.8220 C.ar    1  UNL1        0.0370
     24 C           6.7692   42.1361    7.9644 C.ar    1  UNL1        0.0044
     25 C           7.9636   41.4412    8.1693 C.ar    1  UNL1        0.0149
     26 O           7.5118   43.7966    4.7219 O.3     1  UNL1       -0.4791
     27 C           8.2690   44.9793    4.4877 C.3     1  UNL1        0.1659
     28 C           7.6289   45.7784    3.3662 C.3     1  UNL1        0.0435
     29 C           8.5895   45.7312    2.1974 C.3     1  UNL1        0.0038
     30 C           9.9453   45.4654    2.8046 C.3     1  UNL1        0.0038
     31 C           9.6709   44.6162    4.0243 C.3     1  UNL1        0.0435
@<TRIPOS>BOND
     1     5     6    1
     2     7     1    1
     3     7     8   ar
     4     1     3   am
     5    21    22   ar
     6    22    26    1
     7    27    26    1
     8    27    28    1
     9    28    29    1
    10    29    30    1
    11    30    31    1
    12    31    27    1
    13    23    24   ar
    14    25    20   ar
    15     8    12   ar
    16     9    12   ar
    17    10     6   ar
    18    13     9    1
    19    13    14    1
    20    14    15    1
    21    15    16    1
    22    16    18    1
    23    17    18    1
    24    17    13    1
    25     3    20    1
    26     6     7   ar
    27     1     2    2
    28    20    21   ar
    29    22    23   ar
    30    24    25   ar
    31     8    11    2
    32     9    10   ar
    33     3     4    1
    34    18    19    1
@<TRIPOS>MOLECULE
Molport-051-836-447 MCULE-6687774003 MCULE-7570445166
 31 34 0 0 0
SMALL
GASTEIGER

@<TRIPOS>ATOM
      1 C          10.6953   36.9449    3.8585 C.2     1  UNL1        0.2555
      2 O          11.6746   37.2804    3.1385 O.2     1  UNL1       -0.2696
      3 N          10.3895   35.5569    4.0610 N.am    1  UNL1       -0.2801
      4 H           9.6278   35.3566    4.6518 H       1  UNL1        0.1552
      5 C          10.8151   39.8332    3.0206 C.3     1  UNL1        0.0315
      6 C           9.9122   39.3452    4.1033 C.ar    1  UNL1       -0.0085
      7 C           9.8723   37.9949    4.5173 C.ar    1  UNL1        0.1256
      8 C           9.0139   37.6688    5.5929 C.ar    1  UNL1        0.3496
      9 C           8.2952   39.8810    5.8036 C.ar    1  UNL1        0.1268
     10 C           9.1201   40.2878    4.7523 C.ar    1  UNL1        0.0292
     11 O           8.9213   36.4819    6.0058 O.2     1  UNL1       -0.2443
     12 O           8.2758   38.6075    6.1784 O.2     1  UNL1       -0.4254
     13 C           7.4275   40.8638    6.5233 C.3     1  UNL1        0.0733
     14 C           7.2849   42.1603    5.7182 C.3     1  UNL1        0.0103
     15 C           6.7209   43.2800    6.5903 C.3     1  UNL1        0.0176
     16 C           7.5047   43.4484    7.9038 C.3     1  UNL1        0.0686
     17 C           7.9299   41.1073    7.9552 C.3     1  UNL1        0.0761
     18 N           8.5429   42.4286    8.0780 N.3     1  UNL1       -0.2971
     19 H           8.9673   42.5253    9.0004 H       1  UNL1        0.1233
     20 C          11.0739   34.4306    3.4957 C.ar    1  UNL1        0.0536
     21 C          12.2918   34.0330    4.0581 C.ar    1  UNL1        0.0516
     22 C          12.9954   32.9401    3.5417 C.ar    1  UNL1        0.1396
     23 C          12.4678   32.2352    2.4481 C.ar    1  UNL1        0.0370
     24 C          11.2525   32.6247    1.8807 C.ar    1  UNL1        0.0044
     25 C          10.5579   33.7186    2.4027 C.ar    1  UNL1        0.0149
     26 O          14.2085   32.5748    4.1351 O.3     1  UNL1       -0.4791
     27 C          15.3892   33.3655    4.0470 C.3     1  UNL1        0.1659
     28 C          16.2079   32.9238    2.8467 C.3     1  UNL1        0.0435
     29 C          17.4714   32.2934    3.3921 C.3     1  UNL1        0.0038
     30 C          17.6561   32.8916    4.7653 C.3     1  UNL1        0.0038
     31 C          16.2563   33.1444    5.2763 C.3     1  UNL1        0.0435
@<TRIPOS>BOND
     1     5     6    1
     2     7     1    1
     3     7     8   ar
     4     1     3   am
     5    21    22   ar
     6    22    26    1
     7    27    26    1
     8    27    28    1
     9    28    29    1
    10    29    30    1
    11    30    31    1
    12    31    27    1
    13    23    24   ar
    14    25    20   ar
    15     8    12   ar
    16     9    12   ar
    17    10     6   ar
    18    13     9    1
    19    13    14    1
    20    14    15    1
    21    15    16    1
    22    16    18    1
    23    17    18    1
    24    17    13    1
    25     3    20    1
    26     6     7   ar
    27     1     2    2
    28    20    21   ar
    29    22    23   ar
    30    24    25   ar
    31     8    11    2
    32     9    10   ar
    33     3     4    1
    34    18    19    1
@<TRIPOS>MOLECULE
Molport-051-836-447 MCULE-6687774003 MCULE-7570445166
 31 34 0 0 0
SMALL
GASTEIGER

@<TRIPOS>ATOM
      1 C           4.3952   39.6937    5.4593 C.2     1  UNL1        0.2555
      2 O           3.1579   39.7847    5.6848 O.2     1  UNL1       -0.2696
      3 N           4.8670   39.0351    4.2740 N.am    1  UNL1       -0.2801
      4 H           5.8423   39.0161    4.1409 H       1  UNL1        0.1552
      5 C           3.6348   40.3773    8.2900 C.3     1  UNL1        0.0315
      6 C           5.0099   40.5891    7.7516 C.ar    1  UNL1       -0.0085
      7 C           5.3638   40.2941    6.4160 C.ar    1  UNL1        0.1256
      8 C           6.6858   40.5923    6.0117 C.ar    1  UNL1        0.3496
      9 C           7.2418   41.4072    8.1286 C.ar    1  UNL1        0.1268
     10 C           5.9551   41.1484    8.6066 C.ar    1  UNL1        0.0292
     11 O           7.0715   40.3446    4.8379 O.2     1  UNL1       -0.2443
     12 O           7.5518   41.1252    6.8688 O.2     1  UNL1       -0.4254
     13 C           8.2855   42.0047    9.0177 C.3     1  UNL1        0.0733
     14 C           9.5944   42.2275    8.2521 C.3     1  UNL1        0.0103
     15 C          10.7495   42.4846    9.2175 C.3     1  UNL1        0.0176
     16 C          10.8466   41.4073   10.3121 C.3     1  UNL1        0.0686
     17 C           8.4789   41.1670   10.2917 C.3     1  UNL1        0.0761
     18 N           9.7466   40.4404   10.2536 N.3     1  UNL1       -0.2971
     19 H           9.8034   39.8077   11.0517 H       1  UNL1        0.1233
     20 C           4.0709   38.4018    3.2632 C.ar    1  UNL1        0.0536
     21 C           3.1483   39.1764    2.5516 C.ar    1  UNL1        0.0516
     22 C           2.3503   38.6034    1.5560 C.ar    1  UNL1        0.1396
     23 C           2.4826   37.2355    1.2690 C.ar    1  UNL1        0.0370
     24 C           3.4014   36.4549    1.9739 C.ar    1  UNL1        0.0044
     25 C           4.1929   37.0360    2.9676 C.ar    1  UNL1        0.0149
     26 O           1.4419   39.4142    0.8671 O.3     1  UNL1       -0.4791
     27 C           0.2609   39.9422    1.4618 C.3     1  UNL1        0.1659
     28 C          -0.8965   39.8219    0.4861 C.3     1  UNL1        0.0435
     29 C          -1.2705   41.2317    0.0814 C.3     1  UNL1        0.0038
     30 C          -0.7914   42.1120    1.2096 C.3     1  UNL1        0.0038
     31 C           0.4414   41.4243    1.7495 C.3     1  UNL1        0.0435
@<TRIPOS>BOND
     1     5     6    1
     2     7     1    1
     3     7     8   ar
     4     1     3   am
     5    21    22   ar
     6    22    26    1
     7    27    26    1
     8    27    28    1
     9    28    29    1
    10    29    30    1
    11    30    31    1
    12    31    27    1
    13    23    24   ar
    14    25    20   ar
    15     8    12   ar
    16     9    12   ar
    17    10     6   ar
    18    13     9    1
    19    13    14    1
    20    14    15    1
    21    15    16    1
    22    16    18    1
    23    17    18    1
    24    17    13    1
    25     3    20    1
    26     6     7   ar
    27     1     2    2
    28    20    21   ar
    29    22    23   ar
    30    24    25   ar
    31     8    11    2
    32     9    10   ar
    33     3     4    1
    34    18    19    1
@<TRIPOS>MOLECULE
Molport-051-836-447 MCULE-6687774003 MCULE-7570445166
 31 34 0 0 0
SMALL
GASTEIGER

@<TRIPOS>ATOM
      1 C           5.6412   42.1214    9.3957 C.2     1  UNL1        0.2555
      2 O           6.2850   43.1860    9.1911 O.2     1  UNL1       -0.2696
      3 N           6.0728   40.8896    8.7975 N.am    1  UNL1       -0.2801
      4 H           5.5437   40.0878    9.0128 H       1  UNL1        0.1552
      5 C           5.5172   40.5495   11.9594 C.3     1  UNL1        0.0315
      6 C           4.4012   41.4245   11.4960 C.ar    1  UNL1       -0.0085
      7 C           4.4450   42.1431   10.2804 C.ar    1  UNL1        0.1256
      8 C           3.2998   42.8934    9.9260 C.ar    1  UNL1        0.3496
      9 C           2.1713   42.2506   11.8672 C.ar    1  UNL1        0.1268
     10 C           3.2581   41.4806   12.2880 C.ar    1  UNL1        0.0292
     11 O           3.2752   43.5665    8.8611 O.2     1  UNL1       -0.2443
     12 O           2.2327   42.9153   10.7195 O.2     1  UNL1       -0.4254
     13 C           0.9270   42.3381   12.6922 C.3     1  UNL1        0.0733
     14 C           0.5724   43.7983   12.9947 C.3     1  UNL1        0.0103
     15 C          -0.4590   43.8837   14.1177 C.3     1  UNL1        0.0176
     16 C          -0.0388   43.0774   15.3591 C.3     1  UNL1        0.0686
     17 C           1.0384   41.4797   13.9622 C.3     1  UNL1        0.0761
     18 N           1.1972   42.3181   15.1491 N.3     1  UNL1       -0.2971
     19 H           1.3808   41.7301   15.9621 H       1  UNL1        0.1233
     20 C           7.1916   40.7014    7.9204 C.ar    1  UNL1        0.0536
     21 C           8.4610   40.5205    8.4801 C.ar    1  UNL1        0.0516
     22 C           9.5820   40.3323    7.6651 C.ar    1  UNL1        0.1396
     23 C           9.4260   40.3226    6.2699 C.ar    1  UNL1        0.0370
     24 C           8.1624   40.5018    5.7025 C.ar    1  UNL1        0.0044
     25 C           7.0490   40.6905    6.5249 C.ar    1  UNL1        0.0149
     26 O          10.8328   40.1531    8.2657 O.3     1  UNL1       -0.4791
     27 C          11.0079   39.5206    9.5292 C.3     1  UNL1        0.1659
     28 C          11.6443   40.4973   10.5023 C.3     1  UNL1        0.0435
     29 C          13.0338   39.9735   10.7958 C.3     1  UNL1        0.0038
     30 C          12.9705   38.4923   10.5141 C.3     1  UNL1        0.0038
     31 C          11.9650   38.3468    9.3950 C.3     1  UNL1        0.0435
@<TRIPOS>BOND
     1     5     6    1
     2     7     1    1
     3     7     8   ar
     4     1     3   am
     5    21    22   ar
     6    22    26    1
     7    27    26    1
     8    27    28    1
     9    28    29    1
    10    29    30    1
    11    30    31    1
    12    31    27    1
    13    23    24   ar
    14    25    20   ar
    15     8    12   ar
    16     9    12   ar
    17    10     6   ar
    18    13     9    1
    19    13    14    1
    20    14    15    1
    21    15    16    1
    22    16    18    1
    23    17    18    1
    24    17    13    1
    25     3    20    1
    26     6     7   ar
    27     1     2    2
    28    20    21   ar
    29    22    23   ar
    30    24    25   ar
    31     8    11    2
    32     9    10   ar
    33     3     4    1
    34    18    19    1
@<TRIPOS>MOLECULE
Molport-051-836-447 MCULE-6687774003 MCULE-7570445166
 31 34 0 0 0
SMALL
GASTEIGER

@<TRIPOS>ATOM
      1 C          11.2308   41.4142    9.9824 C.2     1  UNL1        0.2555
      2 O          11.8660   42.3309    9.3942 O.2     1  UNL1       -0.2696
      3 N          11.9247   40.2625   10.4859 N.am    1  UNL1       -0.2801
      4 H          11.3788   39.5917   10.9563 H       1  UNL1        0.1552
      5 C           9.9616   41.3695   12.7111 C.3     1  UNL1        0.0315
      6 C           9.1719   41.5481   11.4581 C.ar    1  UNL1       -0.0085
      7 C           9.7609   41.5432   10.1738 C.ar    1  UNL1        0.1256
      8 C           8.8969   41.6659    9.0609 C.ar    1  UNL1        0.3496
      9 C           7.0096   41.7955   10.4305 C.ar    1  UNL1        0.1268
     10 C           7.7913   41.6738   11.5817 C.ar    1  UNL1        0.0292
     11 O           9.3564   41.6799    7.8876 O.2     1  UNL1       -0.2443
     12 O           7.5837   41.7851    9.2334 O.2     1  UNL1       -0.4254
     13 C           5.5234   41.9355   10.5228 C.3     1  UNL1        0.0733
     14 C           4.9006   40.7163   11.2120 C.3     1  UNL1        0.0103
     15 C           3.3909   40.6785   10.9850 C.3     1  UNL1        0.0176
     16 C           3.0207   40.8063    9.4968 C.3     1  UNL1        0.0686
     17 C           4.9034   42.2190    9.1453 C.3     1  UNL1        0.0761
     18 N           4.1866   41.0485    8.6424 N.3     1  UNL1       -0.2971
     19 H           3.8803   41.2194    7.6846 H       1  UNL1        0.1233
     20 C          13.3273   39.9840   10.3774 C.ar    1  UNL1        0.0536
     21 C          14.0761   40.6704    9.4153 C.ar    1  UNL1        0.0516
     22 C          15.4471   40.4331    9.2727 C.ar    1  UNL1        0.1396
     23 C          16.0751   39.4966   10.1090 C.ar    1  UNL1        0.0370
     24 C          15.3355   38.8072   11.0725 C.ar    1  UNL1        0.0044
     25 C          13.9664   39.0500   11.2063 C.ar    1  UNL1        0.0149
     26 O          16.1588   41.1427    8.2994 O.3     1  UNL1       -0.4791
     27 C          16.2999   42.5593    8.3141 C.3     1  UNL1        0.1659
     28 C          15.6826   43.1444    7.0561 C.3     1  UNL1        0.0435
     29 C          16.8229   43.7066    6.2348 C.3     1  UNL1        0.0038
     30 C          17.9271   43.9887    7.2241 C.3     1  UNL1        0.0038
     31 C          17.7730   42.9356    8.2971 C.3     1  UNL1        0.0435
@<TRIPOS>BOND
     1     5     6    1
     2     7     1    1
     3     7     8   ar
     4     1     3   am
     5    21    22   ar
     6    22    26    1
     7    27    26    1
     8    27    28    1
     9    28    29    1
    10    29    30    1
    11    30    31    1
    12    31    27    1
    13    23    24   ar
    14    25    20   ar
    15     8    12   ar
    16     9    12   ar
    17    10     6   ar
    18    13     9    1
    19    13    14    1
    20    14    15    1
    21    15    16    1
    22    16    18    1
    23    17    18    1
    24    17    13    1
    25     3    20    1
    26     6     7   ar
    27     1     2    2
    28    20    21   ar
    29    22    23   ar
    30    24    25   ar
    31     8    11    2
    32     9    10   ar
    33     3     4    1
    34    18    19    1
@<TRIPOS>MOLECULE
Molport-051-836-447 MCULE-6687774003 MCULE-7570445166
 31 34 0 0 0
SMALL
GASTEIGER

@<TRIPOS>ATOM
      1 C           6.0180   42.0454    9.3437 C.2     1  UNL1        0.2555
      2 O           6.7362   43.0786    9.2626 O.2     1  UNL1       -0.2696
      3 N           6.3329   40.8832    8.5618 N.am    1  UNL1       -0.2801
      4 H           5.7499   40.0996    8.6853 H       1  UNL1        0.1552
      5 C           3.4878   43.5714    8.7710 C.3     1  UNL1        0.0315
      6 C           3.6602   42.7248    9.9872 C.ar    1  UNL1       -0.0085
      7 C           4.8557   42.0281   10.2727 C.ar    1  UNL1        0.1256
      8 C           4.9136   41.3045   11.4864 C.ar    1  UNL1        0.3496
      9 C           2.7391   41.9309   12.0641 C.ar    1  UNL1        0.1268
     10 C           2.6017   42.6739   10.8893 C.ar    1  UNL1        0.0292
     11 O           5.9454   40.6518   11.7983 O.2     1  UNL1       -0.2443
     12 O           3.8727   41.2865   12.3140 O.2     1  UNL1       -0.4254
     13 C           1.6230   41.8497   13.0564 C.3     1  UNL1        0.0733
     14 C           0.2657   42.0402   12.3702 C.3     1  UNL1        0.0103
     15 C          -0.8265   42.3226   13.3995 C.3     1  UNL1        0.0176
     16 C          -0.4475   43.4688   14.3538 C.3     1  UNL1        0.0686
     17 C           1.8407   42.8277   14.2218 C.3     1  UNL1        0.0761
     18 N           0.9172   43.9576   14.1371 N.3     1  UNL1       -0.2971
     19 H           1.1520   44.6467   14.8515 H       1  UNL1        0.1233
     20 C           7.4052   40.7407    7.6204 C.ar    1  UNL1        0.0536
     21 C           8.6528   41.2904    7.9349 C.ar    1  UNL1        0.0516
     22 C           9.7289   41.1761    7.0487 C.ar    1  UNL1        0.1396
     23 C           9.5508   40.4985    5.8322 C.ar    1  UNL1        0.0370
     24 C           8.3091   39.9462    5.5102 C.ar    1  UNL1        0.0044
     25 C           7.2400   40.0669    6.4012 C.ar    1  UNL1        0.0149
     26 O          10.9599   41.7385    7.4032 O.3     1  UNL1       -0.4791
     27 C          12.2013   41.3064    6.8562 C.3     1  UNL1        0.1659
     28 C          12.9032   40.3948    7.8474 C.3     1  UNL1        0.0435
     29 C          14.1331   41.1375    8.3236 C.3     1  UNL1        0.0038
     30 C          14.4532   42.1248    7.2280 C.3     1  UNL1        0.0038
     31 C          13.1155   42.5006    6.6334 C.3     1  UNL1        0.0435
@<TRIPOS>BOND
     1     5     6    1
     2     7     1    1
     3     7     8   ar
     4     1     3   am
     5    21    22   ar
     6    22    26    1
     7    27    26    1
     8    27    28    1
     9    28    29    1
    10    29    30    1
    11    30    31    1
    12    31    27    1
    13    23    24   ar
    14    25    20   ar
    15     8    12   ar
    16     9    12   ar
    17    10     6   ar
    18    13     9    1
    19    13    14    1
    20    14    15    1
    21    15    16    1
    22    16    18    1
    23    17    18    1
    24    17    13    1
    25     3    20    1
    26     6     7   ar
    27     1     2    2
    28    20    21   ar
    29    22    23   ar
    30    24    25   ar
    31     8    11    2
    32     9    10   ar
    33     3     4    1
    34    18    19    1
@<TRIPOS>MOLECULE
Molport-051-836-447 MCULE-6687774003 MCULE-7570445166
 31 34 0 0 0
SMALL
GASTEIGER

@<TRIPOS>ATOM
      1 C          13.3623   39.9202    8.7105 C.2     1  UNL1        0.2555
      2 O          13.6970   39.1053    9.6126 O.2     1  UNL1       -0.2696
      3 N          12.0755   39.8144    8.0825 N.am    1  UNL1       -0.2801
      4 H          11.8618   40.4930    7.4020 H       1  UNL1        0.1552
      5 C          16.1340   40.1420    9.8625 C.3     1  UNL1        0.0315
      6 C          15.6079   41.0927    8.8403 C.ar    1  UNL1       -0.0085
      7 C          14.2984   41.0076    8.3166 C.ar    1  UNL1        0.1256
      8 C          13.9001   42.0029    7.3942 C.ar    1  UNL1        0.3496
      9 C          15.9744   43.0692    7.5167 C.ar    1  UNL1        0.1268
     10 C          16.4445   42.1292    8.4368 C.ar    1  UNL1        0.0292
     11 O          12.7499   41.9809    6.8800 O.2     1  UNL1       -0.2443
     12 O          14.7391   42.9720    7.0400 O.2     1  UNL1       -0.4254
     13 C          16.8445   44.1954    7.0569 C.3     1  UNL1        0.0733
     14 C          17.5939   43.8193    5.7738 C.3     1  UNL1        0.0103
     15 C          18.7367   44.7967    5.5079 C.3     1  UNL1        0.0176
     16 C          19.6522   44.9719    6.7323 C.3     1  UNL1        0.0686
     17 C          17.7858   44.6660    8.1770 C.3     1  UNL1        0.0761
     18 N          19.1628   44.2532    7.9122 N.3     1  UNL1       -0.2971
     19 H          19.7484   44.4764    8.7170 H       1  UNL1        0.1233
     20 C          11.0680   38.8268    8.3396 C.ar    1  UNL1        0.0536
     21 C          11.2410   37.9564    9.4213 C.ar    1  UNL1        0.0516
     22 C          10.2851   36.9775    9.7119 C.ar    1  UNL1        0.1396
     23 C           9.1390   36.8733    8.9078 C.ar    1  UNL1        0.0370
     24 C           8.9578   37.7383    7.8264 C.ar    1  UNL1        0.0044
     25 C           9.9189   38.7117    7.5433 C.ar    1  UNL1        0.0149
     26 O          10.4962   36.1289   10.8040 O.3     1  UNL1       -0.4791
     27 C          11.6988   35.3919   10.9981 C.3     1  UNL1        0.1659
     28 C          12.6731   36.2171   11.8202 C.3     1  UNL1        0.0435
     29 C          13.8239   36.5704   10.9025 C.3     1  UNL1        0.0038
     30 C          13.8203   35.5087    9.8299 C.3     1  UNL1        0.0038
     31 C          12.3681   35.1264    9.6589 C.3     1  UNL1        0.0435
@<TRIPOS>BOND
     1     5     6    1
     2     7     1    1
     3     7     8   ar
     4     1     3   am
     5    21    22   ar
     6    22    26    1
     7    27    26    1
     8    27    28    1
     9    28    29    1
    10    29    30    1
    11    30    31    1
    12    31    27    1
    13    23    24   ar
    14    25    20   ar
    15     8    12   ar
    16     9    12   ar
    17    10     6   ar
    18    13     9    1
    19    13    14    1
    20    14    15    1
    21    15    16    1
    22    16    18    1
    23    17    18    1
    24    17    13    1
    25     3    20    1
    26     6     7   ar
    27     1     2    2
    28    20    21   ar
    29    22    23   ar
    30    24    25   ar
    31     8    11    2
    32     9    10   ar
    33     3     4    1
    34    18    19    1
@<TRIPOS>MOLECULE
Molport-051-836-447 MCULE-6687774003 MCULE-7570445166
 31 34 0 0 0
SMALL
GASTEIGER

@<TRIPOS>ATOM
      1 C           8.3028   41.0157    8.5368 C.2     1  UNL1        0.2555
      2 O           7.5561   40.3544    7.7656 O.2     1  UNL1       -0.2696
      3 N           7.9230   42.3360    8.9537 N.am    1  UNL1       -0.2801
      4 H           8.5349   42.7936    9.5746 H       1  UNL1        0.1552
      5 C           9.3613   41.5590   11.3014 C.3     1  UNL1        0.0315
      6 C          10.0484   40.6482   10.3402 C.ar    1  UNL1       -0.0085
      7 C           9.5689   40.4112    9.0325 C.ar    1  UNL1        0.1256
      8 C          10.3414   39.5703    8.1982 C.ar    1  UNL1        0.3496
      9 C          11.9380   39.2338    9.8693 C.ar    1  UNL1        0.1268
     10 C          11.2378   40.0562   10.7550 C.ar    1  UNL1        0.0292
     11 O           9.9665   39.3080    7.0241 O.2     1  UNL1       -0.2443
     12 O          11.4708   39.0275    8.6437 O.2     1  UNL1       -0.4254
     13 C          13.2179   38.5777   10.2792 C.3     1  UNL1        0.0733
     14 C          13.8100   39.2592   11.5179 C.3     1  UNL1        0.0103
     15 C          15.2665   38.8465   11.7188 C.3     1  UNL1        0.0176
     16 C          16.1083   39.0359   10.4446 C.3     1  UNL1        0.0686
     17 C          14.2105   38.5110    9.1078 C.3     1  UNL1        0.0761
     18 N          15.3058   39.4609    9.2942 N.3     1  UNL1       -0.2971
     19 H          15.8890   39.4803    8.4576 H       1  UNL1        0.1233
     20 C           6.7484   43.0602    8.5633 C.ar    1  UNL1        0.0536
     21 C           5.5708   42.8753    9.2958 C.ar    1  UNL1        0.0516
     22 C           4.4004   43.5603    8.9534 C.ar    1  UNL1        0.1396
     23 C           4.4133   44.4447    7.8632 C.ar    1  UNL1        0.0370
     24 C           5.5844   44.6358    7.1267 C.ar    1  UNL1        0.0044
     25 C           6.7480   43.9459    7.4755 C.ar    1  UNL1        0.0149
     26 O           3.2452   43.3478    9.7135 O.3     1  UNL1       -0.4791
     27 C           2.7578   42.0522   10.0463 C.3     1  UNL1        0.1659
     28 C           2.4935   41.9770   11.5398 C.3     1  UNL1        0.0435
     29 C           3.5097   41.0120   12.1118 C.3     1  UNL1        0.0038
     30 C           3.9116   40.1248   10.9590 C.3     1  UNL1        0.0038
     31 C           3.8129   41.0032    9.7330 C.3     1  UNL1        0.0435
@<TRIPOS>BOND
     1     5     6    1
     2     7     1    1
     3     7     8   ar
     4     1     3   am
     5    21    22   ar
     6    22    26    1
     7    27    26    1
     8    27    28    1
     9    28    29    1
    10    29    30    1
    11    30    31    1
    12    31    27    1
    13    23    24   ar
    14    25    20   ar
    15     8    12   ar
    16     9    12   ar
    17    10     6   ar
    18    13     9    1
    19    13    14    1
    20    14    15    1
    21    15    16    1
    22    16    18    1
    23    17    18    1
    24    17    13    1
    25     3    20    1
    26     6     7   ar
    27     1     2    2
    28    20    21   ar
    29    22    23   ar
    30    24    25   ar
    31     8    11    2
    32     9    10   ar
    33     3     4    1
    34    18    19    1
@<TRIPOS>MOLECULE
Molport-051-836-447 MCULE-6687774003 MCULE-7570445166
 31 34 0 0 0
SMALL
GASTEIGER

@<TRIPOS>ATOM
      1 C          11.2999   41.4101    9.8156 C.2     1  UNL1        0.2555
      2 O          11.9587   42.2606    9.1579 O.2     1  UNL1       -0.2696
      3 N          11.9709   40.3138   10.4553 N.am    1  UNL1       -0.2801
      4 H          11.4066   39.6958   10.9738 H       1  UNL1        0.1552
      5 C           9.5102   41.7751    7.4235 C.3     1  UNL1        0.0315
      6 C           8.9864   41.7067    8.8187 C.ar    1  UNL1       -0.0085
      7 C           9.8255   41.5619    9.9461 C.ar    1  UNL1        0.1256
      8 C           9.2111   41.5666   11.2199 C.ar    1  UNL1        0.3496
      9 C           7.0854   41.8322   10.2895 C.ar    1  UNL1        0.1268
     10 C           7.6127   41.8430    8.9960 C.ar    1  UNL1        0.0292
     11 O           9.8988   41.4308   12.2669 O.2     1  UNL1       -0.2443
     12 O           7.8928   41.6984   11.3349 O.2     1  UNL1       -0.4254
     13 C           5.6145   41.9731   10.5203 C.3     1  UNL1        0.0733
     14 C           5.0554   40.7477   11.2517 C.3     1  UNL1        0.0103
     15 C           3.5311   40.7141   11.1650 C.3     1  UNL1        0.0176
     16 C           3.0250   40.8578    9.7189 C.3     1  UNL1        0.0686
     17 C           4.8704   42.2716    9.2091 C.3     1  UNL1        0.0761
     18 N           4.1075   41.1074    8.7627 N.3     1  UNL1       -0.2971
     19 H           3.7142   41.2886    7.8392 H       1  UNL1        0.1233
     20 C          13.3745   40.0219   10.4203 C.ar    1  UNL1        0.0536
     21 C          14.1732   40.6750    9.4753 C.ar    1  UNL1        0.0516
     22 C          15.5472   40.4236    9.4036 C.ar    1  UNL1        0.1396
     23 C          16.1275   39.5068   10.2944 C.ar    1  UNL1        0.0370
     24 C          15.3380   38.8507   11.2414 C.ar    1  UNL1        0.0044
     25 C          13.9662   39.1073   11.3042 C.ar    1  UNL1        0.0149
     26 O          16.3096   41.0998    8.4450 O.3     1  UNL1       -0.4791
     27 C          16.4242   42.5181    8.3981 C.3     1  UNL1        0.1659
     28 C          15.6366   43.0525    7.2148 C.3     1  UNL1        0.0435
     29 C          16.6488   43.6049    6.2343 C.3     1  UNL1        0.0038
     30 C          17.8672   43.9356    7.0611 C.3     1  UNL1        0.0038
     31 C          17.8749   42.9157    8.1766 C.3     1  UNL1        0.0435
@<TRIPOS>BOND
     1     5     6    1
     2     7     1    1
     3     7     8   ar
     4     1     3   am
     5    21    22   ar
     6    22    26    1
     7    27    26    1
     8    27    28    1
     9    28    29    1
    10    29    30    1
    11    30    31    1
    12    31    27    1
    13    23    24   ar
    14    25    20   ar
    15     8    12   ar
    16     9    12   ar
    17    10     6   ar
    18    13     9    1
    19    13    14    1
    20    14    15    1
    21    15    16    1
    22    16    18    1
    23    17    18    1
    24    17    13    1
    25     3    20    1
    26     6     7   ar
    27     1     2    2
    28    20    21   ar
    29    22    23   ar
    30    24    25   ar
    31     8    11    2
    32     9    10   ar
    33     3     4    1
    34    18    19    1
