@<TRIPOS>MOLECULE
Molport-020-295-357 MCULE-2704298410 PubChem-110267438
 28 31 0 0 0
SMALL
GASTEIGER

@<TRIPOS>ATOM
      1 C          11.5364   36.4709   10.1456 C.3     1  UNL1        0.0219
      2 C          10.9343   37.7049    9.4759 C.3     1  UNL1        0.0094
      3 C          12.0142   38.4815    8.7179 C.3     1  UNL1        0.0603
      4 C          13.1489   38.8795    9.6615 C.3     1  UNL1        0.0992
      5 C          12.6648   36.8808   11.0885 C.3     1  UNL1        0.0934
      6 C          15.0155   37.3056   10.2967 C.2     1  UNL1        0.2253
      7 N          13.6356   37.6937   10.3610 N.am    1  UNL1       -0.2792
      8 O          15.4056   36.2653   10.8948 O.2     1  UNL1       -0.2749
      9 C          15.9999   38.1225    9.5132 C.3     1  UNL1        0.0817
     10 C          17.1752   37.2511    9.0381 C.3     1  UNL1        0.0412
     11 C          18.4462   37.4435    9.8748 C.3     1  UNL1        0.1427
     12 C          17.7848   39.2782   10.9467 C.3     1  UNL1        0.1427
     13 C          16.4040   39.3885   10.2886 C.3     1  UNL1        0.0412
     14 O          18.1370   37.9364   11.1506 O.3     1  UNL1       -0.3538
     15 C          11.4377   39.6816    8.0368 C.ar    1  UNL1        0.0647
     16 C          11.7351   41.4960    6.5427 C.ar    1  UNL1        0.2215
     17 C           9.6376   41.2062    7.6016 C.ar    1  UNL1        0.1031
     18 C          10.1156   40.0787    8.2652 C.ar    1  UNL1        0.0356
     19 N          12.2157   40.3975    7.1830 N.ar    1  UNL1       -0.2179
     20 N          10.4505   41.8917    6.7567 N.ar    1  UNL1       -0.2120
     21 N          12.5948   42.2175    5.6522 N.pl3   1  UNL1       -0.2667
     22 H          12.3803   42.1716    4.6924 H       1  UNL1        0.1565
     23 C          13.7363   42.9994    6.0234 C.ar    1  UNL1        0.1537
     24 C          15.0059   44.9990    5.8983 C.ar    1  UNL1        0.1210
     25 C          15.9491   44.4556    6.7717 C.ar    1  UNL1        0.1196
     26 C          14.6820   42.4588    6.8973 C.ar    1  UNL1        0.1332
     27 N          13.9218   44.2602    5.5438 N.ar    1  UNL1       -0.2258
     28 N          15.7664   43.1974    7.2522 N.ar    1  UNL1       -0.2378
@<TRIPOS>BOND
     1     1     2    1
     2     2     3    1
     3     3     4    1
     4     3    15    1
     5     4     7    1
     6     5     7    1
     7     5     1    1
     8     9     6    1
     9     9    10    1
    10    10    11    1
    11    11    14    1
    12    12    14    1
    13    12    13    1
    14    13     9    1
    15    16    19   ar
    16    16    21    1
    17    17    20   ar
    18    18    15   ar
    19    24    27   ar
    20    25    28   ar
    21    26    23   ar
    22     7     6   am
    23    21    23    1
    24     6     8    2
    25    15    19   ar
    26    16    20   ar
    27    17    18   ar
    28    23    27   ar
    29    24    25   ar
    30    26    28   ar
    31    21    22    1
@<TRIPOS>MOLECULE
Molport-020-295-357 MCULE-2704298410 PubChem-110267438
 28 31 0 0 0
SMALL
GASTEIGER

@<TRIPOS>ATOM
      1 C          12.0836   37.6865   10.6613 C.3     1  UNL1        0.0219
      2 C          13.5558   38.0838   10.5678 C.3     1  UNL1        0.0094
      3 C          13.7085   39.3842    9.7744 C.3     1  UNL1        0.0603
      4 C          13.1006   39.2349    8.3800 C.3     1  UNL1        0.0992
      5 C          11.4887   37.5359    9.2635 C.3     1  UNL1        0.0934
      6 C          10.6315   39.4902    7.9296 C.2     1  UNL1        0.2253
      7 N          11.7258   38.7577    8.4996 N.am    1  UNL1       -0.2792
      8 O           9.4511   39.0652    8.0646 O.2     1  UNL1       -0.2749
      9 C          10.8781   40.7668    7.1814 C.3     1  UNL1        0.0817
     10 C           9.7130   41.7507    7.3840 C.3     1  UNL1        0.0412
     11 C           8.7641   41.8187    6.1810 C.3     1  UNL1        0.1427
     12 C          10.0731   40.7315    4.7469 C.3     1  UNL1        0.1427
     13 C          11.2379   40.4823    5.7128 C.3     1  UNL1        0.0412
     14 O           8.8424   40.6476    5.4136 O.3     1  UNL1       -0.3538
     15 C          15.1425   39.8005    9.6922 C.ar    1  UNL1        0.0647
     16 C          16.7586   41.3403    8.8981 C.ar    1  UNL1        0.2215
     17 C          17.4672   39.4923   10.1972 C.ar    1  UNL1        0.1031
     18 C          16.1504   39.0532   10.3115 C.ar    1  UNL1        0.0356
     19 N          15.4686   40.9243    9.0011 N.ar    1  UNL1       -0.2179
     20 N          17.7474   40.6216    9.4967 N.ar    1  UNL1       -0.2120
     21 N          17.0515   42.5317    8.1583 N.pl3   1  UNL1       -0.2667
     22 H          17.9480   42.9204    8.2780 H       1  UNL1        0.1565
     23 C          16.1657   43.2121    7.2613 C.ar    1  UNL1        0.1537
     24 C          14.1138   43.3408    6.0782 C.ar    1  UNL1        0.1210
     25 C          14.5046   44.5643    5.5323 C.ar    1  UNL1        0.1196
     26 C          16.5534   44.4367    6.7133 C.ar    1  UNL1        0.1332
     27 N          14.9516   42.6925    6.9295 N.ar    1  UNL1       -0.2258
     28 N          15.7158   45.0855    5.8618 N.ar    1  UNL1       -0.2378
@<TRIPOS>BOND
     1     1     2    1
     2     2     3    1
     3     3     4    1
     4     3    15    1
     5     4     7    1
     6     5     7    1
     7     5     1    1
     8     9     6    1
     9     9    10    1
    10    10    11    1
    11    11    14    1
    12    12    14    1
    13    12    13    1
    14    13     9    1
    15    16    19   ar
    16    16    21    1
    17    17    20   ar
    18    18    15   ar
    19    24    27   ar
    20    25    28   ar
    21    26    23   ar
    22     7     6   am
    23    21    23    1
    24     6     8    2
    25    15    19   ar
    26    16    20   ar
    27    17    18   ar
    28    23    27   ar
    29    24    25   ar
    30    26    28   ar
    31    21    22    1
@<TRIPOS>MOLECULE
Molport-020-295-357 MCULE-2704298410 PubChem-110267438
 28 31 0 0 0
SMALL
GASTEIGER

@<TRIPOS>ATOM
      1 C          11.0752   36.7099    9.9962 C.3     1  UNL1        0.0219
      2 C          11.0318   38.2242    9.7987 C.3     1  UNL1        0.0094
      3 C          12.2195   38.6861    8.9502 C.3     1  UNL1        0.0603
      4 C          13.5373   38.2644    9.5996 C.3     1  UNL1        0.0992
      5 C          12.3930   36.3012   10.6493 C.3     1  UNL1        0.0934
      6 C          14.5128   35.9525    9.3385 C.2     1  UNL1        0.2253
      7 N          13.5077   36.8293    9.8676 N.am    1  UNL1       -0.2792
      8 O          14.4524   34.7135    9.5694 O.2     1  UNL1       -0.2749
      9 C          15.6326   36.4962    8.5013 C.3     1  UNL1        0.0817
     10 C          16.0148   35.5025    7.3909 C.3     1  UNL1        0.0412
     11 C          17.2968   34.7184    7.6974 C.3     1  UNL1        0.1427
     12 C          17.9736   35.9716    9.4073 C.3     1  UNL1        0.1427
     13 C          16.8030   36.9621    9.3847 C.3     1  UNL1        0.0412
     14 O          17.5427   34.6787    9.0774 O.3     1  UNL1       -0.3538
     15 C          12.1806   40.1644    8.7276 C.ar    1  UNL1        0.0647
     16 C          12.9256   42.0433    7.4915 C.ar    1  UNL1        0.2215
     17 C          11.3988   42.3660    9.2717 C.ar    1  UNL1        0.1031
     18 C          11.3911   40.9970    9.5283 C.ar    1  UNL1        0.0356
     19 N          12.9283   40.7050    7.7298 N.ar    1  UNL1       -0.2179
     20 N          12.1613   42.8630    8.2638 N.ar    1  UNL1       -0.2120
     21 N          13.7312   42.5650    6.4278 N.pl3   1  UNL1       -0.2667
     22 H          13.3424   42.5431    5.5236 H       1  UNL1        0.1565
     23 C          15.0478   43.1156    6.5528 C.ar    1  UNL1        0.1537
     24 C          17.1818   43.1653    7.5872 C.ar    1  UNL1        0.1210
     25 C          17.5650   44.2123    6.7478 C.ar    1  UNL1        0.1196
     26 C          15.4347   44.1633    5.7144 C.ar    1  UNL1        0.1332
     27 N          15.9335   42.6406    7.4715 N.ar    1  UNL1       -0.2258
     28 N          16.6831   44.6884    5.8298 N.ar    1  UNL1       -0.2378
@<TRIPOS>BOND
     1     1     2    1
     2     2     3    1
     3     3     4    1
     4     3    15    1
     5     4     7    1
     6     5     7    1
     7     5     1    1
     8     9     6    1
     9     9    10    1
    10    10    11    1
    11    11    14    1
    12    12    14    1
    13    12    13    1
    14    13     9    1
    15    16    19   ar
    16    16    21    1
    17    17    20   ar
    18    18    15   ar
    19    24    27   ar
    20    25    28   ar
    21    26    23   ar
    22     7     6   am
    23    21    23    1
    24     6     8    2
    25    15    19   ar
    26    16    20   ar
    27    17    18   ar
    28    23    27   ar
    29    24    25   ar
    30    26    28   ar
    31    21    22    1
@<TRIPOS>MOLECULE
Molport-020-295-357 MCULE-2704298410 PubChem-110267438
 28 31 0 0 0
SMALL
GASTEIGER

@<TRIPOS>ATOM
      1 C          13.0325   39.0354   11.3153 C.3     1  UNL1        0.0219
      2 C          12.9449   40.1281   10.2513 C.3     1  UNL1        0.0094
      3 C          14.0488   39.9454    9.2063 C.3     1  UNL1        0.0603
      4 C          15.4238   39.9515    9.8737 C.3     1  UNL1        0.0992
      5 C          14.4076   39.0541   11.9779 C.3     1  UNL1        0.0934
      6 C          16.4165   37.9130   10.9800 C.2     1  UNL1        0.2253
      7 N          15.4432   38.9670   10.9519 N.am    1  UNL1       -0.2792
      8 O          16.3985   37.0639   11.9132 O.2     1  UNL1       -0.2749
      9 C          17.4522   37.8048    9.9002 C.3     1  UNL1        0.0817
     10 C          17.2589   36.5132    9.0873 C.3     1  UNL1        0.0412
     11 C          18.2581   35.4106    9.4590 C.3     1  UNL1        0.1427
     12 C          19.6378   36.6904   10.6469 C.3     1  UNL1        0.1427
     13 C          18.8662   38.0042   10.4730 C.3     1  UNL1        0.0412
     14 O          18.7586   35.6034   10.7546 O.3     1  UNL1       -0.3538
     15 C          13.9642   40.9941    8.1436 C.ar    1  UNL1        0.0647
     16 C          12.6782   42.0920    6.4841 C.ar    1  UNL1        0.2215
     17 C          14.9188   42.7679    6.8410 C.ar    1  UNL1        0.1031
     18 C          15.0602   41.8103    7.8424 C.ar    1  UNL1        0.0356
     19 N          12.8009   41.1530    7.4592 N.ar    1  UNL1       -0.2179
     20 N          13.7374   42.8919    6.1827 N.ar    1  UNL1       -0.2120
     21 N          11.4309   42.2205    5.7910 N.pl3   1  UNL1       -0.2667
     22 H          11.0922   43.1342    5.6506 H       1  UNL1        0.1565
     23 C          10.6290   41.1478    5.2825 C.ar    1  UNL1        0.1537
     24 C          10.3701   39.2186    3.9270 C.ar    1  UNL1        0.1210
     25 C           9.0412   39.1070    4.3385 C.ar    1  UNL1        0.1196
     26 C           9.2989   41.0330    5.6922 C.ar    1  UNL1        0.1332
     27 N          11.1337   40.2350    4.4072 N.ar    1  UNL1       -0.2258
     28 N           8.5347   40.0166    5.2122 N.ar    1  UNL1       -0.2378
@<TRIPOS>BOND
     1     1     2    1
     2     2     3    1
     3     3     4    1
     4     3    15    1
     5     4     7    1
     6     5     7    1
     7     5     1    1
     8     9     6    1
     9     9    10    1
    10    10    11    1
    11    11    14    1
    12    12    14    1
    13    12    13    1
    14    13     9    1
    15    16    19   ar
    16    16    21    1
    17    17    20   ar
    18    18    15   ar
    19    24    27   ar
    20    25    28   ar
    21    26    23   ar
    22     7     6   am
    23    21    23    1
    24     6     8    2
    25    15    19   ar
    26    16    20   ar
    27    17    18   ar
    28    23    27   ar
    29    24    25   ar
    30    26    28   ar
    31    21    22    1
@<TRIPOS>MOLECULE
Molport-020-295-357 MCULE-2704298410 PubChem-110267438
 28 31 0 0 0
SMALL
GASTEIGER

@<TRIPOS>ATOM
      1 C           8.9032   41.5838   12.7822 C.3     1  UNL1        0.0219
      2 C          10.2291   41.2006   12.1273 C.3     1  UNL1        0.0094
      3 C          10.2601   41.6696   10.6702 C.3     1  UNL1        0.0603
      4 C           9.0840   41.0791    9.8928 C.3     1  UNL1        0.0992
      5 C           7.7368   40.9850   12.0004 C.3     1  UNL1        0.0934
      6 C           6.7673   42.0763    9.9504 C.2     1  UNL1        0.2253
      7 N           7.8399   41.3761   10.5972 N.am    1  UNL1       -0.2792
      8 O           5.7105   42.3373   10.5885 O.2     1  UNL1       -0.2749
      9 C           6.8961   42.5120    8.5207 C.3     1  UNL1        0.0817
     10 C           7.7982   43.7529    8.4084 C.3     1  UNL1        0.0412
     11 C           7.0123   45.0546    8.2079 C.3     1  UNL1        0.1427
     12 C           5.0514   44.1127    7.7388 C.3     1  UNL1        0.1427
     13 C           5.5124   42.6553    7.8632 C.3     1  UNL1        0.0412
     14 O           5.6985   44.9252    8.6807 O.3     1  UNL1       -0.3538
     15 C          11.5610   41.3224   10.0195 C.ar    1  UNL1        0.0647
     16 C          13.0727   41.6435    8.2237 C.ar    1  UNL1        0.2215
     17 C          13.6257   40.1042    9.9352 C.ar    1  UNL1        0.1031
     18 C          12.4293   40.3855   10.5905 C.ar    1  UNL1        0.0356
     19 N          11.9015   41.9286    8.8518 N.ar    1  UNL1       -0.2179
     20 N          13.9254   40.7340    8.7699 N.ar    1  UNL1       -0.2120
     21 N          13.3863   42.3092    6.9944 N.pl3   1  UNL1       -0.2667
     22 H          12.6955   42.2966    6.2931 H       1  UNL1        0.1565
     23 C          14.6080   42.9913    6.6871 C.ar    1  UNL1        0.1537
     24 C          16.9190   43.3707    7.0637 C.ar    1  UNL1        0.1210
     25 C          16.9262   44.3335    6.0535 C.ar    1  UNL1        0.1196
     26 C          14.6189   43.9553    5.6767 C.ar    1  UNL1        0.1332
     27 N          15.7618   42.7217    7.3580 N.ar    1  UNL1       -0.2258
     28 N          15.7760   44.6047    5.3820 N.ar    1  UNL1       -0.2378
@<TRIPOS>BOND
     1     1     2    1
     2     2     3    1
     3     3     4    1
     4     3    15    1
     5     4     7    1
     6     5     7    1
     7     5     1    1
     8     9     6    1
     9     9    10    1
    10    10    11    1
    11    11    14    1
    12    12    14    1
    13    12    13    1
    14    13     9    1
    15    16    19   ar
    16    16    21    1
    17    17    20   ar
    18    18    15   ar
    19    24    27   ar
    20    25    28   ar
    21    26    23   ar
    22     7     6   am
    23    21    23    1
    24     6     8    2
    25    15    19   ar
    26    16    20   ar
    27    17    18   ar
    28    23    27   ar
    29    24    25   ar
    30    26    28   ar
    31    21    22    1
@<TRIPOS>MOLECULE
Molport-020-295-357 MCULE-2704298410 PubChem-110267438
 28 31 0 0 0
SMALL
GASTEIGER

@<TRIPOS>ATOM
      1 C           9.9265   41.4026   12.2794 C.3     1  UNL1        0.0219
      2 C          10.8458   41.2631   11.0672 C.3     1  UNL1        0.0094
      3 C          10.1872   41.8692    9.8251 C.3     1  UNL1        0.0603
      4 C           8.8370   41.2048    9.5573 C.3     1  UNL1        0.0992
      5 C           8.5836   40.7318   12.0022 C.3     1  UNL1        0.0934
      6 C           6.7206   41.8757   10.7554 C.2     1  UNL1        0.2253
      7 N           8.0193   41.2654   10.7655 N.am    1  UNL1       -0.2792
      8 O           6.0430   41.9319   11.8184 O.2     1  UNL1       -0.2749
      9 C           6.1640   42.4592    9.4905 C.3     1  UNL1        0.0817
     10 C           4.8435   43.1985    9.7665 C.3     1  UNL1        0.0412
     11 C           3.6043   42.3978    9.3474 C.3     1  UNL1        0.1427
     12 C           4.6753   40.8524    8.1570 C.3     1  UNL1        0.1427
     13 C           6.0916   41.3963    8.3803 C.3     1  UNL1        0.0412
     14 O           3.8857   41.0248    9.3029 O.3     1  UNL1       -0.3538
     15 C          11.0834   41.7615    8.6328 C.ar    1  UNL1        0.0647
     16 C          13.2677   41.4612    7.7657 C.ar    1  UNL1        0.2215
     17 C          11.4614   41.7553    6.2639 C.ar    1  UNL1        0.1031
     18 C          10.5751   41.8626    7.3330 C.ar    1  UNL1        0.0356
     19 N          12.4149   41.5637    8.8192 N.ar    1  UNL1       -0.2179
     20 N          12.7847   41.5577    6.4969 N.ar    1  UNL1       -0.2120
     21 N          14.6633   41.2530    8.0142 N.pl3   1  UNL1       -0.2667
     22 H          14.9271   40.3678    8.3547 H       1  UNL1        0.1565
     23 C          15.7118   42.2086    7.8151 C.ar    1  UNL1        0.1537
     24 C          17.9618   42.9033    8.1000 C.ar    1  UNL1        0.1210
     25 C          17.6875   44.0803    7.4020 C.ar    1  UNL1        0.1196
     26 C          15.4409   43.3874    7.1170 C.ar    1  UNL1        0.1332
     27 N          16.9695   41.9946    8.2909 N.ar    1  UNL1       -0.2258
     28 N          16.4330   44.2965    6.9257 N.ar    1  UNL1       -0.2378
@<TRIPOS>BOND
     1     1     2    1
     2     2     3    1
     3     3     4    1
     4     3    15    1
     5     4     7    1
     6     5     7    1
     7     5     1    1
     8     9     6    1
     9     9    10    1
    10    10    11    1
    11    11    14    1
    12    12    14    1
    13    12    13    1
    14    13     9    1
    15    16    19   ar
    16    16    21    1
    17    17    20   ar
    18    18    15   ar
    19    24    27   ar
    20    25    28   ar
    21    26    23   ar
    22     7     6   am
    23    21    23    1
    24     6     8    2
    25    15    19   ar
    26    16    20   ar
    27    17    18   ar
    28    23    27   ar
    29    24    25   ar
    30    26    28   ar
    31    21    22    1
@<TRIPOS>MOLECULE
Molport-020-295-357 MCULE-2704298410 PubChem-110267438
 28 31 0 0 0
SMALL
GASTEIGER

@<TRIPOS>ATOM
      1 C           9.5189   42.4086   11.5300 C.3     1  UNL1        0.0219
      2 C          10.3515   42.1177   10.2825 C.3     1  UNL1        0.0094
      3 C           9.4599   42.0986    9.0381 C.3     1  UNL1        0.0603
      4 C           8.3443   41.0656    9.1949 C.3     1  UNL1        0.0992
      5 C           8.4115   41.3685   11.6787 C.3     1  UNL1        0.0934
      6 C           6.2142   41.5343   10.4629 C.2     1  UNL1        0.2253
      7 N           7.6312   41.3089   10.4457 N.am    1  UNL1       -0.2792
      8 O           5.6260   41.7616   11.5558 O.2     1  UNL1       -0.2749
      9 C           5.4249   41.5130    9.1875 C.3     1  UNL1        0.0817
     10 C           5.9726   42.5485    8.1904 C.3     1  UNL1        0.0412
     11 C           5.1172   43.8188    8.1083 C.3     1  UNL1        0.1427
     12 C           3.3530   43.0239    9.2074 C.3     1  UNL1        0.1427
     13 C           3.9169   41.6227    9.4725 C.3     1  UNL1        0.0412
     14 O           4.3641   43.9928    9.2783 O.3     1  UNL1       -0.3538
     15 C          10.2626   41.8373    7.8036 C.ar    1  UNL1        0.0647
     16 C          12.3892   41.6594    6.7747 C.ar    1  UNL1        0.2215
     17 C          10.4445   41.3115    5.4702 C.ar    1  UNL1        0.1031
     18 C           9.6417   41.5439    6.5845 C.ar    1  UNL1        0.0356
     19 N          11.6189   41.8884    7.8709 N.ar    1  UNL1       -0.2179
     20 N          11.7965   41.3728    5.5834 N.ar    1  UNL1       -0.2120
     21 N          13.8152   41.7250    6.8967 N.pl3   1  UNL1       -0.2667
     22 H          14.2716   40.9151    7.2208 H       1  UNL1        0.1565
     23 C          14.6412   42.8553    6.5927 C.ar    1  UNL1        0.1537
     24 C          16.6029   44.1412    6.9459 C.ar    1  UNL1        0.1210
     25 C          16.1876   45.0448    5.9667 C.ar    1  UNL1        0.1196
     26 C          14.2288   43.7615    5.6134 C.ar    1  UNL1        0.1332
     27 N          15.8218   43.0678    7.2370 N.ar    1  UNL1       -0.2258
     28 N          15.0097   44.8352    5.3219 N.ar    1  UNL1       -0.2378
@<TRIPOS>BOND
     1     1     2    1
     2     2     3    1
     3     3     4    1
     4     3    15    1
     5     4     7    1
     6     5     7    1
     7     5     1    1
     8     9     6    1
     9     9    10    1
    10    10    11    1
    11    11    14    1
    12    12    14    1
    13    12    13    1
    14    13     9    1
    15    16    19   ar
    16    16    21    1
    17    17    20   ar
    18    18    15   ar
    19    24    27   ar
    20    25    28   ar
    21    26    23   ar
    22     7     6   am
    23    21    23    1
    24     6     8    2
    25    15    19   ar
    26    16    20   ar
    27    17    18   ar
    28    23    27   ar
    29    24    25   ar
    30    26    28   ar
    31    21    22    1
@<TRIPOS>MOLECULE
Molport-020-295-357 MCULE-2704298410 PubChem-110267438
 28 31 0 0 0
SMALL
GASTEIGER

@<TRIPOS>ATOM
      1 C          10.4213   39.7133    5.5915 C.3     1  UNL1        0.0219
      2 C          11.5728   39.6137    6.5906 C.3     1  UNL1        0.0094
      3 C          11.1625   40.2105    7.9394 C.3     1  UNL1        0.0603
      4 C          10.7203   41.6637    7.7693 C.3     1  UNL1        0.0992
      5 C           9.9915   41.1687    5.4263 C.3     1  UNL1        0.0934
      6 C           8.4023   42.3084    7.0104 C.2     1  UNL1        0.2253
      7 N           9.6906   41.7389    6.7367 N.am    1  UNL1       -0.2792
      8 O           7.5240   42.3431    6.1051 O.2     1  UNL1       -0.2749
      9 C           8.0855   42.8548    8.3710 C.3     1  UNL1        0.0817
     10 C           7.6420   41.7288    9.3206 C.3     1  UNL1        0.0412
     11 C           6.1245   41.6850    9.5381 C.3     1  UNL1        0.1427
     12 C           5.6690   43.6698    8.6407 C.3     1  UNL1        0.1427
     13 C           7.1108   44.0413    8.2734 C.3     1  UNL1        0.0412
     14 O           5.4473   42.2955    8.4727 O.3     1  UNL1       -0.3538
     15 C          12.2711   40.1010    8.9372 C.ar    1  UNL1        0.0647
     16 C          14.5747   40.3433    9.4347 C.ar    1  UNL1        0.2215
     17 C          13.1032   39.5844   11.1269 C.ar    1  UNL1        0.1031
     18 C          12.0284   39.6664   10.2449 C.ar    1  UNL1        0.0356
     19 N          13.5357   40.4286    8.5626 N.ar    1  UNL1       -0.2179
     20 N          14.3507   39.9221   10.7095 N.ar    1  UNL1       -0.2120
     21 N          15.8897   40.6998    8.9918 N.pl3   1  UNL1       -0.2667
     22 H          16.6057   40.0430    9.1503 H       1  UNL1        0.1565
     23 C          16.2634   41.9198    8.3404 C.ar    1  UNL1        0.1537
     24 C          15.8185   43.6609    6.7923 C.ar    1  UNL1        0.1210
     25 C          17.0329   44.2648    7.1214 C.ar    1  UNL1        0.1196
     26 C          17.4778   42.5268    8.6675 C.ar    1  UNL1        0.1332
     27 N          15.4609   42.5035    7.4081 N.ar    1  UNL1       -0.2258
     28 N          17.8360   43.6845    8.0519 N.ar    1  UNL1       -0.2378
@<TRIPOS>BOND
     1     1     2    1
     2     2     3    1
     3     3     4    1
     4     3    15    1
     5     4     7    1
     6     5     7    1
     7     5     1    1
     8     9     6    1
     9     9    10    1
    10    10    11    1
    11    11    14    1
    12    12    14    1
    13    12    13    1
    14    13     9    1
    15    16    19   ar
    16    16    21    1
    17    17    20   ar
    18    18    15   ar
    19    24    27   ar
    20    25    28   ar
    21    26    23   ar
    22     7     6   am
    23    21    23    1
    24     6     8    2
    25    15    19   ar
    26    16    20   ar
    27    17    18   ar
    28    23    27   ar
    29    24    25   ar
    30    26    28   ar
    31    21    22    1
@<TRIPOS>MOLECULE
Molport-020-295-357 MCULE-2704298410 PubChem-110267438
 28 31 0 0 0
SMALL
GASTEIGER

@<TRIPOS>ATOM
      1 C           9.6473   42.4581   11.8022 C.3     1  UNL1        0.0219
      2 C          10.5638   42.1931   10.6089 C.3     1  UNL1        0.0094
      3 C           9.7567   42.1819    9.3080 C.3     1  UNL1        0.0603
      4 C           8.6448   41.1353    9.3771 C.3     1  UNL1        0.0992
      5 C           8.5443   41.4047   11.8636 C.3     1  UNL1        0.0934
      6 C           6.4305   41.5643   10.5072 C.2     1  UNL1        0.2253
      7 N           7.8480   41.3539   10.5810 N.am    1  UNL1       -0.2792
      8 O           5.7688   41.7704   11.5617 O.2     1  UNL1       -0.2749
      9 C           5.7275   41.5522    9.1821 C.3     1  UNL1        0.0817
     10 C           6.1343   42.7725    8.3384 C.3     1  UNL1        0.0412
     11 C           5.0715   43.8782    8.3242 C.3     1  UNL1        0.1427
     12 C           3.4210   42.6730    9.2049 C.3     1  UNL1        0.1427
     13 C           4.2110   41.3685    9.3662 C.3     1  UNL1        0.0412
     14 O           4.2376   43.7867    9.4478 O.3     1  UNL1       -0.3538
     15 C          10.6421   41.9460    8.1261 C.ar    1  UNL1        0.0647
     16 C          12.8190   41.9800    7.1918 C.ar    1  UNL1        0.2215
     17 C          10.9969   41.2934    5.8453 C.ar    1  UNL1        0.1031
     18 C          10.1207   41.4926    6.9094 C.ar    1  UNL1        0.0356
     19 N          11.9761   42.1790    8.2395 N.ar    1  UNL1       -0.2179
     20 N          12.3232   41.5390    6.0034 N.ar    1  UNL1       -0.2120
     21 N          14.2177   42.2402    7.3613 N.pl3   1  UNL1       -0.2667
     22 H          14.5959   42.9903    6.8479 H       1  UNL1        0.1565
     23 C          15.1190   41.5142    8.2055 C.ar    1  UNL1        0.1537
     24 C          15.5767   39.7188    9.6865 C.ar    1  UNL1        0.1210
     25 C          16.8952   40.1586    9.8132 C.ar    1  UNL1        0.1196
     26 C          16.4390   41.9514    8.3345 C.ar    1  UNL1        0.1332
     27 N          14.7188   40.4052    8.8866 N.ar    1  UNL1       -0.2258
     28 N          17.2975   41.2653    9.1344 N.ar    1  UNL1       -0.2378
@<TRIPOS>BOND
     1     1     2    1
     2     2     3    1
     3     3     4    1
     4     3    15    1
     5     4     7    1
     6     5     7    1
     7     5     1    1
     8     9     6    1
     9     9    10    1
    10    10    11    1
    11    11    14    1
    12    12    14    1
    13    12    13    1
    14    13     9    1
    15    16    19   ar
    16    16    21    1
    17    17    20   ar
    18    18    15   ar
    19    24    27   ar
    20    25    28   ar
    21    26    23   ar
    22     7     6   am
    23    21    23    1
    24     6     8    2
    25    15    19   ar
    26    16    20   ar
    27    17    18   ar
    28    23    27   ar
    29    24    25   ar
    30    26    28   ar
    31    21    22    1
@<TRIPOS>MOLECULE
Molport-020-295-357 MCULE-2704298410 PubChem-110267438
 28 31 0 0 0
SMALL
GASTEIGER

@<TRIPOS>ATOM
      1 C           9.3745   43.8579   10.6258 C.3     1  UNL1        0.0219
      2 C          10.6796   43.0865   10.8150 C.3     1  UNL1        0.0094
      3 C          10.7591   41.9209    9.8255 C.3     1  UNL1        0.0603
      4 C           9.5554   40.9939    9.9929 C.3     1  UNL1        0.0992
      5 C           8.1801   42.9234   10.7997 C.3     1  UNL1        0.0934
      6 C           7.3100   41.4640    8.9432 C.2     1  UNL1        0.2253
      7 N           8.3257   41.7765    9.9075 N.am    1  UNL1       -0.2792
      8 O           6.2655   42.1689    8.8779 O.2     1  UNL1       -0.2749
      9 C           7.4845   40.3095    8.0014 C.3     1  UNL1        0.0817
     10 C           8.9165   40.2756    7.4404 C.3     1  UNL1        0.0412
     11 C           9.0156   40.8089    6.0058 C.3     1  UNL1        0.1427
     12 C           6.8324   40.8235    5.5751 C.3     1  UNL1        0.1427
     13 C           6.3719   40.2942    6.9388 C.3     1  UNL1        0.0412
     14 O           7.9447   41.6659    5.7141 O.3     1  UNL1       -0.3538
     15 C          12.0415   41.1677    9.9814 C.ar    1  UNL1        0.0647
     16 C          14.2276   40.7116    9.1901 C.ar    1  UNL1        0.2215
     17 C          13.4402   39.5840   11.1171 C.ar    1  UNL1        0.1031
     18 C          12.2232   40.2553   11.0266 C.ar    1  UNL1        0.0356
     19 N          13.0453   41.3746    9.0890 N.ar    1  UNL1       -0.2179
     20 N          14.4159   39.8219   10.2028 N.ar    1  UNL1       -0.2120
     21 N          15.2551   40.9643    8.2242 N.pl3   1  UNL1       -0.2667
     22 H          15.8018   40.1946    7.9448 H       1  UNL1        0.1565
     23 C          15.5639   42.2286    7.6256 C.ar    1  UNL1        0.1537
     24 C          15.1006   43.9439    6.0541 C.ar    1  UNL1        0.1210
     25 C          16.2047   44.6636    6.5132 C.ar    1  UNL1        0.1196
     26 C          16.6678   42.9516    8.0826 C.ar    1  UNL1        0.1332
     27 N          14.8048   42.7440    6.6195 N.ar    1  UNL1       -0.2258
     28 N          16.9641   44.1517    7.5175 N.ar    1  UNL1       -0.2378
@<TRIPOS>BOND
     1     1     2    1
     2     2     3    1
     3     3     4    1
     4     3    15    1
     5     4     7    1
     6     5     7    1
     7     5     1    1
     8     9     6    1
     9     9    10    1
    10    10    11    1
    11    11    14    1
    12    12    14    1
    13    12    13    1
    14    13     9    1
    15    16    19   ar
    16    16    21    1
    17    17    20   ar
    18    18    15   ar
    19    24    27   ar
    20    25    28   ar
    21    26    23   ar
    22     7     6   am
    23    21    23    1
    24     6     8    2
    25    15    19   ar
    26    16    20   ar
    27    17    18   ar
    28    23    27   ar
    29    24    25   ar
    30    26    28   ar
    31    21    22    1
