@<TRIPOS>MOLECULE
MolPort-020-275-220 MCULE-2387876618 PubChem-110252897
 23 25 0 0 0
SMALL
GASTEIGER

@<TRIPOS>ATOM
      1 C          11.8339   41.4548    9.6446 C.ar    1  UNL1        0.0808
      2 C          11.6313   40.5480   10.6925 C.ar    1  UNL1        0.1137
      3 C          13.8353   39.7322   10.4143 C.ar    1  UNL1        0.1332
      4 C          14.0456   40.6361    9.3652 C.ar    1  UNL1        0.1533
      5 N          12.6362   39.7083   11.0528 N.ar    1  UNL1       -0.2382
      6 N          13.0355   41.4741    9.0094 N.ar    1  UNL1       -0.2316
      7 C           6.7861   43.4190    6.5184 C.3     1  UNL1        0.0948
      8 C           7.9480   42.5422    6.8438 C.2     1  UNL1        0.2261
      9 C           8.0022   43.4009    9.2119 C.3     1  UNL1        0.0934
     10 C           9.1189   44.1488    9.9342 C.3     1  UNL1        0.0219
     11 C          10.1883   43.1676   10.4044 C.3     1  UNL1        0.0094
     12 C          10.7580   42.3987    9.2115 C.3     1  UNL1        0.0617
     13 C           9.6470   41.6576    8.4670 C.3     1  UNL1        0.0993
     14 O           8.3882   41.7643    5.9558 O.2     1  UNL1       -0.2749
     15 N           8.5656   42.5838    8.1385 N.am    1  UNL1       -0.2791
     16 N          15.2906   40.7057    8.6555 N.pl3   1  UNL1       -0.2667
     17 H          15.7210   39.8455    8.4454 H       1  UNL1        0.1565
     18 C          15.9800   41.8841    8.2168 C.ar    1  UNL1        0.2218
     19 C          17.8010   43.3902    8.3709 C.ar    1  UNL1        0.1034
     20 C          17.2680   44.1587    7.3379 C.ar    1  UNL1        0.0414
     21 C          16.0678   43.7480    6.7609 C.ar    1  UNL1        0.1034
     22 N          17.1519   42.2730    8.7902 N.ar    1  UNL1       -0.2120
     23 N          15.4485   42.6246    7.2080 N.ar    1  UNL1       -0.2120
@<TRIPOS>BOND
     1     7     8    1
     2     8    15   am
     3     9    15    1
     4     9    10    1
     5    10    11    1
     6    11    12    1
     7    12    13    1
     8    12     1    1
     9    13    15    1
    10     1     6   ar
    11     2     5   ar
    12     3     4   ar
    13     4    16    1
    14    18    23   ar
    15    19    22   ar
    16    20    21   ar
    17    16    18    1
    18     8    14    2
    19     1     2   ar
    20     3     5   ar
    21     4     6   ar
    22    18    22   ar
    23    19    20   ar
    24    21    23   ar
    25    16    17    1
@<TRIPOS>MOLECULE
MolPort-020-275-220 MCULE-2387876618 PubChem-110252897
 23 25 0 0 0
SMALL
GASTEIGER

@<TRIPOS>ATOM
      1 C          11.3205   41.7468    6.8057 C.ar    1  UNL1        0.0808
      2 C          10.6059   41.5413    5.6188 C.ar    1  UNL1        0.1137
      3 C           8.5702   41.7080    6.8140 C.ar    1  UNL1        0.1332
      4 C           9.2777   41.9140    8.0053 C.ar    1  UNL1        0.1533
      5 N           9.2482   41.5268    5.6506 N.ar    1  UNL1       -0.2382
      6 N          10.6369   41.9274    7.9666 N.ar    1  UNL1       -0.2316
      7 C          17.0738   43.9726    5.7778 C.3     1  UNL1        0.0948
      8 C          15.5931   43.8674    5.6330 C.2     1  UNL1        0.2261
      9 C          15.4059   42.6831    7.8490 C.3     1  UNL1        0.0934
     10 C          14.8847   41.2798    8.1439 C.3     1  UNL1        0.0219
     11 C          13.3592   41.2806    8.1640 C.3     1  UNL1        0.0094
     12 C          12.8155   41.7707    6.8213 C.3     1  UNL1        0.0617
     13 C          13.3438   43.1700    6.5038 C.3     1  UNL1        0.0993
     14 O          15.0448   44.3797    4.6208 O.2     1  UNL1       -0.2749
     15 N          14.8004   43.1890    6.6183 N.am    1  UNL1       -0.2791
     16 N           8.6150   42.1107    9.2625 N.pl3   1  UNL1       -0.2667
     17 H           9.1391   42.5576    9.9660 H       1  UNL1        0.1565
     18 C           7.2771   41.7312    9.6123 C.ar    1  UNL1        0.2218
     19 C           5.0698   41.1365    8.9942 C.ar    1  UNL1        0.1034
     20 C           4.7172   41.0039   10.3357 C.ar    1  UNL1        0.0414
     21 C           5.6914   41.2483   11.3017 C.ar    1  UNL1        0.1034
     22 N           6.3358   41.4957    8.6574 N.ar    1  UNL1       -0.2120
     23 N           6.9469   41.6056   10.9252 N.ar    1  UNL1       -0.2120
@<TRIPOS>BOND
     1     7     8    1
     2     8    15   am
     3     9    15    1
     4     9    10    1
     5    10    11    1
     6    11    12    1
     7    12    13    1
     8    12     1    1
     9    13    15    1
    10     1     6   ar
    11     2     5   ar
    12     3     4   ar
    13     4    16    1
    14    18    23   ar
    15    19    22   ar
    16    20    21   ar
    17    16    18    1
    18     8    14    2
    19     1     2   ar
    20     3     5   ar
    21     4     6   ar
    22    18    22   ar
    23    19    20   ar
    24    21    23   ar
    25    16    17    1
@<TRIPOS>MOLECULE
MolPort-020-275-220 MCULE-2387876618 PubChem-110252897
 23 25 0 0 0
SMALL
GASTEIGER

@<TRIPOS>ATOM
      1 C          13.0726   39.7378   10.5542 C.ar    1  UNL1        0.0808
      2 C          13.4398   38.9829   11.6753 C.ar    1  UNL1        0.1137
      3 C          15.7209   39.2283   11.0951 C.ar    1  UNL1        0.1332
      4 C          15.3618   39.9841    9.9718 C.ar    1  UNL1        0.1533
      5 N          14.7546   38.7459   11.9196 N.ar    1  UNL1       -0.2382
      6 N          14.0436   40.2177    9.7329 N.ar    1  UNL1       -0.2316
      7 C           7.2319   41.7357   11.5568 C.3     1  UNL1        0.0948
      8 C           8.6180   41.3076   11.9030 C.2     1  UNL1        0.2261
      9 C           9.4165   41.8152    9.5678 C.3     1  UNL1        0.0934
     10 C          10.0146   40.8669    8.5329 C.3     1  UNL1        0.0219
     11 C          11.4875   40.6160    8.8411 C.3     1  UNL1        0.0094
     12 C          11.6384   40.0248   10.2433 C.3     1  UNL1        0.0617
     13 C          11.0274   40.9567   11.2903 C.3     1  UNL1        0.0993
     14 O           8.8633   40.9444   13.0843 O.2     1  UNL1       -0.2749
     15 N           9.6572   41.2969   10.9134 N.am    1  UNL1       -0.2791
     16 N          16.3387   40.5184    9.0669 N.pl3   1  UNL1       -0.2667
     17 H          17.1079   39.9384    8.8642 H       1  UNL1        0.1565
     18 C          16.3234   41.8000    8.4240 C.ar    1  UNL1        0.2218
     19 C          15.3217   43.3610    6.9516 C.ar    1  UNL1        0.1034
     20 C          16.3386   44.2773    7.2123 C.ar    1  UNL1        0.0414
     21 C          17.3472   43.9093    8.1008 C.ar    1  UNL1        0.1034
     22 N          15.3314   42.1456    7.5580 N.ar    1  UNL1       -0.2120
     23 N          17.3220   42.6843    8.6875 N.ar    1  UNL1       -0.2120
@<TRIPOS>BOND
     1     7     8    1
     2     8    15   am
     3     9    15    1
     4     9    10    1
     5    10    11    1
     6    11    12    1
     7    12    13    1
     8    12     1    1
     9    13    15    1
    10     1     6   ar
    11     2     5   ar
    12     3     4   ar
    13     4    16    1
    14    18    23   ar
    15    19    22   ar
    16    20    21   ar
    17    16    18    1
    18     8    14    2
    19     1     2   ar
    20     3     5   ar
    21     4     6   ar
    22    18    22   ar
    23    19    20   ar
    24    21    23   ar
    25    16    17    1
@<TRIPOS>MOLECULE
MolPort-020-275-220 MCULE-2387876618 PubChem-110252897
 23 25 0 0 0
SMALL
GASTEIGER

@<TRIPOS>ATOM
      1 C           9.8593   40.8774    8.0072 C.ar    1  UNL1        0.0808
      2 C          10.5461   39.8584    8.6790 C.ar    1  UNL1        0.1137
      3 C          12.5385   40.4550    7.5500 C.ar    1  UNL1        0.1332
      4 C          11.8587   41.4763    6.8741 C.ar    1  UNL1        0.1533
      5 N          11.8689   39.6710    8.4350 N.ar    1  UNL1       -0.2382
      6 N          10.5343   41.6586    7.1229 N.ar    1  UNL1       -0.2316
      7 C           4.6454   42.0229   11.2651 C.3     1  UNL1        0.0948
      8 C           6.0655   41.6294   11.0352 C.2     1  UNL1        0.2261
      9 C           6.1010   42.8419    8.8269 C.3     1  UNL1        0.0934
     10 C           6.3358   42.2783    7.4285 C.3     1  UNL1        0.0219
     11 C           7.8285   42.0721    7.1903 C.3     1  UNL1        0.0094
     12 C           8.4030   41.1221    8.2420 C.3     1  UNL1        0.0617
     13 C           8.1595   41.6656    9.6503 C.3     1  UNL1        0.0993
     14 O           6.6632   40.9677   11.9255 O.2     1  UNL1       -0.2749
     15 N           6.7439   41.9851    9.8217 N.am    1  UNL1       -0.2791
     16 N          12.5140   42.3343    5.9292 N.pl3   1  UNL1       -0.2667
     17 H          12.0927   42.4082    5.0425 H       1  UNL1        0.1565
     18 C          13.7122   43.0967    6.1279 C.ar    1  UNL1        0.2218
     19 C          15.0076   45.0439    5.7561 C.ar    1  UNL1        0.1034
     20 C          16.0358   44.5238    6.5396 C.ar    1  UNL1        0.0414
     21 C          15.8593   43.2644    7.1094 C.ar    1  UNL1        0.1034
     22 N          13.8704   44.3259    5.5647 N.ar    1  UNL1       -0.2120
     23 N          14.7075   42.5769    6.8947 N.ar    1  UNL1       -0.2120
@<TRIPOS>BOND
     1     7     8    1
     2     8    15   am
     3     9    15    1
     4     9    10    1
     5    10    11    1
     6    11    12    1
     7    12    13    1
     8    12     1    1
     9    13    15    1
    10     1     6   ar
    11     2     5   ar
    12     3     4   ar
    13     4    16    1
    14    18    23   ar
    15    19    22   ar
    16    20    21   ar
    17    16    18    1
    18     8    14    2
    19     1     2   ar
    20     3     5   ar
    21     4     6   ar
    22    18    22   ar
    23    19    20   ar
    24    21    23   ar
    25    16    17    1
@<TRIPOS>MOLECULE
MolPort-020-275-220 MCULE-2387876618 PubChem-110252897
 23 25 0 0 0
SMALL
GASTEIGER

@<TRIPOS>ATOM
      1 C          11.0793   40.2768    8.8847 C.ar    1  UNL1        0.0808
      2 C          11.5677   39.8838   10.1370 C.ar    1  UNL1        0.1137
      3 C          13.7268   40.6426    9.5346 C.ar    1  UNL1        0.1332
      4 C          13.2460   41.0382    8.2799 C.ar    1  UNL1        0.1533
      5 N          12.8793   40.0758   10.4327 N.ar    1  UNL1       -0.2382
      6 N          11.9318   40.8432    7.9901 N.ar    1  UNL1       -0.2316
      7 C           4.9004   41.2331    9.0187 C.3     1  UNL1        0.0948
      8 C           6.3145   41.3070    9.4870 C.2     1  UNL1        0.2261
      9 C           7.1663   40.8736    7.1558 C.3     1  UNL1        0.0934
     10 C           8.0156   39.7126    6.6468 C.3     1  UNL1        0.0219
     11 C           9.4821   39.9419    6.9990 C.3     1  UNL1        0.0094
     12 C           9.6436   40.0858    8.5129 C.3     1  UNL1        0.0617
     13 C           8.7841   41.2353    9.0402 C.3     1  UNL1        0.0993
     14 O           6.5391   41.5704   10.6985 O.2     1  UNL1       -0.2749
     15 N           7.4053   41.0745    8.5840 N.am    1  UNL1       -0.2791
     16 N          14.0945   41.6414    7.2926 N.pl3   1  UNL1       -0.2667
     17 H          13.8017   41.5573    6.3564 H       1  UNL1        0.1565
     18 C          15.3201   42.3526    7.5127 C.ar    1  UNL1        0.2218
     19 C          17.4989   42.4793    8.4315 C.ar    1  UNL1        0.1034
     20 C          17.6577   43.7611    7.9086 C.ar    1  UNL1        0.0414
     21 C          16.6049   44.3124    7.1808 C.ar    1  UNL1        0.1034
     22 N          16.3400   41.8012    8.2259 N.ar    1  UNL1       -0.2120
     23 N          15.4612   43.6027    6.9968 N.ar    1  UNL1       -0.2120
@<TRIPOS>BOND
     1     7     8    1
     2     8    15   am
     3     9    15    1
     4     9    10    1
     5    10    11    1
     6    11    12    1
     7    12    13    1
     8    12     1    1
     9    13    15    1
    10     1     6   ar
    11     2     5   ar
    12     3     4   ar
    13     4    16    1
    14    18    23   ar
    15    19    22   ar
    16    20    21   ar
    17    16    18    1
    18     8    14    2
    19     1     2   ar
    20     3     5   ar
    21     4     6   ar
    22    18    22   ar
    23    19    20   ar
    24    21    23   ar
    25    16    17    1
@<TRIPOS>MOLECULE
MolPort-020-275-220 MCULE-2387876618 PubChem-110252897
 23 25 0 0 0
SMALL
GASTEIGER

@<TRIPOS>ATOM
      1 C          14.6803   38.7333   10.1056 C.ar    1  UNL1        0.0808
      2 C          15.3739   37.5614   10.4325 C.ar    1  UNL1        0.1137
      3 C          17.4271   38.7234   10.2473 C.ar    1  UNL1        0.1332
      4 C          16.7407   39.8996    9.9195 C.ar    1  UNL1        0.1533
      5 N          16.7304   37.5837   10.4958 N.ar    1  UNL1       -0.2382
      6 N          15.3826   39.8705    9.8578 N.ar    1  UNL1       -0.2316
      7 C           9.0119   40.9240    8.6288 C.3     1  UNL1        0.0948
      8 C          10.4864   40.9608    8.8502 C.2     1  UNL1        0.2261
      9 C          10.6414   38.4586    8.5996 C.3     1  UNL1        0.0934
     10 C          11.1093   37.4214    9.6161 C.3     1  UNL1        0.0219
     11 C          12.6337   37.3801    9.6592 C.3     1  UNL1        0.0094
     12 C          13.1875   38.7583   10.0231 C.3     1  UNL1        0.0617
     13 C          12.7123   39.8121    9.0223 C.3     1  UNL1        0.0993
     14 O          11.0477   42.0773    9.0113 O.2     1  UNL1       -0.2749
     15 N          11.2583   39.7517    8.8901 N.am    1  UNL1       -0.2791
     16 N          17.4237   41.1316    9.6472 N.pl3   1  UNL1       -0.2667
     17 H          18.2201   41.3185   10.1951 H       1  UNL1        0.1565
     18 C          17.0798   42.1219    8.6688 C.ar    1  UNL1        0.2218
     19 C          17.5975   44.0784    7.4392 C.ar    1  UNL1        0.1034
     20 C          16.3724   44.0022    6.7796 C.ar    1  UNL1        0.0414
     21 C          15.5145   42.9517    7.0994 C.ar    1  UNL1        0.1034
     22 N          17.9283   43.1428    8.3668 N.ar    1  UNL1       -0.2120
     23 N          15.8811   42.0354    8.0331 N.ar    1  UNL1       -0.2120
@<TRIPOS>BOND
     1     7     8    1
     2     8    15   am
     3     9    15    1
     4     9    10    1
     5    10    11    1
     6    11    12    1
     7    12    13    1
     8    12     1    1
     9    13    15    1
    10     1     6   ar
    11     2     5   ar
    12     3     4   ar
    13     4    16    1
    14    18    23   ar
    15    19    22   ar
    16    20    21   ar
    17    16    18    1
    18     8    14    2
    19     1     2   ar
    20     3     5   ar
    21     4     6   ar
    22    18    22   ar
    23    19    20   ar
    24    21    23   ar
    25    16    17    1
@<TRIPOS>MOLECULE
MolPort-020-275-220 MCULE-2387876618 PubChem-110252897
 23 25 0 0 0
SMALL
GASTEIGER

@<TRIPOS>ATOM
      1 C          12.4004   40.2224    9.3524 C.ar    1  UNL1        0.0808
      2 C          12.3125   39.4594   10.5235 C.ar    1  UNL1        0.1137
      3 C          14.6707   39.4870   10.7201 C.ar    1  UNL1        0.1332
      4 C          14.7670   40.2502    9.5495 C.ar    1  UNL1        0.1533
      5 N          13.4490   39.1097   11.1798 N.ar    1  UNL1       -0.2382
      6 N          13.6253   40.5969    8.8972 N.ar    1  UNL1       -0.2316
      7 C           7.0369   39.5042    6.2174 C.3     1  UNL1        0.0948
      8 C           8.3313   39.1019    6.8397 C.2     1  UNL1        0.2261
      9 C           8.2974   41.1214    8.3459 C.3     1  UNL1        0.0934
     10 C           9.2945   42.2735    8.4256 C.3     1  UNL1        0.0219
     11 C          10.5176   41.8534    9.2350 C.3     1  UNL1        0.0094
     12 C          11.1778   40.6315    8.5949 C.3     1  UNL1        0.0617
     13 C          10.1847   39.4734    8.4923 C.3     1  UNL1        0.0993
     14 O           8.8718   38.0245    6.4725 O.2     1  UNL1       -0.2749
     15 N           8.9617   39.9248    7.8321 N.am    1  UNL1       -0.2791
     16 N          16.0295   40.6766    9.0178 N.pl3   1  UNL1       -0.2667
     17 H          16.7751   40.0392    9.1015 H       1  UNL1        0.1565
     18 C          16.3301   41.9245    8.3784 C.ar    1  UNL1        0.2218
     19 C          15.8010   43.6283    6.8212 C.ar    1  UNL1        0.1034
     20 C          16.9520   44.3280    7.1778 C.ar    1  UNL1        0.0414
     21 C          17.7803   43.7817    8.1563 C.ar    1  UNL1        0.1034
     22 N          15.5115   42.4458    7.4238 N.ar    1  UNL1       -0.2120
     23 N          17.4567   42.5965    8.7360 N.ar    1  UNL1       -0.2120
@<TRIPOS>BOND
     1     7     8    1
     2     8    15   am
     3     9    15    1
     4     9    10    1
     5    10    11    1
     6    11    12    1
     7    12    13    1
     8    12     1    1
     9    13    15    1
    10     1     6   ar
    11     2     5   ar
    12     3     4   ar
    13     4    16    1
    14    18    23   ar
    15    19    22   ar
    16    20    21   ar
    17    16    18    1
    18     8    14    2
    19     1     2   ar
    20     3     5   ar
    21     4     6   ar
    22    18    22   ar
    23    19    20   ar
    24    21    23   ar
    25    16    17    1
@<TRIPOS>MOLECULE
MolPort-020-275-220 MCULE-2387876618 PubChem-110252897
 23 25 0 0 0
SMALL
GASTEIGER

@<TRIPOS>ATOM
      1 C          12.2188   40.5011    9.7953 C.ar    1  UNL1        0.0808
      2 C          12.5418   39.7248   10.9153 C.ar    1  UNL1        0.1137
      3 C          14.8375   39.8799   10.3625 C.ar    1  UNL1        0.1332
      4 C          14.5227   40.6568    9.2403 C.ar    1  UNL1        0.1533
      5 N          13.8429   39.4324   11.1728 N.ar    1  UNL1       -0.2382
      6 N          13.2181   40.9459    8.9882 N.ar    1  UNL1       -0.2316
      7 C           7.2368   44.1652    8.8653 C.3     1  UNL1        0.0948
      8 C           8.6035   43.7940    9.3330 C.2     1  UNL1        0.2261
      9 C           8.7001   41.8763    7.7016 C.3     1  UNL1        0.0934
     10 C           8.8390   40.3836    7.9854 C.3     1  UNL1        0.0219
     11 C          10.2965   40.0385    8.2756 C.3     1  UNL1        0.0094
     12 C          10.8013   40.8489    9.4703 C.3     1  UNL1        0.0617
     13 C          10.6520   42.3477    9.2073 C.3     1  UNL1        0.0993
     14 O           9.1559   44.5034   10.2158 O.2     1  UNL1       -0.2749
     15 N           9.2808   42.6465    8.8002 N.am    1  UNL1       -0.2791
     16 N          15.5310   41.1561    8.3501 N.pl3   1  UNL1       -0.2667
     17 H          16.3635   40.6331    8.2976 H       1  UNL1        0.1565
     18 C          15.4657   42.3293    7.5281 C.ar    1  UNL1        0.2218
     19 C          16.3234   44.4320    6.8568 C.ar    1  UNL1        0.1034
     20 C          15.2967   44.5664    5.9244 C.ar    1  UNL1        0.0414
     21 C          14.3580   43.5413    5.8235 C.ar    1  UNL1        0.1034
     22 N          16.3900   43.3227    7.6379 N.ar    1  UNL1       -0.2120
     23 N          14.4584   42.4472    6.6225 N.ar    1  UNL1       -0.2120
@<TRIPOS>BOND
     1     7     8    1
     2     8    15   am
     3     9    15    1
     4     9    10    1
     5    10    11    1
     6    11    12    1
     7    12    13    1
     8    12     1    1
     9    13    15    1
    10     1     6   ar
    11     2     5   ar
    12     3     4   ar
    13     4    16    1
    14    18    23   ar
    15    19    22   ar
    16    20    21   ar
    17    16    18    1
    18     8    14    2
    19     1     2   ar
    20     3     5   ar
    21     4     6   ar
    22    18    22   ar
    23    19    20   ar
    24    21    23   ar
    25    16    17    1
@<TRIPOS>MOLECULE
MolPort-020-275-220 MCULE-2387876618 PubChem-110252897
 23 25 0 0 0
SMALL
GASTEIGER

@<TRIPOS>ATOM
      1 C          11.9878   41.2145    7.3285 C.ar    1  UNL1        0.0808
      2 C          11.3843   40.1096    6.7150 C.ar    1  UNL1        0.1137
      3 C           9.2776   40.7981    7.5444 C.ar    1  UNL1        0.1332
      4 C           9.8737   41.9056    8.1610 C.ar    1  UNL1        0.1533
      5 N          10.0439   39.9272    6.8371 N.ar    1  UNL1       -0.2382
      6 N          11.2161   42.0823    8.0349 N.ar    1  UNL1       -0.2316
      7 C          17.2527   44.1724    5.7030 C.3     1  UNL1        0.0948
      8 C          15.7985   43.8417    5.6843 C.2     1  UNL1        0.2261
      9 C          15.9473   42.8127    7.9793 C.3     1  UNL1        0.0934
     10 C          15.6661   41.3745    8.4042 C.3     1  UNL1        0.0219
     11 C          14.1632   41.1542    8.5462 C.3     1  UNL1        0.0094
     12 C          13.4594   41.4574    7.2228 C.3     1  UNL1        0.0617
     13 C          13.7467   42.8910    6.7752 C.3     1  UNL1        0.0993
     14 O          15.1099   44.1909    4.6886 O.2     1  UNL1       -0.2749
     15 N          15.1881   43.1309    6.7713 N.am    1  UNL1       -0.2791
     16 N           9.1144   42.8573    8.9201 N.pl3   1  UNL1       -0.2667
     17 H           9.6248   43.4267    9.5401 H       1  UNL1        0.1565
     18 C           7.6976   43.0746    8.8794 C.ar    1  UNL1        0.2218
     19 C           5.4991   42.4983    9.5445 C.ar    1  UNL1        0.1034
     20 C           4.9804   43.5326    8.7681 C.ar    1  UNL1        0.0414
     21 C           5.8701   44.3290    8.0497 C.ar    1  UNL1        0.1034
     22 N           6.8405   42.2882    9.5866 N.ar    1  UNL1       -0.2120
     23 N           7.2052   44.0874    8.1175 N.ar    1  UNL1       -0.2120
@<TRIPOS>BOND
     1     7     8    1
     2     8    15   am
     3     9    15    1
     4     9    10    1
     5    10    11    1
     6    11    12    1
     7    12    13    1
     8    12     1    1
     9    13    15    1
    10     1     6   ar
    11     2     5   ar
    12     3     4   ar
    13     4    16    1
    14    18    23   ar
    15    19    22   ar
    16    20    21   ar
    17    16    18    1
    18     8    14    2
    19     1     2   ar
    20     3     5   ar
    21     4     6   ar
    22    18    22   ar
    23    19    20   ar
    24    21    23   ar
    25    16    17    1
@<TRIPOS>MOLECULE
MolPort-020-275-220 MCULE-2387876618 PubChem-110252897
 23 25 0 0 0
SMALL
GASTEIGER

@<TRIPOS>ATOM
      1 C          12.1401   40.1114    8.9287 C.ar    1  UNL1        0.0808
      2 C          11.8964   39.6186   10.2168 C.ar    1  UNL1        0.1137
      3 C          14.2062   39.7643   10.7109 C.ar    1  UNL1        0.1332
      4 C          14.4581   40.2575    9.4243 C.ar    1  UNL1        0.1533
      5 N          12.9345   39.4567   11.0775 N.ar    1  UNL1       -0.2382
      6 N          13.4143   40.4173    8.5675 N.ar    1  UNL1       -0.2316
      7 C           7.1224   42.7999    6.3392 C.3     1  UNL1        0.0948
      8 C           8.1370   42.5078    7.3926 C.2     1  UNL1        0.2261
      9 C           9.7593   41.6464    5.6681 C.3     1  UNL1        0.0934
     10 C          10.3622   40.2513    5.5328 C.3     1  UNL1        0.0219
     11 C          11.5182   40.0823    6.5139 C.3     1  UNL1        0.0094
     12 C          11.0302   40.3064    7.9458 C.3     1  UNL1        0.0617
     13 C          10.4072   41.6950    8.0923 C.3     1  UNL1        0.0993
     14 O           7.8711   42.8014    8.5888 O.2     1  UNL1       -0.2749
     15 N           9.3916   41.8952    7.0609 N.am    1  UNL1       -0.2791
     16 N          15.7798   40.5987    8.9827 N.pl3   1  UNL1       -0.2667
     17 H          16.4685   39.9037    9.0917 H       1  UNL1        0.1565
     18 C          16.2131   41.8357    8.4009 C.ar    1  UNL1        0.2218
     19 C          15.8858   43.6414    6.9041 C.ar    1  UNL1        0.1034
     20 C          17.0894   44.2129    7.3119 C.ar    1  UNL1        0.0414
     21 C          17.8383   43.5522    8.2838 C.ar    1  UNL1        0.1034
     22 N          15.4707   42.4698    7.4521 N.ar    1  UNL1       -0.2120
     23 N          17.3896   42.3820    8.8081 N.ar    1  UNL1       -0.2120
@<TRIPOS>BOND
     1     7     8    1
     2     8    15   am
     3     9    15    1
     4     9    10    1
     5    10    11    1
     6    11    12    1
     7    12    13    1
     8    12     1    1
     9    13    15    1
    10     1     6   ar
    11     2     5   ar
    12     3     4   ar
    13     4    16    1
    14    18    23   ar
    15    19    22   ar
    16    20    21   ar
    17    16    18    1
    18     8    14    2
    19     1     2   ar
    20     3     5   ar
    21     4     6   ar
    22    18    22   ar
    23    19    20   ar
    24    21    23   ar
    25    16    17    1
