@<TRIPOS>MOLECULE
MolPort-016-717-567 19716929 MCULE-9371447986 PubChem-46974417 ZINC000019716929
 29 32 0 0 0
SMALL
GASTEIGER

@<TRIPOS>ATOM
      1 C          11.3669   41.6822    7.2020 C.2     1  UNL1        0.2704
      2 O          11.4939   42.0404    8.4039 O.2     1  UNL1       -0.2680
      3 N          12.4545   41.8571    6.2832 N.am    1  UNL1       -0.2593
      4 H          12.3006   41.5611    5.3569 H       1  UNL1        0.1571
      5 C          10.0770   41.0827    6.7699 C.ar    1  UNL1        0.1545
      6 C           7.5588   40.0776    6.1544 C.ar    1  UNL1        0.2763
      7 C           8.6472   39.7159    5.3522 C.ar    1  UNL1        0.0592
      8 C           8.4754   38.8587    4.2537 C.ar    1  UNL1        0.0048
      9 C           9.5648   38.5017    3.4580 C.ar    1  UNL1        0.0002
     10 C          10.8344   38.9979    3.7531 C.ar    1  UNL1        0.0001
     11 C          11.0149   39.8507    4.8436 C.ar    1  UNL1        0.0019
     12 C           9.9319   40.2224    5.6572 C.ar    1  UNL1        0.0285
     13 O           6.4036   39.6342    5.8985 O.2     1  UNL1       -0.2655
     14 N           8.9698   41.3871    7.5010 N.ar    1  UNL1       -0.1622
     15 N           7.7557   40.9140    7.2143 N.ar    1  UNL1       -0.2165
     16 C           6.6439   41.2970    8.0751 C.3     1  UNL1        0.1308
     17 C           6.3977   42.7907    7.9720 C.3     1  UNL1        0.0285
     18 C          16.8482   42.1558    8.3237 C.ar    1  UNL1        0.1566
     19 C          17.9776   43.0014    8.3438 C.ar    1  UNL1        0.0385
     20 C          18.0025   44.1860    7.5838 C.ar    1  UNL1        0.0037
     21 C          16.9028   44.5456    6.7908 C.ar    1  UNL1        0.0083
     22 C          15.7999   43.6970    6.7840 C.ar    1  UNL1        0.0527
     23 C          13.7413   42.4172    6.5718 C.ar    1  UNL1        0.1659
     24 C          15.7602   42.5264    7.5273 C.ar    1  UNL1        0.1230
     25 S          14.3604   43.8672    5.9409 S.2     1  UNL1       -0.0513
     26 N          14.6128   41.8090    7.4119 N.ar    1  UNL1       -0.2208
     27 O          16.7974   40.9698    9.0666 O.3     1  UNL1       -0.4739
     28 C          15.8585   39.2397   10.4657 C.3     1  UNL1        0.0512
     29 C          15.5802   40.3508    9.4698 C.3     1  UNL1        0.2056
@<TRIPOS>BOND
     1    28    29    1
     2    29    27    1
     3    18    27    1
     4    19    20   ar
     5    21    22   ar
     6    22    25   ar
     7    23    25   ar
     8    23     3    1
     9     1     5    1
    10    16    15    1
    11    16    17    1
    12     6     7   ar
    13     8     9   ar
    14    10    11   ar
    15    12     5   ar
    16    12     7   ar
    17    24    26   ar
    18    24    18   ar
    19     3     1   am
    20    15    14   ar
    21    15     6   ar
    22    18    19   ar
    23    20    21   ar
    24    23    26   ar
    25     1     2    2
    26     5    14   ar
    27     6    13    2
    28     7     8   ar
    29     9    10   ar
    30    11    12   ar
    31    24    22   ar
    32     3     4    1
@<TRIPOS>MOLECULE
MolPort-016-717-567 19716929 MCULE-9371447986 PubChem-46974417 ZINC000019716929
 29 32 0 0 0
SMALL
GASTEIGER

@<TRIPOS>ATOM
      1 C          11.1876   41.6237    7.4635 C.2     1  UNL1        0.2704
      2 O          11.3847   41.9705    8.6593 O.2     1  UNL1       -0.2680
      3 N          12.2216   41.8029    6.4856 N.am    1  UNL1       -0.2593
      4 H          12.0137   41.5159    5.5670 H       1  UNL1        0.1571
      5 C           9.8725   41.0331    7.1007 C.ar    1  UNL1        0.1545
      6 C           7.5253   39.8273    6.2251 C.ar    1  UNL1        0.2763
      7 C           7.4924   40.6117    7.3839 C.ar    1  UNL1        0.0592
      8 C           6.2956   40.7906    8.0955 C.ar    1  UNL1        0.0048
      9 C           6.2697   41.5741    9.2500 C.ar    1  UNL1        0.0002
     10 C           7.4387   42.1853    9.7027 C.ar    1  UNL1        0.0001
     11 C           8.6336   42.0133    9.0013 C.ar    1  UNL1        0.0019
     12 C           8.6814   41.2288    7.8372 C.ar    1  UNL1        0.0285
     13 O           6.4729   39.2690    5.8037 O.2     1  UNL1       -0.2655
     14 N           9.8224   40.2563    5.9840 N.ar    1  UNL1       -0.1622
     15 N           8.7034   39.6697    5.5552 N.ar    1  UNL1       -0.2165
     16 C           8.7651   38.8701    4.3384 C.3     1  UNL1        0.1308
     17 C           9.9783   39.2659    3.5176 C.3     1  UNL1        0.0285
     18 C          16.7095   42.0906    8.3112 C.ar    1  UNL1        0.1566
     19 C          17.8455   42.9265    8.2659 C.ar    1  UNL1        0.0385
     20 C          17.8440   44.1003    7.4891 C.ar    1  UNL1        0.0037
     21 C          16.7107   44.4588    6.7441 C.ar    1  UNL1        0.0083
     22 C          15.6019   43.6199    6.8014 C.ar    1  UNL1        0.0527
     23 C          13.5252   42.3555    6.7050 C.ar    1  UNL1        0.1659
     24 C          15.5880   42.4600    7.5622 C.ar    1  UNL1        0.1230
     25 S          14.1254   43.7913    6.0252 S.2     1  UNL1       -0.0513
     26 N          14.4306   41.7512    7.5113 N.ar    1  UNL1       -0.2208
     27 O          16.6844   40.9154    9.0723 O.3     1  UNL1       -0.4739
     28 C          15.7702   39.1511   10.4447 C.3     1  UNL1        0.0512
     29 C          15.4833   40.2358    9.4227 C.3     1  UNL1        0.2056
@<TRIPOS>BOND
     1    28    29    1
     2    29    27    1
     3    18    27    1
     4    19    20   ar
     5    21    22   ar
     6    22    25   ar
     7    23    25   ar
     8    23     3    1
     9     1     5    1
    10    16    15    1
    11    16    17    1
    12     6     7   ar
    13     8     9   ar
    14    10    11   ar
    15    12     5   ar
    16    12     7   ar
    17    24    26   ar
    18    24    18   ar
    19     3     1   am
    20    15    14   ar
    21    15     6   ar
    22    18    19   ar
    23    20    21   ar
    24    23    26   ar
    25     1     2    2
    26     5    14   ar
    27     6    13    2
    28     7     8   ar
    29     9    10   ar
    30    11    12   ar
    31    24    22   ar
    32     3     4    1
@<TRIPOS>MOLECULE
MolPort-016-717-567 19716929 MCULE-9371447986 PubChem-46974417 ZINC000019716929
 29 32 0 0 0
SMALL
GASTEIGER

@<TRIPOS>ATOM
      1 C          11.0151   42.5369    8.6860 C.2     1  UNL1        0.2704
      2 O          11.4870   43.2664    9.5993 O.2     1  UNL1       -0.2680
      3 N          11.8578   42.0990    7.6110 N.am    1  UNL1       -0.2593
      4 H          11.4374   41.5323    6.9244 H       1  UNL1        0.1571
      5 C           9.5815   42.1493    8.7533 C.ar    1  UNL1        0.1545
      6 C           6.8943   41.4459    8.6318 C.ar    1  UNL1        0.2763
      7 C           7.5207   41.5146    9.8816 C.ar    1  UNL1        0.0592
      8 C           6.8076   41.2347   11.0580 C.ar    1  UNL1        0.0048
      9 C           7.4380   41.3052   12.3009 C.ar    1  UNL1        0.0002
     10 C           8.7856   41.6560   12.3789 C.ar    1  UNL1        0.0001
     11 C           9.5029   41.9364   11.2143 C.ar    1  UNL1        0.0019
     12 C           8.8874   41.8712    9.9534 C.ar    1  UNL1        0.0285
     13 O           5.6737   41.1304    8.5475 O.2     1  UNL1       -0.2655
     14 N           8.9016   42.0608    7.5774 N.ar    1  UNL1       -0.1622
     15 N           7.6133   41.7214    7.5054 N.ar    1  UNL1       -0.2165
     16 C           6.9843   41.6713    6.1918 C.3     1  UNL1        0.1308
     17 C           6.5900   43.0686    5.7509 C.3     1  UNL1        0.0285
     18 C          16.6392   41.7870    8.3843 C.ar    1  UNL1        0.1566
     19 C          17.8498   42.3443    7.9207 C.ar    1  UNL1        0.0385
     20 C          17.8498   43.3243    6.9102 C.ar    1  UNL1        0.0037
     21 C          16.6433   43.7632    6.3450 C.ar    1  UNL1        0.0083
     22 C          15.4611   43.1996    6.8153 C.ar    1  UNL1        0.0527
     23 C          13.2471   42.3998    7.4313 C.ar    1  UNL1        0.1659
     24 C          15.4447   42.2331    7.8103 C.ar    1  UNL1        0.1230
     25 S          13.8885   43.5244    6.3323 S.2     1  UNL1       -0.0513
     26 N          14.2108   41.7840    8.1573 N.ar    1  UNL1       -0.2208
     27 O          16.6097   40.8082    9.3854 O.3     1  UNL1       -0.4739
     28 C          17.3933   39.0876   10.8877 C.3     1  UNL1        0.0512
     29 C          17.7360   40.0089    9.7313 C.3     1  UNL1        0.2056
@<TRIPOS>BOND
     1    28    29    1
     2    29    27    1
     3    18    27    1
     4    19    20   ar
     5    21    22   ar
     6    22    25   ar
     7    23    25   ar
     8    23     3    1
     9     1     5    1
    10    16    15    1
    11    16    17    1
    12     6     7   ar
    13     8     9   ar
    14    10    11   ar
    15    12     5   ar
    16    12     7   ar
    17    24    26   ar
    18    24    18   ar
    19     3     1   am
    20    15    14   ar
    21    15     6   ar
    22    18    19   ar
    23    20    21   ar
    24    23    26   ar
    25     1     2    2
    26     5    14   ar
    27     6    13    2
    28     7     8   ar
    29     9    10   ar
    30    11    12   ar
    31    24    22   ar
    32     3     4    1
@<TRIPOS>MOLECULE
MolPort-016-717-567 19716929 MCULE-9371447986 PubChem-46974417 ZINC000019716929
 29 32 0 0 0
SMALL
GASTEIGER

@<TRIPOS>ATOM
      1 C          12.8384   41.1835    7.8478 C.2     1  UNL1        0.2704
      2 O          12.5924   40.0109    7.4558 O.2     1  UNL1       -0.2680
      3 N          11.7610   42.0612    8.2033 N.am    1  UNL1       -0.2593
      4 H          12.0100   42.9658    8.5016 H       1  UNL1        0.1571
      5 C          14.2557   41.6245    7.9295 C.ar    1  UNL1        0.1545
      6 C          16.9428   42.2651    8.2447 C.ar    1  UNL1        0.2763
      7 C          16.1573   43.0429    7.3863 C.ar    1  UNL1        0.0592
      8 C          16.7124   44.1307    6.6940 C.ar    1  UNL1        0.0048
      9 C          15.9236   44.9023    5.8397 C.ar    1  UNL1        0.0002
     10 C          14.5741   44.5937    5.6702 C.ar    1  UNL1        0.0001
     11 C          14.0132   43.5139    6.3548 C.ar    1  UNL1        0.0019
     12 C          14.7895   42.7246    7.2192 C.ar    1  UNL1        0.0285
     13 O          18.1665   42.5348    8.4079 O.2     1  UNL1       -0.2655
     14 N          15.0848   40.9175    8.7454 N.ar    1  UNL1       -0.1622
     15 N          16.3764   41.2126    8.9029 N.ar    1  UNL1       -0.2165
     16 C          17.1663   40.3937    9.8134 C.3     1  UNL1        0.1308
     17 C          16.3126   39.2732   10.3775 C.3     1  UNL1        0.0285
     18 C           7.5616   40.5129    6.3261 C.ar    1  UNL1        0.1566
     19 C           6.2054   40.3614    6.6850 C.ar    1  UNL1        0.0385
     20 C           5.7545   40.7342    7.9653 C.ar    1  UNL1        0.0037
     21 C           6.6486   41.2624    8.9084 C.ar    1  UNL1        0.0083
     22 C           7.9817   41.4019    8.5347 C.ar    1  UNL1        0.0527
     23 C          10.3607   41.7599    8.1699 C.ar    1  UNL1        0.1659
     24 C           8.4413   41.0392    7.2770 C.ar    1  UNL1        0.1230
     25 S           9.2607   41.9959    9.4420 S.2     1  UNL1       -0.0513
     26 N           9.7687   41.2374    7.0691 N.ar    1  UNL1       -0.2208
     27 O           8.0384   40.1470    5.0612 O.3     1  UNL1       -0.4739
     28 C           9.6649   39.2542    3.5154 C.3     1  UNL1        0.0512
     29 C           8.9639   39.0856    4.8510 C.3     1  UNL1        0.2056
@<TRIPOS>BOND
     1    28    29    1
     2    29    27    1
     3    18    27    1
     4    19    20   ar
     5    21    22   ar
     6    22    25   ar
     7    23    25   ar
     8    23     3    1
     9     1     5    1
    10    16    15    1
    11    16    17    1
    12     6     7   ar
    13     8     9   ar
    14    10    11   ar
    15    12     5   ar
    16    12     7   ar
    17    24    26   ar
    18    24    18   ar
    19     3     1   am
    20    15    14   ar
    21    15     6   ar
    22    18    19   ar
    23    20    21   ar
    24    23    26   ar
    25     1     2    2
    26     5    14   ar
    27     6    13    2
    28     7     8   ar
    29     9    10   ar
    30    11    12   ar
    31    24    22   ar
    32     3     4    1
@<TRIPOS>MOLECULE
MolPort-016-717-567 19716929 MCULE-9371447986 PubChem-46974417 ZINC000019716929
 29 32 0 0 0
SMALL
GASTEIGER

@<TRIPOS>ATOM
      1 C          13.0727   41.0622    7.6390 C.2     1  UNL1        0.2704
      2 O          12.8999   39.8726    8.0185 O.2     1  UNL1       -0.2680
      3 N          11.9714   41.8121    7.1076 N.am    1  UNL1       -0.2593
      4 H          12.1627   42.7357    6.8255 H       1  UNL1        0.1571
      5 C          14.4302   41.6569    7.7553 C.ar    1  UNL1        0.1545
      6 C          17.0240   42.5851    8.1302 C.ar    1  UNL1        0.2763
      7 C          16.1658   43.2963    7.2836 C.ar    1  UNL1        0.0592
      8 C          16.6028   44.4609    6.6327 C.ar    1  UNL1        0.0048
      9 C          15.7420   45.1654    5.7900 C.ar    1  UNL1        0.0002
     10 C          14.4380   44.7126    5.5910 C.ar    1  UNL1        0.0001
     11 C          13.9945   43.5556    6.2343 C.ar    1  UNL1        0.0019
     12 C          14.8448   42.8317    7.0864 C.ar    1  UNL1        0.0285
     13 O          18.2075   42.9853    8.3200 O.2     1  UNL1       -0.2655
     14 N          15.3241   41.0222    8.5621 N.ar    1  UNL1       -0.1622
     15 N          16.5722   41.4555    8.7479 N.ar    1  UNL1       -0.2165
     16 C          17.4387   40.7023    9.6454 C.3     1  UNL1        0.1308
     17 C          16.6327   39.6500   10.3839 C.3     1  UNL1        0.0285
     18 C           7.2015   41.5590    7.9683 C.ar    1  UNL1        0.1566
     19 C           6.0535   40.8769    7.5124 C.ar    1  UNL1        0.0385
     20 C           6.1456   39.9248    6.4797 C.ar    1  UNL1        0.0037
     21 C           7.3831   39.6388    5.8842 C.ar    1  UNL1        0.0083
     22 C           8.5023   40.3238    6.3475 C.ar    1  UNL1        0.0527
     23 C          10.6222   41.3583    6.9444 C.ar    1  UNL1        0.1659
     24 C           8.4277   41.2646    7.3642 C.ar    1  UNL1        0.1230
     25 S          10.0920   40.1912    5.8307 S.2     1  UNL1       -0.0513
     26 N           9.6088   41.8445    7.7006 N.ar    1  UNL1       -0.2208
     27 O           7.1386   42.5135    8.9912 O.3     1  UNL1       -0.4739
     28 C           6.1336   44.6032    8.3168 C.3     1  UNL1        0.0512
     29 C           7.3939   43.8990    8.7850 C.3     1  UNL1        0.2056
@<TRIPOS>BOND
     1    28    29    1
     2    29    27    1
     3    18    27    1
     4    19    20   ar
     5    21    22   ar
     6    22    25   ar
     7    23    25   ar
     8    23     3    1
     9     1     5    1
    10    16    15    1
    11    16    17    1
    12     6     7   ar
    13     8     9   ar
    14    10    11   ar
    15    12     5   ar
    16    12     7   ar
    17    24    26   ar
    18    24    18   ar
    19     3     1   am
    20    15    14   ar
    21    15     6   ar
    22    18    19   ar
    23    20    21   ar
    24    23    26   ar
    25     1     2    2
    26     5    14   ar
    27     6    13    2
    28     7     8   ar
    29     9    10   ar
    30    11    12   ar
    31    24    22   ar
    32     3     4    1
@<TRIPOS>MOLECULE
MolPort-016-717-567 19716929 MCULE-9371447986 PubChem-46974417 ZINC000019716929
 29 32 0 0 0
SMALL
GASTEIGER

@<TRIPOS>ATOM
      1 C          10.5196   41.9920    8.0037 C.2     1  UNL1        0.2704
      2 O           9.9861   41.5775    6.9394 O.2     1  UNL1       -0.2680
      3 N           9.7313   42.6959    8.9737 N.am    1  UNL1       -0.2593
      4 H          10.1988   42.9981    9.7857 H       1  UNL1        0.1571
      5 C          11.9675   41.7351    8.2217 C.ar    1  UNL1        0.1545
      6 C          14.7198   41.4066    8.4380 C.ar    1  UNL1        0.2763
      7 C          13.8836   40.7153    9.3222 C.ar    1  UNL1        0.0592
      8 C          14.4211   39.8676   10.3037 C.ar    1  UNL1        0.0048
      9 C          13.5817   39.1811   11.1820 C.ar    1  UNL1        0.0002
     10 C          12.1989   39.3355   11.0870 C.ar    1  UNL1        0.0001
     11 C          11.6552   40.1762   10.1139 C.ar    1  UNL1        0.0019
     12 C          12.4823   40.8763    9.2201 C.ar    1  UNL1        0.0285
     13 O          15.9743   41.2745    8.5128 O.2     1  UNL1       -0.2655
     14 N          12.8464   42.3717    7.4000 N.ar    1  UNL1       -0.1622
     15 N          14.1690   42.2251    7.4955 N.ar    1  UNL1       -0.2165
     16 C          15.0141   42.9467    6.5528 C.3     1  UNL1        0.1308
     17 C          14.1769   43.9211    5.7452 C.3     1  UNL1        0.0285
     18 C           4.9543   42.0030    9.4806 C.ar    1  UNL1        0.1566
     19 C           3.7318   42.6599    9.2259 C.ar    1  UNL1        0.0385
     20 C           3.7113   43.9370    8.6343 C.ar    1  UNL1        0.0037
     21 C           4.9091   44.5800    8.2886 C.ar    1  UNL1        0.0083
     22 C           6.1036   43.9155    8.5498 C.ar    1  UNL1        0.0527
     23 C           8.3352   43.0054    8.8849 C.ar    1  UNL1        0.1659
     24 C           6.1402   42.6570    9.1321 C.ar    1  UNL1        0.1230
     25 S           7.6701   44.4326    8.2488 S.2     1  UNL1       -0.0513
     26 N           7.3839   42.1451    9.3209 N.ar    1  UNL1       -0.2208
     27 O           5.0046   40.7342   10.0712 O.3     1  UNL1       -0.4739
     28 C           3.5672   41.3723   11.9039 C.3     1  UNL1        0.0512
     29 C           4.0199   40.2554   10.9813 C.3     1  UNL1        0.2056
@<TRIPOS>BOND
     1    28    29    1
     2    29    27    1
     3    18    27    1
     4    19    20   ar
     5    21    22   ar
     6    22    25   ar
     7    23    25   ar
     8    23     3    1
     9     1     5    1
    10    16    15    1
    11    16    17    1
    12     6     7   ar
    13     8     9   ar
    14    10    11   ar
    15    12     5   ar
    16    12     7   ar
    17    24    26   ar
    18    24    18   ar
    19     3     1   am
    20    15    14   ar
    21    15     6   ar
    22    18    19   ar
    23    20    21   ar
    24    23    26   ar
    25     1     2    2
    26     5    14   ar
    27     6    13    2
    28     7     8   ar
    29     9    10   ar
    30    11    12   ar
    31    24    22   ar
    32     3     4    1
@<TRIPOS>MOLECULE
MolPort-016-717-567 19716929 MCULE-9371447986 PubChem-46974417 ZINC000019716929
 29 32 0 0 0
SMALL
GASTEIGER

@<TRIPOS>ATOM
      1 C           7.9152   41.5033    9.0928 C.2     1  UNL1        0.2704
      2 O           8.0649   40.4421    8.4290 O.2     1  UNL1       -0.2680
      3 N           9.0223   42.0579    9.8169 N.am    1  UNL1       -0.2593
      4 H           8.8493   42.8869   10.3190 H       1  UNL1        0.1571
      5 C           6.5785   42.1538    9.1042 C.ar    1  UNL1        0.1545
      6 C           4.1603   43.5160    8.9417 C.ar    1  UNL1        0.2763
      7 C           4.3046   42.5039    9.8976 C.ar    1  UNL1        0.0592
      8 C           3.2485   42.1786   10.7634 C.ar    1  UNL1        0.0048
      9 C           3.3991   41.1685   11.7143 C.ar    1  UNL1        0.0002
     10 C           4.6056   40.4753   11.8083 C.ar    1  UNL1        0.0001
     11 C           5.6616   40.7920   10.9516 C.ar    1  UNL1        0.0019
     12 C           5.5309   41.8051    9.9875 C.ar    1  UNL1        0.0285
     13 O           3.0727   44.1524    8.8471 O.2     1  UNL1       -0.2655
     14 N           6.3599   43.1498    8.2026 N.ar    1  UNL1       -0.1622
     15 N           5.2034   43.8089    8.1124 N.ar    1  UNL1       -0.2165
     16 C           5.0867   44.8668    7.1169 C.3     1  UNL1        0.1308
     17 C           3.7339   45.5439    7.2345 C.3     1  UNL1        0.0285
     18 C          13.5669   41.1793    8.3569 C.ar    1  UNL1        0.1566
     19 C          14.7352   40.5179    8.7915 C.ar    1  UNL1        0.0385
     20 C          14.7613   39.8406   10.0252 C.ar    1  UNL1        0.0037
     21 C          13.6240   39.8131   10.8458 C.ar    1  UNL1        0.0083
     22 C          12.4830   40.4730   10.3993 C.ar    1  UNL1        0.0527
     23 C          10.3534   41.5323    9.8862 C.ar    1  UNL1        0.1659
     24 C          12.4416   41.1446    9.1862 C.ar    1  UNL1        0.1230
     25 S          10.9942   40.6083   11.1588 S.2     1  UNL1       -0.0513
     26 N          11.2546   41.7374    8.8958 N.ar    1  UNL1       -0.2208
     27 O          13.5137   41.8638    7.1364 O.3     1  UNL1       -0.4739
     28 C          14.4459   43.5382    5.6669 C.3     1  UNL1        0.0512
     29 C          13.7913   43.2542    7.0065 C.3     1  UNL1        0.2056
@<TRIPOS>BOND
     1    28    29    1
     2    29    27    1
     3    18    27    1
     4    19    20   ar
     5    21    22   ar
     6    22    25   ar
     7    23    25   ar
     8    23     3    1
     9     1     5    1
    10    16    15    1
    11    16    17    1
    12     6     7   ar
    13     8     9   ar
    14    10    11   ar
    15    12     5   ar
    16    12     7   ar
    17    24    26   ar
    18    24    18   ar
    19     3     1   am
    20    15    14   ar
    21    15     6   ar
    22    18    19   ar
    23    20    21   ar
    24    23    26   ar
    25     1     2    2
    26     5    14   ar
    27     6    13    2
    28     7     8   ar
    29     9    10   ar
    30    11    12   ar
    31    24    22   ar
    32     3     4    1
@<TRIPOS>MOLECULE
MolPort-016-717-567 19716929 MCULE-9371447986 PubChem-46974417 ZINC000019716929
 29 32 0 0 0
SMALL
GASTEIGER

@<TRIPOS>ATOM
      1 C          12.2556   41.1177    8.3474 C.2     1  UNL1        0.2704
      2 O          11.8224   40.0210    7.9017 O.2     1  UNL1       -0.2680
      3 N          11.3462   42.0686    8.9186 N.am    1  UNL1       -0.2593
      4 H          11.7380   42.9087    9.2501 H       1  UNL1        0.1571
      5 C          13.7140   41.3938    8.2651 C.ar    1  UNL1        0.1545
      6 C          16.4726   41.7402    8.2896 C.ar    1  UNL1        0.2763
      7 C          15.7003   42.5148    7.4163 C.ar    1  UNL1        0.0592
      8 C          16.3043   43.4538    6.5652 C.ar    1  UNL1        0.0048
      9 C          15.5285   44.2231    5.6970 C.ar    1  UNL1        0.0002
     10 C          14.1435   44.0610    5.6722 C.ar    1  UNL1        0.0001
     11 C          13.5340   43.1299    6.5153 C.ar    1  UNL1        0.0019
     12 C          14.2964   42.3455    7.3965 C.ar    1  UNL1        0.0285
     13 O          17.7282   41.8781    8.3226 O.2     1  UNL1       -0.2655
     14 N          14.5331   40.6796    9.0848 N.ar    1  UNL1       -0.1622
     15 N          15.8582   40.8340    9.1039 N.ar    1  UNL1       -0.2165
     16 C          16.6350   40.0234   10.0329 C.3     1  UNL1        0.1308
     17 C          15.7077   39.1742   10.8822 C.3     1  UNL1        0.0285
     18 C           7.1045   41.5679   11.2238 C.ar    1  UNL1        0.1566
     19 C           5.7272   41.4444   10.9428 C.ar    1  UNL1        0.0385
     20 C           5.2614   41.4460    9.6145 C.ar    1  UNL1        0.0037
     21 C           6.1609   41.5722    8.5455 C.ar    1  UNL1        0.0083
     22 C           7.5144   41.6943    8.8446 C.ar    1  UNL1        0.0527
     23 C           9.9274   41.9243    9.0573 C.ar    1  UNL1        0.1659
     24 C           7.9889   41.6944   10.1481 C.ar    1  UNL1        0.1230
     25 S           8.8040   41.8591    7.7855 S.2     1  UNL1       -0.0513
     26 N           9.3353   41.8225   10.2715 N.ar    1  UNL1       -0.2208
     27 O           7.5954   41.5730   12.5354 O.3     1  UNL1       -0.4739
     28 C           9.0778   41.1520   14.3947 C.3     1  UNL1        0.0512
     29 C           8.8788   41.0703   12.8923 C.3     1  UNL1        0.2056
@<TRIPOS>BOND
     1    28    29    1
     2    29    27    1
     3    18    27    1
     4    19    20   ar
     5    21    22   ar
     6    22    25   ar
     7    23    25   ar
     8    23     3    1
     9     1     5    1
    10    16    15    1
    11    16    17    1
    12     6     7   ar
    13     8     9   ar
    14    10    11   ar
    15    12     5   ar
    16    12     7   ar
    17    24    26   ar
    18    24    18   ar
    19     3     1   am
    20    15    14   ar
    21    15     6   ar
    22    18    19   ar
    23    20    21   ar
    24    23    26   ar
    25     1     2    2
    26     5    14   ar
    27     6    13    2
    28     7     8   ar
    29     9    10   ar
    30    11    12   ar
    31    24    22   ar
    32     3     4    1
@<TRIPOS>MOLECULE
MolPort-016-717-567 19716929 MCULE-9371447986 PubChem-46974417 ZINC000019716929
 29 32 0 0 0
SMALL
GASTEIGER

@<TRIPOS>ATOM
      1 C           7.8237   41.2798    8.9714 C.2     1  UNL1        0.2704
      2 O           8.0728   40.4583    8.0482 O.2     1  UNL1       -0.2680
      3 N           8.8904   41.7919    9.7822 N.am    1  UNL1       -0.2593
      4 H           8.6392   42.4293   10.4893 H       1  UNL1        0.1571
      5 C           6.4139   41.6961    9.1930 C.ar    1  UNL1        0.1545
      6 C           3.7526   42.2747    9.7526 C.ar    1  UNL1        0.2763
      7 C           4.4649   43.1232    8.8972 C.ar    1  UNL1        0.0592
      8 C           3.8495   44.2491    8.3275 C.ar    1  UNL1        0.0048
      9 C           4.5653   45.0909    7.4752 C.ar    1  UNL1        0.0002
     10 C           5.9012   44.8148    7.1850 C.ar    1  UNL1        0.0001
     11 C           6.5215   43.6972    7.7466 C.ar    1  UNL1        0.0019
     12 C           5.8191   42.8372    8.6069 C.ar    1  UNL1        0.0285
     13 O           2.5415   42.5130   10.0228 O.2     1  UNL1       -0.2655
     14 N           5.6544   40.9205   10.0142 N.ar    1  UNL1       -0.1622
     15 N           4.3776   41.1889   10.2931 N.ar    1  UNL1       -0.2165
     16 C           3.6574   40.2804   11.1762 C.3     1  UNL1        0.1308
     17 C           3.1407   41.0341   12.3875 C.3     1  UNL1        0.0285
     18 C          13.3863   41.9574    7.9613 C.ar    1  UNL1        0.1566
     19 C          14.6652   41.4034    8.1821 C.ar    1  UNL1        0.0385
     20 C          14.8804   40.4853    9.2272 C.ar    1  UNL1        0.0037
     21 C          13.8248   40.1061   10.0695 C.ar    1  UNL1        0.0083
     22 C          12.5722   40.6654    9.8356 C.ar    1  UNL1        0.0527
     23 C          10.2829   41.4734    9.6714 C.ar    1  UNL1        0.1659
     24 C          12.3442   41.5712    8.8100 C.ar    1  UNL1        0.1230
     25 S          11.1422   40.4028   10.6711 S.2     1  UNL1       -0.0513
     26 N          11.0676   42.0247    8.7146 N.ar    1  UNL1       -0.2208
     27 O          13.1444   42.8754    6.9319 O.3     1  UNL1       -0.4739
     28 C          14.5084   44.4689    5.7351 C.3     1  UNL1        0.0512
     29 C          14.0065   43.0386    5.8106 C.3     1  UNL1        0.2056
@<TRIPOS>BOND
     1    28    29    1
     2    29    27    1
     3    18    27    1
     4    19    20   ar
     5    21    22   ar
     6    22    25   ar
     7    23    25   ar
     8    23     3    1
     9     1     5    1
    10    16    15    1
    11    16    17    1
    12     6     7   ar
    13     8     9   ar
    14    10    11   ar
    15    12     5   ar
    16    12     7   ar
    17    24    26   ar
    18    24    18   ar
    19     3     1   am
    20    15    14   ar
    21    15     6   ar
    22    18    19   ar
    23    20    21   ar
    24    23    26   ar
    25     1     2    2
    26     5    14   ar
    27     6    13    2
    28     7     8   ar
    29     9    10   ar
    30    11    12   ar
    31    24    22   ar
    32     3     4    1
@<TRIPOS>MOLECULE
MolPort-016-717-567 19716929 MCULE-9371447986 PubChem-46974417 ZINC000019716929
 29 32 0 0 0
SMALL
GASTEIGER

@<TRIPOS>ATOM
      1 C          12.5387   41.3881    8.4794 C.2     1  UNL1        0.2704
      2 O          12.1388   41.0306    7.3385 O.2     1  UNL1       -0.2680
      3 N          11.6853   42.1720    9.3249 N.am    1  UNL1       -0.2593
      4 H          12.0483   42.4244   10.2045 H       1  UNL1        0.1571
      5 C          13.8998   40.9807    8.9170 C.ar    1  UNL1        0.1545
      6 C          16.5344   40.3941    9.5838 C.ar    1  UNL1        0.2763
      7 C          15.5052   39.6481   10.1697 C.ar    1  UNL1        0.0592
      8 C          15.7936   38.6185   11.0794 C.ar    1  UNL1        0.0048
      9 C          14.7628   37.8784   11.6599 C.ar    1  UNL1        0.0002
     10 C          13.4359   38.1606   11.3363 C.ar    1  UNL1        0.0001
     11 C          13.1394   39.1825   10.4325 C.ar    1  UNL1        0.0019
     12 C          14.1619   39.9394    9.8370 C.ar    1  UNL1        0.0285
     13 O          17.7409   40.1478    9.8675 O.2     1  UNL1       -0.2655
     14 N          14.9555   41.6598    8.3905 N.ar    1  UNL1       -0.1622
     15 N          16.2238   41.3902    8.7045 N.ar    1  UNL1       -0.2165
     16 C          17.2748   42.1743    8.0686 C.3     1  UNL1        0.1308
     17 C          17.4440   43.4983    8.7903 C.3     1  UNL1        0.0285
     18 C           7.5224   42.4997    6.8511 C.ar    1  UNL1        0.1566
     19 C           6.2799   43.1663    6.9056 C.ar    1  UNL1        0.0385
     20 C           5.9916   44.0656    7.9495 C.ar    1  UNL1        0.0037
     21 C           6.9365   44.3134    8.9562 C.ar    1  UNL1        0.0083
     22 C           8.1547   43.6445    8.8845 C.ar    1  UNL1        0.0527
     23 C          10.3602   42.6263    9.0237 C.ar    1  UNL1        0.1659
     24 C           8.4536   42.7556    7.8623 C.ar    1  UNL1        0.1230
     25 S           9.4586   43.7406    9.9344 S.2     1  UNL1       -0.0513
     26 N           9.6839   42.1850    7.9362 N.ar    1  UNL1       -0.2208
     27 O           7.8346   41.5974    5.8267 O.3     1  UNL1       -0.4739
     28 C           6.5092   39.6152    6.2091 C.3     1  UNL1        0.0512
     29 C           7.9017   40.1882    6.0189 C.3     1  UNL1        0.2056
@<TRIPOS>BOND
     1    28    29    1
     2    29    27    1
     3    18    27    1
     4    19    20   ar
     5    21    22   ar
     6    22    25   ar
     7    23    25   ar
     8    23     3    1
     9     1     5    1
    10    16    15    1
    11    16    17    1
    12     6     7   ar
    13     8     9   ar
    14    10    11   ar
    15    12     5   ar
    16    12     7   ar
    17    24    26   ar
    18    24    18   ar
    19     3     1   am
    20    15    14   ar
    21    15     6   ar
    22    18    19   ar
    23    20    21   ar
    24    23    26   ar
    25     1     2    2
    26     5    14   ar
    27     6    13    2
    28     7     8   ar
    29     9    10   ar
    30    11    12   ar
    31    24    22   ar
    32     3     4    1
