@<TRIPOS>MOLECULE
MolPort-023-291-689 CSSS03437789222 MCULE-8771813306 PubChem-75538534
 27 29 0 0 0
SMALL
GASTEIGER

@<TRIPOS>ATOM
      1 C           7.8977   42.3026    9.0262 C.3     1  UNL1        0.2880
      2 C           7.6081   41.7218   10.4030 C.3     1  UNL1        0.0650
      3 C          10.1251   42.0207    7.8911 C.ar    1  UNL1        0.1542
      4 C          11.4826   42.3532    7.8605 C.ar    1  UNL1        0.0529
      5 C          12.3047   41.8882    6.8278 C.ar    1  UNL1        0.0537
      6 C          11.7524   41.0804    5.8216 C.ar    1  UNL1        0.0162
      7 C          10.3964   40.7429    5.8506 C.ar    1  UNL1        0.0190
      8 C           9.5845   41.2140    6.8850 C.ar    1  UNL1        0.0850
      9 C           7.3620   41.3551    7.9715 C.2     1  UNL1        0.2732
     10 O           9.3184   42.4941    8.9314 O.3     1  UNL1       -0.4618
     11 O           6.1505   41.0076    7.9914 O.2     1  UNL1       -0.2704
     12 N           8.2064   40.8647    6.9302 N.am    1  UNL1       -0.2783
     13 H           7.8304   40.2777    6.2350 H       1  UNL1        0.1551
     14 C          14.2748   43.4195    6.2321 C.2     1  UNL1        0.2842
     15 O          13.5628   44.2581    5.6177 O.2     1  UNL1       -0.2665
     16 N          13.6912   42.2544    6.8326 N.am    1  UNL1       -0.2778
     17 H          14.3071   41.6422    7.2965 H       1  UNL1        0.1553
     18 C          15.7209   43.6414    6.3326 C.ar    1  UNL1        0.1988
     19 C          16.4649   43.5621    7.4909 C.ar    1  UNL1        0.0455
     20 C          17.7614   43.8455    7.0982 C.ar    1  UNL1        0.0440
     21 C          17.7201   44.0773    5.7337 C.ar    1  UNL1        0.1798
     22 O          16.4847   43.9461    5.3146 O.2     1  UNL1       -0.4458
     23 C           7.2192   43.6374    8.8780 C.2     1  UNL1        0.3623
     24 O           7.8879   44.7050    8.9714 O.2     1  UNL1       -0.2457
     25 O           5.8347   43.6881    8.6994 O.3     1  UNL1       -0.4458
     26 C           3.8208   44.7954    8.0262 C.3     1  UNL1        0.0513
     27 C           5.2401   44.4308    7.6462 C.3     1  UNL1        0.2087
@<TRIPOS>BOND
     1    26    27    1
     2    27    25    1
     3    23    25    1
     4     1    23    1
     5     1     2    1
     6     1    10    1
     7     1     9    1
     8     3    10    1
     9     4     5   ar
    10     5    16    1
    11    14    18    1
    12    18    22   ar
    13    19    20   ar
    14    21    22   ar
    15     6     7   ar
    16     8    12    1
    17     8     3   ar
    18    16    14   am
    19    12     9   am
    20    23    24    2
    21     3     4   ar
    22     5     6   ar
    23    14    15    2
    24    18    19   ar
    25    20    21   ar
    26     7     8   ar
    27     9    11    2
    28    16    17    1
    29    12    13    1
@<TRIPOS>MOLECULE
MolPort-023-291-689 CSSS03437789222 MCULE-8771813306 PubChem-75538534
 27 29 0 0 0
SMALL
GASTEIGER

@<TRIPOS>ATOM
      1 C           9.5550   41.9567   10.6829 C.3     1  UNL1        0.2880
      2 C           8.8507   41.7628   12.0182 C.3     1  UNL1        0.0650
      3 C          11.5331   40.5638    9.9930 C.ar    1  UNL1        0.1542
      4 C          12.8822   40.2543   10.1890 C.ar    1  UNL1        0.0529
      5 C          13.5283   39.3344    9.3553 C.ar    1  UNL1        0.0537
      6 C          12.8062   38.7218    8.3192 C.ar    1  UNL1        0.0162
      7 C          11.4564   39.0261    8.1224 C.ar    1  UNL1        0.0190
      8 C          10.8218   39.9471    8.9591 C.ar    1  UNL1        0.0850
      9 C           8.7898   41.2064    9.6112 C.2     1  UNL1        0.2732
     10 O          10.9034   41.4854   10.8364 O.3     1  UNL1       -0.4618
     11 O           7.5635   41.4366    9.4324 O.2     1  UNL1       -0.2704
     12 N           9.4450   40.2529    8.7748 N.am    1  UNL1       -0.2783
     13 H           8.9377   39.8017    8.0619 H       1  UNL1        0.1551
     14 C          15.4543   38.1912   10.6061 C.2     1  UNL1        0.2842
     15 O          14.6999   37.5930   11.4190 O.2     1  UNL1       -0.2665
     16 N          14.9136   39.0468    9.5891 N.am    1  UNL1       -0.2778
     17 H          15.5614   39.4820    8.9890 H       1  UNL1        0.1553
     18 C          16.9059   38.0075   10.7044 C.ar    1  UNL1        0.1988
     19 C          17.8492   39.0073   10.5947 C.ar    1  UNL1        0.0455
     20 C          19.0649   38.3651   10.7527 C.ar    1  UNL1        0.0440
     21 C          18.7818   37.0237   10.9470 C.ar    1  UNL1        0.1798
     22 O          17.4825   36.8511   10.9113 O.2     1  UNL1       -0.4458
     23 C           9.5915   43.4185   10.3283 C.2     1  UNL1        0.3623
     24 O          10.6934   43.9879   10.0887 O.2     1  UNL1       -0.2457
     25 O           8.4047   44.1552   10.3279 O.3     1  UNL1       -0.4458
     26 C           6.8272   44.5601    8.5722 C.3     1  UNL1        0.0513
     27 C           8.0756   45.0486    9.2754 C.3     1  UNL1        0.2087
@<TRIPOS>BOND
     1    26    27    1
     2    27    25    1
     3    23    25    1
     4     1    23    1
     5     1     2    1
     6     1    10    1
     7     1     9    1
     8     3    10    1
     9     4     5   ar
    10     5    16    1
    11    14    18    1
    12    18    22   ar
    13    19    20   ar
    14    21    22   ar
    15     6     7   ar
    16     8    12    1
    17     8     3   ar
    18    16    14   am
    19    12     9   am
    20    23    24    2
    21     3     4   ar
    22     5     6   ar
    23    14    15    2
    24    18    19   ar
    25    20    21   ar
    26     7     8   ar
    27     9    11    2
    28    16    17    1
    29    12    13    1
@<TRIPOS>MOLECULE
MolPort-023-291-689 CSSS03437789222 MCULE-8771813306 PubChem-75538534
 27 29 0 0 0
SMALL
GASTEIGER

@<TRIPOS>ATOM
      1 C          16.6804   42.9276    8.0486 C.3     1  UNL1        0.2880
      2 C          17.3389   44.1382    8.6949 C.3     1  UNL1        0.0650
      3 C          14.1852   42.7319    7.7944 C.ar    1  UNL1        0.1542
      4 C          12.9475   42.5524    8.4191 C.ar    1  UNL1        0.0529
      5 C          11.7770   42.4467    7.6592 C.ar    1  UNL1        0.0537
      6 C          11.8574   42.5252    6.2601 C.ar    1  UNL1        0.0162
      7 C          13.0926   42.7081    5.6321 C.ar    1  UNL1        0.0190
      8 C          14.2548   42.8106    6.4000 C.ar    1  UNL1        0.0850
      9 C          16.7119   43.0976    6.5429 C.2     1  UNL1        0.2732
     10 O          15.3448   42.8361    8.5700 O.3     1  UNL1       -0.4618
     11 O          17.8078   43.2961    5.9525 O.2     1  UNL1       -0.2704
     12 N          15.5146   43.0102    5.7705 N.am    1  UNL1       -0.2783
     13 H          15.5613   43.0891    4.7902 H       1  UNL1        0.1551
     14 C          10.3216   41.5865    9.5887 C.2     1  UNL1        0.2842
     15 O          11.2869   41.0763   10.2177 O.2     1  UNL1       -0.2665
     16 N          10.5282   42.2609    8.3392 N.am    1  UNL1       -0.2778
     17 H           9.7290   42.6353    7.9030 H       1  UNL1        0.1553
     18 C           8.9686   41.4873   10.1454 C.ar    1  UNL1        0.1988
     19 C           8.6573   41.4213   11.4871 C.ar    1  UNL1        0.0455
     20 C           7.2763   41.3388   11.5259 C.ar    1  UNL1        0.0440
     21 C           6.8414   41.3599   10.2114 C.ar    1  UNL1        0.1798
     22 O           7.8814   41.4491    9.4180 O.2     1  UNL1       -0.4458
     23 C          17.4300   41.6763    8.4177 C.2     1  UNL1        0.3623
     24 O          17.1175   41.0305    9.4573 O.2     1  UNL1       -0.2457
     25 O          18.5144   41.2695    7.6366 O.3     1  UNL1       -0.4458
     26 C          19.6353   39.1539    7.5869 C.3     1  UNL1        0.0513
     27 C          19.6045   40.5444    8.1846 C.3     1  UNL1        0.2087
@<TRIPOS>BOND
     1    26    27    1
     2    27    25    1
     3    23    25    1
     4     1    23    1
     5     1     2    1
     6     1    10    1
     7     1     9    1
     8     3    10    1
     9     4     5   ar
    10     5    16    1
    11    14    18    1
    12    18    22   ar
    13    19    20   ar
    14    21    22   ar
    15     6     7   ar
    16     8    12    1
    17     8     3   ar
    18    16    14   am
    19    12     9   am
    20    23    24    2
    21     3     4   ar
    22     5     6   ar
    23    14    15    2
    24    18    19   ar
    25    20    21   ar
    26     7     8   ar
    27     9    11    2
    28    16    17    1
    29    12    13    1
@<TRIPOS>MOLECULE
MolPort-023-291-689 CSSS03437789222 MCULE-8771813306 PubChem-75538534
 27 29 0 0 0
SMALL
GASTEIGER

@<TRIPOS>ATOM
      1 C           7.8365   41.3286    6.6165 C.3     1  UNL1        0.2880
      2 C           6.9829   42.5114    6.1815 C.3     1  UNL1        0.0650
      3 C          10.1855   41.6102    7.4721 C.ar    1  UNL1        0.1542
      4 C          11.5148   41.9314    7.1820 C.ar    1  UNL1        0.0529
      5 C          12.5014   41.8316    8.1695 C.ar    1  UNL1        0.0537
      6 C          12.1423   41.4070    9.4583 C.ar    1  UNL1        0.0162
      7 C          10.8138   41.0883    9.7530 C.ar    1  UNL1        0.0190
      8 C           9.8373   41.1898    8.7595 C.ar    1  UNL1        0.0850
      9 C           7.4764   40.9619    8.0423 C.2     1  UNL1        0.2732
     10 O           9.2124   41.7164    6.4727 O.3     1  UNL1       -0.4618
     11 O           6.2809   40.7008    8.3446 O.2     1  UNL1       -0.2704
     12 N           8.4805   40.8804    9.0537 N.am    1  UNL1       -0.2783
     13 H           8.2309   40.6068    9.9659 H       1  UNL1        0.1551
     14 C          14.2806   43.1555    6.8801 C.2     1  UNL1        0.2842
     15 O          13.4426   43.8409    6.2354 O.2     1  UNL1       -0.2665
     16 N          13.8533   42.1684    7.8297 N.am    1  UNL1       -0.2778
     17 H          14.5623   41.6702    8.2969 H       1  UNL1        0.1553
     18 C          15.7131   43.3731    6.6535 C.ar    1  UNL1        0.1988
     19 C          16.7225   43.0425    7.5329 C.ar    1  UNL1        0.0455
     20 C          17.8879   43.4307    6.8952 C.ar    1  UNL1        0.0440
     21 C          17.5117   43.9691    5.6762 C.ar    1  UNL1        0.1798
     22 O          16.2060   43.9165    5.5699 O.2     1  UNL1       -0.4458
     23 C           7.5715   40.1471    5.7233 C.2     1  UNL1        0.3623
     24 O           6.6815   39.3047    6.0296 O.2     1  UNL1       -0.2457
     25 O           8.3600   39.9552    4.5863 O.3     1  UNL1       -0.4458
     26 C           9.5375   38.5166    3.0767 C.3     1  UNL1        0.0513
     27 C           9.3446   38.9352    4.5186 C.3     1  UNL1        0.2087
@<TRIPOS>BOND
     1    26    27    1
     2    27    25    1
     3    23    25    1
     4     1    23    1
     5     1     2    1
     6     1    10    1
     7     1     9    1
     8     3    10    1
     9     4     5   ar
    10     5    16    1
    11    14    18    1
    12    18    22   ar
    13    19    20   ar
    14    21    22   ar
    15     6     7   ar
    16     8    12    1
    17     8     3   ar
    18    16    14   am
    19    12     9   am
    20    23    24    2
    21     3     4   ar
    22     5     6   ar
    23    14    15    2
    24    18    19   ar
    25    20    21   ar
    26     7     8   ar
    27     9    11    2
    28    16    17    1
    29    12    13    1
@<TRIPOS>MOLECULE
MolPort-023-291-689 CSSS03437789222 MCULE-8771813306 PubChem-75538534
 27 29 0 0 0
SMALL
GASTEIGER

@<TRIPOS>ATOM
      1 C           7.3026   41.6283    7.3658 C.3     1  UNL1        0.2880
      2 C           6.5115   41.3729    8.6408 C.3     1  UNL1        0.0650
      3 C           9.7850   41.2445    7.2260 C.ar    1  UNL1        0.1542
      4 C          11.0646   41.6566    7.6096 C.ar    1  UNL1        0.0529
      5 C          12.1999   41.0191    7.0962 C.ar    1  UNL1        0.0537
      6 C          12.0410   39.9574    6.1919 C.ar    1  UNL1        0.0162
      7 C          10.7633   39.5403    5.8087 C.ar    1  UNL1        0.0190
      8 C           9.6371   40.1848    6.3258 C.ar    1  UNL1        0.0850
      9 C           7.1740   40.4211    6.4586 C.2     1  UNL1        0.2732
     10 O           8.6615   41.8930    7.7497 O.3     1  UNL1       -0.4618
     11 O           6.0337   40.0024    6.1222 O.2     1  UNL1       -0.2704
     12 N           8.3326   39.7585    5.9519 N.am    1  UNL1       -0.2783
     13 H           8.2274   38.9974    5.3364 H       1  UNL1        0.1551
     14 C          14.3078   42.4630    6.8667 C.2     1  UNL1        0.2842
     15 O          13.9164   43.0388    5.8164 O.2     1  UNL1       -0.2665
     16 N          13.4940   41.4742    7.5138 N.am    1  UNL1       -0.2778
     17 H          13.8627   41.0654    8.3300 H       1  UNL1        0.1553
     18 C          15.6149   42.8115    7.4326 C.ar    1  UNL1        0.1988
     19 C          16.3317   43.9548    7.1488 C.ar    1  UNL1        0.0455
     20 C          17.4844   43.8467    7.9070 C.ar    1  UNL1        0.0440
     21 C          17.3927   42.6505    8.5985 C.ar    1  UNL1        0.1798
     22 O          16.2627   42.0624    8.2881 O.2     1  UNL1       -0.4458
     23 C           6.7570   42.8372    6.6554 C.2     1  UNL1        0.3623
     24 O           6.6740   42.8512    5.3950 O.2     1  UNL1       -0.2457
     25 O           6.4021   43.9672    7.3961 O.3     1  UNL1       -0.4458
     26 C           7.8032   44.9943    9.0444 C.3     1  UNL1        0.0513
     27 C           6.6424   44.0560    8.7921 C.3     1  UNL1        0.2087
@<TRIPOS>BOND
     1    26    27    1
     2    27    25    1
     3    23    25    1
     4     1    23    1
     5     1     2    1
     6     1    10    1
     7     1     9    1
     8     3    10    1
     9     4     5   ar
    10     5    16    1
    11    14    18    1
    12    18    22   ar
    13    19    20   ar
    14    21    22   ar
    15     6     7   ar
    16     8    12    1
    17     8     3   ar
    18    16    14   am
    19    12     9   am
    20    23    24    2
    21     3     4   ar
    22     5     6   ar
    23    14    15    2
    24    18    19   ar
    25    20    21   ar
    26     7     8   ar
    27     9    11    2
    28    16    17    1
    29    12    13    1
@<TRIPOS>MOLECULE
MolPort-023-291-689 CSSS03437789222 MCULE-8771813306 PubChem-75538534
 27 29 0 0 0
SMALL
GASTEIGER

@<TRIPOS>ATOM
      1 C          10.0396   42.4077    9.3111 C.3     1  UNL1        0.2880
      2 C           9.9518   43.8082    9.9006 C.3     1  UNL1        0.0650
      3 C          11.9947   40.8862    9.7492 C.ar    1  UNL1        0.1542
      4 C          13.3485   40.6143    9.5308 C.ar    1  UNL1        0.0529
      5 C          13.9288   39.4455   10.0364 C.ar    1  UNL1        0.0537
      6 C          13.1371   38.5474   10.7691 C.ar    1  UNL1        0.0162
      7 C          11.7841   38.8175   10.9926 C.ar    1  UNL1        0.0190
      8 C          11.2146   39.9862   10.4818 C.ar    1  UNL1        0.0850
      9 C           9.2434   41.4576   10.1830 C.2     1  UNL1        0.2732
     10 O          11.4316   42.0598    9.2367 O.3     1  UNL1       -0.4618
     11 O           8.0295   41.6925   10.4283 O.2     1  UNL1       -0.2704
     12 N           9.8418   40.2760   10.7156 N.am    1  UNL1       -0.2783
     13 H           9.2979   39.6543   11.2511 H       1  UNL1        0.1551
     14 C          16.2923   38.7295   10.7307 C.2     1  UNL1        0.2842
     15 O          15.9703   38.4760   11.9222 O.2     1  UNL1       -0.2665
     16 N          15.3202   39.2035    9.7878 N.am    1  UNL1       -0.2778
     17 H          15.6421   39.3811    8.8745 H       1  UNL1        0.1553
     18 C          17.6823   38.5359   10.3054 C.ar    1  UNL1        0.1988
     19 C          18.4129   37.3764   10.4586 C.ar    1  UNL1        0.0455
     20 C          19.6525   37.6653    9.9151 C.ar    1  UNL1        0.0440
     21 C          19.5939   38.9750    9.4696 C.ar    1  UNL1        0.1798
     22 O          18.4018   39.4596    9.7208 O.2     1  UNL1       -0.4458
     23 C           9.4642   42.3979    7.9208 C.2     1  UNL1        0.3623
     24 O           8.3772   42.9937    7.6778 O.2     1  UNL1       -0.2457
     25 O          10.1083   41.6724    6.9159 O.3     1  UNL1       -0.4458
     26 C           9.9255   39.2888    7.0574 C.3     1  UNL1        0.0513
     27 C           9.5107   40.5373    6.3085 C.3     1  UNL1        0.2087
@<TRIPOS>BOND
     1    26    27    1
     2    27    25    1
     3    23    25    1
     4     1    23    1
     5     1     2    1
     6     1    10    1
     7     1     9    1
     8     3    10    1
     9     4     5   ar
    10     5    16    1
    11    14    18    1
    12    18    22   ar
    13    19    20   ar
    14    21    22   ar
    15     6     7   ar
    16     8    12    1
    17     8     3   ar
    18    16    14   am
    19    12     9   am
    20    23    24    2
    21     3     4   ar
    22     5     6   ar
    23    14    15    2
    24    18    19   ar
    25    20    21   ar
    26     7     8   ar
    27     9    11    2
    28    16    17    1
    29    12    13    1
@<TRIPOS>MOLECULE
MolPort-023-291-689 CSSS03437789222 MCULE-8771813306 PubChem-75538534
 27 29 0 0 0
SMALL
GASTEIGER

@<TRIPOS>ATOM
      1 C          10.0929   40.9023    7.6729 C.3     1  UNL1        0.2880
      2 C           9.4472   40.3397    8.9311 C.3     1  UNL1        0.0650
      3 C          11.0131   39.4222    5.8586 C.ar    1  UNL1        0.1542
      4 C          12.0047   38.5191    5.4642 C.ar    1  UNL1        0.0529
      5 C          12.0359   38.0256    4.1550 C.ar    1  UNL1        0.0537
      6 C          11.0580   38.4451    3.2397 C.ar    1  UNL1        0.0162
      7 C          10.0630   39.3452    3.6313 C.ar    1  UNL1        0.0190
      8 C          10.0422   39.8329    4.9400 C.ar    1  UNL1        0.0850
      9 C           9.0045   41.2591    6.6804 C.2     1  UNL1        0.2732
     10 O          10.9971   39.9047    7.1717 O.3     1  UNL1       -0.4618
     11 O           8.0763   42.0432    7.0158 O.2     1  UNL1       -0.2704
     12 N           9.0257   40.7388    5.3512 N.am    1  UNL1       -0.2783
     13 H           8.3283   41.0103    4.7115 H       1  UNL1        0.1551
     14 C          14.0662   36.5405    4.6584 C.2     1  UNL1        0.2842
     15 O          14.1024   36.8382    5.8823 O.2     1  UNL1       -0.2665
     16 N          13.0713   37.1027    3.7908 N.am    1  UNL1       -0.2778
     17 H          13.1027   36.8259    2.8465 H       1  UNL1        0.1553
     18 C          15.0575   35.6054    4.1169 C.ar    1  UNL1        0.1988
     19 C          15.0956   34.2486    4.3602 C.ar    1  UNL1        0.0455
     20 C          16.1903   33.7922    3.6470 C.ar    1  UNL1        0.0440
     21 C          16.7428   34.8964    3.0202 C.ar    1  UNL1        0.1798
     22 O          16.0381   35.9591    3.3257 O.2     1  UNL1       -0.4458
     23 C          10.8780   42.1415    8.0078 C.2     1  UNL1        0.3623
     24 O          10.5986   42.8120    9.0411 O.2     1  UNL1       -0.2457
     25 O          11.8761   42.5793    7.1340 O.3     1  UNL1       -0.4458
     26 C          14.0431   41.6211    7.4816 C.3     1  UNL1        0.0513
     27 C          13.1916   42.8688    7.5812 C.3     1  UNL1        0.2087
@<TRIPOS>BOND
     1    26    27    1
     2    27    25    1
     3    23    25    1
     4     1    23    1
     5     1     2    1
     6     1    10    1
     7     1     9    1
     8     3    10    1
     9     4     5   ar
    10     5    16    1
    11    14    18    1
    12    18    22   ar
    13    19    20   ar
    14    21    22   ar
    15     6     7   ar
    16     8    12    1
    17     8     3   ar
    18    16    14   am
    19    12     9   am
    20    23    24    2
    21     3     4   ar
    22     5     6   ar
    23    14    15    2
    24    18    19   ar
    25    20    21   ar
    26     7     8   ar
    27     9    11    2
    28    16    17    1
    29    12    13    1
@<TRIPOS>MOLECULE
MolPort-023-291-689 CSSS03437789222 MCULE-8771813306 PubChem-75538534
 27 29 0 0 0
SMALL
GASTEIGER

@<TRIPOS>ATOM
      1 C          14.8148   38.6684   10.4460 C.3     1  UNL1        0.2880
      2 C          14.7507   38.6817   11.9666 C.3     1  UNL1        0.0650
      3 C          13.5167   40.2955    9.0329 C.ar    1  UNL1        0.1542
      4 C          12.2682   40.7138    8.5633 C.ar    1  UNL1        0.0529
      5 C          12.1712   41.7577    7.6362 C.ar    1  UNL1        0.0537
      6 C          13.3425   42.3842    7.1828 C.ar    1  UNL1        0.0162
      7 C          14.5924   41.9711    7.6526 C.ar    1  UNL1        0.0190
      8 C          14.6779   40.9270    8.5765 C.ar    1  UNL1        0.0850
      9 C          16.0466   39.4306   10.0002 C.2     1  UNL1        0.2732
     10 O          13.5946   39.2507    9.9599 O.3     1  UNL1       -0.4618
     11 O          17.1839   39.1011   10.4326 O.2     1  UNL1       -0.2704
     12 N          15.9445   40.5088    9.0703 N.am    1  UNL1       -0.2783
     13 H          16.7606   40.9685    8.7671 H       1  UNL1        0.1551
     14 C           9.6279   41.9931    7.8759 C.2     1  UNL1        0.2842
     15 O           9.5882   41.4560    9.0151 O.2     1  UNL1       -0.2665
     16 N          10.8714   42.1544    7.1784 N.am    1  UNL1       -0.2778
     17 H          10.8277   42.5821    6.2928 H       1  UNL1        0.1553
     18 C           8.3826   42.4590    7.2575 C.ar    1  UNL1        0.1988
     19 C           7.5178   43.3871    7.7983 C.ar    1  UNL1        0.0455
     20 C           6.4989   43.5044    6.8691 C.ar    1  UNL1        0.0440
     21 C           6.8100   42.6440    5.8297 C.ar    1  UNL1        0.1798
     22 O           7.9414   42.0386    6.0994 O.2     1  UNL1       -0.4458
     23 C          14.9062   37.2518    9.9474 C.2     1  UNL1        0.3623
     24 O          15.4811   36.9986    8.8515 O.2     1  UNL1       -0.2457
     25 O          14.2955   36.2270   10.6742 O.3     1  UNL1       -0.4458
     26 C          11.9082   36.1476   10.5026 C.3     1  UNL1        0.0513
     27 C          13.2154   35.4726   10.1463 C.3     1  UNL1        0.2087
@<TRIPOS>BOND
     1    26    27    1
     2    27    25    1
     3    23    25    1
     4     1    23    1
     5     1     2    1
     6     1    10    1
     7     1     9    1
     8     3    10    1
     9     4     5   ar
    10     5    16    1
    11    14    18    1
    12    18    22   ar
    13    19    20   ar
    14    21    22   ar
    15     6     7   ar
    16     8    12    1
    17     8     3   ar
    18    16    14   am
    19    12     9   am
    20    23    24    2
    21     3     4   ar
    22     5     6   ar
    23    14    15    2
    24    18    19   ar
    25    20    21   ar
    26     7     8   ar
    27     9    11    2
    28    16    17    1
    29    12    13    1
@<TRIPOS>MOLECULE
MolPort-023-291-689 CSSS03437789222 MCULE-8771813306 PubChem-75538534
 27 29 0 0 0
SMALL
GASTEIGER

@<TRIPOS>ATOM
      1 C           6.3329   42.9140    7.7931 C.3     1  UNL1        0.2880
      2 C           6.0542   43.1479    6.3151 C.3     1  UNL1        0.0650
      3 C           8.6672   42.6562    8.6952 C.ar    1  UNL1        0.1542
      4 C           9.8179   41.8666    8.7784 C.ar    1  UNL1        0.0529
      5 C          10.8954   42.2637    9.5784 C.ar    1  UNL1        0.0537
      6 C          10.8106   43.4667   10.2965 C.ar    1  UNL1        0.0162
      7 C           9.6632   44.2604   10.2131 C.ar    1  UNL1        0.0190
      8 C           8.5929   43.8538    9.4130 C.ar    1  UNL1        0.0850
      9 C           6.3184   44.2481    8.5122 C.2     1  UNL1        0.2732
     10 O           7.6000   42.2438    7.8900 O.3     1  UNL1       -0.4618
     11 O           5.3100   44.9996    8.4287 O.2     1  UNL1       -0.2704
     12 N           7.4266   44.6617    9.3114 N.am    1  UNL1       -0.2783
     13 H           7.3831   45.5163    9.7981 H       1  UNL1        0.1551
     14 C          12.3605   40.4476   10.6444 C.2     1  UNL1        0.2842
     15 O          11.5774   40.2468   11.6109 O.2     1  UNL1       -0.2665
     16 N          12.0561   41.4237    9.6377 N.am    1  UNL1       -0.2778
     17 H          12.7129   41.5276    8.9117 H       1  UNL1        0.1553
     18 C          13.6003   39.6700   10.5507 C.ar    1  UNL1        0.1988
     19 C          14.2004   38.9907   11.5899 C.ar    1  UNL1        0.0455
     20 C          15.3285   38.4154   11.0314 C.ar    1  UNL1        0.0440
     21 C          15.3396   38.7812    9.6960 C.ar    1  UNL1        0.1798
     22 O          14.2918   39.5296    9.4485 O.2     1  UNL1       -0.4458
     23 C           5.2706   42.0264    8.3826 C.2     1  UNL1        0.3623
     24 O           5.4120   40.7712    8.3719 O.2     1  UNL1       -0.2457
     25 O           4.0988   42.5978    8.8843 O.3     1  UNL1       -0.4458
     26 C           3.1948   42.0354   11.0295 C.3     1  UNL1        0.0513
     27 C           3.1033   41.8219    9.5336 C.3     1  UNL1        0.2087
@<TRIPOS>BOND
     1    26    27    1
     2    27    25    1
     3    23    25    1
     4     1    23    1
     5     1     2    1
     6     1    10    1
     7     1     9    1
     8     3    10    1
     9     4     5   ar
    10     5    16    1
    11    14    18    1
    12    18    22   ar
    13    19    20   ar
    14    21    22   ar
    15     6     7   ar
    16     8    12    1
    17     8     3   ar
    18    16    14   am
    19    12     9   am
    20    23    24    2
    21     3     4   ar
    22     5     6   ar
    23    14    15    2
    24    18    19   ar
    25    20    21   ar
    26     7     8   ar
    27     9    11    2
    28    16    17    1
    29    12    13    1
@<TRIPOS>MOLECULE
MolPort-023-291-689 CSSS03437789222 MCULE-8771813306 PubChem-75538534
 27 29 0 0 0
SMALL
GASTEIGER

@<TRIPOS>ATOM
      1 C          14.7683   38.7262   10.5122 C.3     1  UNL1        0.2880
      2 C          15.3674   38.7167   11.9113 C.3     1  UNL1        0.0650
      3 C          12.5997   39.8886    9.9876 C.ar    1  UNL1        0.1542
      4 C          11.2096   39.9117   10.1339 C.ar    1  UNL1        0.0529
      5 C          10.4421   40.8794    9.4757 C.ar    1  UNL1        0.0537
      6 C          11.0833   41.8308    8.6671 C.ar    1  UNL1        0.0162
      7 C          12.4732   41.8130    8.5212 C.ar    1  UNL1        0.0190
      8 C          13.2295   40.8417    9.1812 C.ar    1  UNL1        0.0850
      9 C          15.4281   39.8251    9.7034 C.2     1  UNL1        0.2732
     10 O          13.3510   38.9143   10.6535 O.3     1  UNL1       -0.4618
     11 O          16.6823   39.8532    9.5812 O.2     1  UNL1       -0.2704
     12 N          14.6456   40.8240    9.0494 N.am    1  UNL1       -0.2783
     13 H          15.0915   41.5090    8.5005 H       1  UNL1        0.1551
     14 C           8.2477   41.7397   10.4884 C.2     1  UNL1        0.2842
     15 O           8.8038   42.6385   11.1743 O.2     1  UNL1       -0.2665
     16 N           9.0189   40.8665    9.6508 N.am    1  UNL1       -0.2778
     17 H           8.5185   40.1874    9.1431 H       1  UNL1        0.1553
     18 C           6.7905   41.5872   10.5498 C.ar    1  UNL1        0.1988
     19 C           5.9439   41.5341    9.4626 C.ar    1  UNL1        0.0455
     20 C           4.6797   41.3864   10.0059 C.ar    1  UNL1        0.0440
     21 C           4.8404   41.3595   11.3810 C.ar    1  UNL1        0.1798
     22 O           6.1144   41.4821   11.6654 O.2     1  UNL1       -0.4458
     23 C          15.0154   37.4039    9.8380 C.2     1  UNL1        0.3623
     24 O          15.6082   37.3588    8.7235 O.2     1  UNL1       -0.2457
     25 O          14.5285   36.2328   10.4234 O.3     1  UNL1       -0.4458
     26 C          12.1983   35.7031   10.5810 C.3     1  UNL1        0.0513
     27 C          13.4902   35.4707    9.8270 C.3     1  UNL1        0.2087
@<TRIPOS>BOND
     1    26    27    1
     2    27    25    1
     3    23    25    1
     4     1    23    1
     5     1     2    1
     6     1    10    1
     7     1     9    1
     8     3    10    1
     9     4     5   ar
    10     5    16    1
    11    14    18    1
    12    18    22   ar
    13    19    20   ar
    14    21    22   ar
    15     6     7   ar
    16     8    12    1
    17     8     3   ar
    18    16    14   am
    19    12     9   am
    20    23    24    2
    21     3     4   ar
    22     5     6   ar
    23    14    15    2
    24    18    19   ar
    25    20    21   ar
    26     7     8   ar
    27     9    11    2
    28    16    17    1
    29    12    13    1
