@<TRIPOS>MOLECULE
MolPort-010-852-332 41076400 ChemDiv-G952-3119 MCULE-5099997512 PubChem-52095932 ZINC000041076400 ZINC41076400
 22 24 0 0 0
SMALL
GASTEIGER

@<TRIPOS>ATOM
      1 C          17.2210   41.8953    8.6775 C.ar    1  UNL1        0.1643
      2 C          16.2006   43.2009    7.3871 C.ar    1  UNL1        0.2195
      3 C          14.0421   42.2321    7.2297 C.ar    1  UNL1        0.1882
      4 N          18.0872   42.8786    8.3101 N.ar    1  UNL1       -0.1310
      5 N          17.4387   43.7136    7.4878 N.ar    1  UNL1       -0.1202
      6 N          14.8660   41.5153    8.0458 N.ar    1  UNL1       -0.1399
      7 N          16.0458   42.1118    8.0879 N.ar    1  UNL1       -0.1881
      8 S          14.8140   43.6281    6.5521 S.2     1  UNL1       -0.0111
      9 C          11.6615   41.6454    7.9710 C.2     1  UNL1        0.2509
     10 N          12.6890   41.8286    6.9869 N.am    1  UNL1       -0.2592
     11 O          11.9013   41.8394    9.1935 O.2     1  UNL1       -0.2698
     12 H          12.4391   41.6600    6.0497 H       1  UNL1        0.1571
     13 C          10.3132   41.2263    7.5492 C.ar    1  UNL1        0.0538
     14 C           9.2094   41.4414    8.3877 C.ar    1  UNL1        0.0050
     15 C           7.9300   41.0443    7.9886 C.ar    1  UNL1        0.0068
     16 C           7.7448   40.4290    6.7477 C.ar    1  UNL1        0.0346
     17 C           8.8384   40.2105    5.9059 C.ar    1  UNL1        0.0068
     18 C          10.1180   40.6076    6.3049 C.ar    1  UNL1        0.0050
     19 BR          6.0010   39.8877    6.2038 Br      1  UNL1       -0.0490
     20 C          17.5417   40.7412    9.5694 C.3     1  UNL1        0.0677
     21 C          16.5328   38.5189   10.0930 C.3     1  UNL1        0.0005
     22 C          16.2782   40.0113    9.9953 C.3     1  UNL1        0.0080
@<TRIPOS>BOND
     1    21    22    1
     2    22    20    1
     3    20     1    1
     4     2     8   ar
     5     3     8   ar
     6     3    10    1
     7     9    13    1
     8    14    15   ar
     9    16    19    1
    10    16    17   ar
    11    18    13   ar
    12     4     5   ar
    13    10     9   am
    14     7     6   ar
    15     7     1   ar
    16     7     2   ar
    17     1     4   ar
    18     2     5   ar
    19     3     6   ar
    20     9    11    2
    21    13    14   ar
    22    15    16   ar
    23    17    18   ar
    24    10    12    1
@<TRIPOS>MOLECULE
MolPort-010-852-332 41076400 ChemDiv-G952-3119 MCULE-5099997512 PubChem-52095932 ZINC000041076400 ZINC41076400
 22 24 0 0 0
SMALL
GASTEIGER

@<TRIPOS>ATOM
      1 C           3.9665   42.9418    9.2735 C.ar    1  UNL1        0.1643
      2 C           5.5797   44.0742    8.5483 C.ar    1  UNL1        0.2195
      3 C           7.4518   42.6783    8.9598 C.ar    1  UNL1        0.1882
      4 N           3.4713   44.1210    8.8082 N.ar    1  UNL1       -0.1310
      5 N           4.4980   44.8450    8.3439 N.ar    1  UNL1       -0.1202
      6 N           6.2850   42.1019    9.3662 N.ar    1  UNL1       -0.1399
      7 N           5.2883   42.9314    9.1053 N.ar    1  UNL1       -0.1881
      8 S           7.2210   44.2515    8.2702 S.2     1  UNL1       -0.0111
      9 C           9.8826   42.5367    9.7548 C.2     1  UNL1        0.2509
     10 N           8.7113   42.0130    9.1132 N.am    1  UNL1       -0.2592
     11 O           9.8772   43.6936   10.2561 O.2     1  UNL1       -0.2698
     12 H           8.7799   41.1043    8.7405 H       1  UNL1        0.1571
     13 C          11.1036   41.7150    9.8285 C.ar    1  UNL1        0.0538
     14 C          11.2576   40.7644   10.8485 C.ar    1  UNL1        0.0050
     15 C          12.4154   39.9843   10.9193 C.ar    1  UNL1        0.0068
     16 C          13.4280   40.1492    9.9706 C.ar    1  UNL1        0.0346
     17 C          13.2833   41.0937    8.9511 C.ar    1  UNL1        0.0068
     18 C          12.1255   41.8738    8.8801 C.ar    1  UNL1        0.0050
     19 BR         15.0060   39.0861   10.0672 Br      1  UNL1       -0.0490
     20 C           3.1659   41.8489    9.9020 C.3     1  UNL1        0.0677
     21 C           3.9680   40.1907   11.5864 C.3     1  UNL1        0.0005
     22 C           4.0158   40.6092   10.1290 C.3     1  UNL1        0.0080
@<TRIPOS>BOND
     1    21    22    1
     2    22    20    1
     3    20     1    1
     4     2     8   ar
     5     3     8   ar
     6     3    10    1
     7     9    13    1
     8    14    15   ar
     9    16    19    1
    10    16    17   ar
    11    18    13   ar
    12     4     5   ar
    13    10     9   am
    14     7     6   ar
    15     7     1   ar
    16     7     2   ar
    17     1     4   ar
    18     2     5   ar
    19     3     6   ar
    20     9    11    2
    21    13    14   ar
    22    15    16   ar
    23    17    18   ar
    24    10    12    1
@<TRIPOS>MOLECULE
MolPort-010-852-332 41076400 ChemDiv-G952-3119 MCULE-5099997512 PubChem-52095932 ZINC000041076400 ZINC41076400
 22 24 0 0 0
SMALL
GASTEIGER

@<TRIPOS>ATOM
      1 C           4.7836   42.7212    9.0205 C.ar    1  UNL1        0.1643
      2 C           6.4103   44.0427    8.8851 C.ar    1  UNL1        0.2195
      3 C           8.2608   42.6904    9.4929 C.ar    1  UNL1        0.1882
      4 N           4.3012   43.9382    8.6483 N.ar    1  UNL1       -0.1310
      5 N           5.3369   44.7829    8.5601 N.ar    1  UNL1       -0.1202
      6 N           7.0889   41.9940    9.5167 N.ar    1  UNL1       -0.1399
      7 N           6.1053   42.8063    9.1668 N.ar    1  UNL1       -0.1881
      8 S           8.0499   44.3475    9.0311 S.2     1  UNL1       -0.0111
      9 C          10.5306   41.6561    8.9104 C.2     1  UNL1        0.2509
     10 N           9.5088   42.0716    9.8276 N.am    1  UNL1       -0.2592
     11 O          10.3837   41.8189    7.6688 O.2     1  UNL1       -0.2698
     12 H           9.6829   41.9157   10.7840 H       1  UNL1        0.1571
     13 C          11.7632   41.0330    9.4241 C.ar    1  UNL1        0.0538
     14 C          12.9671   41.1532    8.7142 C.ar    1  UNL1        0.0050
     15 C          14.1370   40.5626    9.2006 C.ar    1  UNL1        0.0068
     16 C          14.1116   39.8473   10.4007 C.ar    1  UNL1        0.0346
     17 C          12.9170   39.7223   11.1146 C.ar    1  UNL1        0.0068
     18 C          11.7470   40.3129   10.6284 C.ar    1  UNL1        0.0050
     19 BR         15.7060   39.0424   11.0636 Br      1  UNL1       -0.0490
     20 C           3.9639   41.4959    9.2597 C.3     1  UNL1        0.0677
     21 C           3.4058   41.8938   11.6598 C.3     1  UNL1        0.0005
     22 C           2.8477   41.7701   10.2545 C.3     1  UNL1        0.0080
@<TRIPOS>BOND
     1    21    22    1
     2    22    20    1
     3    20     1    1
     4     2     8   ar
     5     3     8   ar
     6     3    10    1
     7     9    13    1
     8    14    15   ar
     9    16    19    1
    10    16    17   ar
    11    18    13   ar
    12     4     5   ar
    13    10     9   am
    14     7     6   ar
    15     7     1   ar
    16     7     2   ar
    17     1     4   ar
    18     2     5   ar
    19     3     6   ar
    20     9    11    2
    21    13    14   ar
    22    15    16   ar
    23    17    18   ar
    24    10    12    1
@<TRIPOS>MOLECULE
MolPort-010-852-332 41076400 ChemDiv-G952-3119 MCULE-5099997512 PubChem-52095932 ZINC000041076400 ZINC41076400
 22 24 0 0 0
SMALL
GASTEIGER

@<TRIPOS>ATOM
      1 C          15.9330   38.6430   10.5228 C.ar    1  UNL1        0.1643
      2 C          17.3485   37.1302   10.1784 C.ar    1  UNL1        0.2195
      3 C          16.5275   36.0506    8.2334 C.ar    1  UNL1        0.1882
      4 N          16.8713   38.7194   11.5057 N.ar    1  UNL1       -0.1310
      5 N          17.7761   37.7562   11.2880 N.ar    1  UNL1       -0.1202
      6 N          15.7293   37.0866    8.6187 N.ar    1  UNL1       -0.1399
      7 N          16.2465   37.6406    9.7028 N.ar    1  UNL1       -0.1881
      8 S          17.8948   35.8307    9.2754 S.2     1  UNL1       -0.0111
      9 C          17.1630   34.6052    6.2166 C.2     1  UNL1        0.2509
     10 N          16.2214   35.2548    7.0821 N.am    1  UNL1       -0.2592
     11 O          18.4022   34.7018    6.4279 O.2     1  UNL1       -0.2698
     12 H          15.2682   35.1423    6.8628 H       1  UNL1        0.1571
     13 C          16.6774   33.8178    5.0695 C.ar    1  UNL1        0.0538
     14 C          15.7953   32.7454    5.2685 C.ar    1  UNL1        0.0050
     15 C          15.3340   31.9979    4.1811 C.ar    1  UNL1        0.0068
     16 C          15.7515   32.3173    2.8864 C.ar    1  UNL1        0.0346
     17 C          16.6301   33.3838    2.6786 C.ar    1  UNL1        0.0068
     18 C          17.0915   34.1314    3.7659 C.ar    1  UNL1        0.0050
     19 BR         15.1230   31.2985    1.4044 Br      1  UNL1       -0.0490
     20 C          14.7284   39.5171   10.3994 C.3     1  UNL1        0.0677
     21 C          12.3626   38.7487   10.6055 C.3     1  UNL1        0.0005
     22 C          13.6352   39.0811   11.3614 C.3     1  UNL1        0.0080
@<TRIPOS>BOND
     1    21    22    1
     2    22    20    1
     3    20     1    1
     4     2     8   ar
     5     3     8   ar
     6     3    10    1
     7     9    13    1
     8    14    15   ar
     9    16    19    1
    10    16    17   ar
    11    18    13   ar
    12     4     5   ar
    13    10     9   am
    14     7     6   ar
    15     7     1   ar
    16     7     2   ar
    17     1     4   ar
    18     2     5   ar
    19     3     6   ar
    20     9    11    2
    21    13    14   ar
    22    15    16   ar
    23    17    18   ar
    24    10    12    1
@<TRIPOS>MOLECULE
MolPort-010-852-332 41076400 ChemDiv-G952-3119 MCULE-5099997512 PubChem-52095932 ZINC000041076400 ZINC41076400
 22 24 0 0 0
SMALL
GASTEIGER

@<TRIPOS>ATOM
      1 C          15.1334   41.0378    8.7808 C.ar    1  UNL1        0.1643
      2 C          13.6026   39.9252    9.6916 C.ar    1  UNL1        0.2195
      3 C          11.6419   41.1307    9.1217 C.ar    1  UNL1        0.1882
      4 N          15.7100   39.9879    9.4269 N.ar    1  UNL1       -0.1310
      5 N          14.7358   39.2758   10.0080 N.ar    1  UNL1       -0.1202
      6 N          12.7646   41.7069    8.6056 N.ar    1  UNL1       -0.1399
      7 N          13.8141   40.9839    8.9598 N.ar    1  UNL1       -0.1881
      8 S          11.9804   39.6989   10.0377 S.2     1  UNL1       -0.0111
      9 C           9.3406   41.9417    9.9006 C.2     1  UNL1        0.2509
     10 N          10.3419   41.6923    8.9042 N.am    1  UNL1       -0.2592
     11 O           9.5554   41.6622   11.1111 O.2     1  UNL1       -0.2698
     12 H          10.1127   41.9311    7.9771 H       1  UNL1        0.1571
     13 C           8.0485   42.5300    9.5057 C.ar    1  UNL1        0.0538
     14 C           8.0033   43.7811    8.8728 C.ar    1  UNL1        0.0050
     15 C           6.7782   44.3400    8.4976 C.ar    1  UNL1        0.0068
     16 C           5.5890   43.6520    8.7527 C.ar    1  UNL1        0.0346
     17 C           5.6244   42.4053    9.3828 C.ar    1  UNL1        0.0068
     18 C           6.8494   41.8462    9.7580 C.ar    1  UNL1        0.0050
     19 BR          3.9193   44.4138    8.2416 Br      1  UNL1       -0.0490
     20 C          15.8607   42.0986    8.0218 C.3     1  UNL1        0.0677
     21 C          17.7824   43.6862    8.1519 C.3     1  UNL1        0.0005
     22 C          17.2388   42.3471    8.6132 C.3     1  UNL1        0.0080
@<TRIPOS>BOND
     1    21    22    1
     2    22    20    1
     3    20     1    1
     4     2     8   ar
     5     3     8   ar
     6     3    10    1
     7     9    13    1
     8    14    15   ar
     9    16    19    1
    10    16    17   ar
    11    18    13   ar
    12     4     5   ar
    13    10     9   am
    14     7     6   ar
    15     7     1   ar
    16     7     2   ar
    17     1     4   ar
    18     2     5   ar
    19     3     6   ar
    20     9    11    2
    21    13    14   ar
    22    15    16   ar
    23    17    18   ar
    24    10    12    1
@<TRIPOS>MOLECULE
MolPort-010-852-332 41076400 ChemDiv-G952-3119 MCULE-5099997512 PubChem-52095932 ZINC000041076400 ZINC41076400
 22 24 0 0 0
SMALL
GASTEIGER

@<TRIPOS>ATOM
      1 C          11.3154   41.3968    6.4083 C.ar    1  UNL1        0.1643
      2 C           9.6796   40.2238    5.8089 C.ar    1  UNL1        0.2195
      3 C           7.9815   40.8328    7.3478 C.ar    1  UNL1        0.1882
      4 N          11.7118   40.6403    5.3487 N.ar    1  UNL1       -0.1310
      5 N          10.6700   39.8918    4.9635 N.ar    1  UNL1       -0.1202
      6 N           9.1443   41.5069    7.5762 N.ar    1  UNL1       -0.1399
      7 N          10.0413   41.1206    6.6841 N.ar    1  UNL1       -0.1881
      8 S           8.0909   39.7359    6.0104 S.2     1  UNL1       -0.0111
      9 C           6.8010   41.4248    9.5424 C.2     1  UNL1        0.2509
     10 N           6.8201   41.0423    8.1600 N.am    1  UNL1       -0.2592
     11 O           7.8773   41.6116   10.1720 O.2     1  UNL1       -0.2698
     12 H           5.9466   40.9104    7.7254 H       1  UNL1        0.1571
     13 C           5.5113   41.6010   10.2333 C.ar    1  UNL1        0.0538
     14 C           4.6218   42.6071    9.8280 C.ar    1  UNL1        0.0050
     15 C           3.3981   42.7751   10.4826 C.ar    1  UNL1        0.0068
     16 C           3.0549   41.9381   11.5476 C.ar    1  UNL1        0.0346
     17 C           3.9348   40.9333   11.9583 C.ar    1  UNL1        0.0068
     18 C           5.1585   40.7652   11.3038 C.ar    1  UNL1        0.0050
     19 BR          1.3873   42.1670   12.4398 Br      1  UNL1       -0.0490
     20 C          12.1755   42.3564    7.1631 C.3     1  UNL1        0.0677
     21 C          14.5484   41.7438    7.6362 C.3     1  UNL1        0.0005
     22 C          13.5973   42.3563    6.6255 C.3     1  UNL1        0.0080
@<TRIPOS>BOND
     1    21    22    1
     2    22    20    1
     3    20     1    1
     4     2     8   ar
     5     3     8   ar
     6     3    10    1
     7     9    13    1
     8    14    15   ar
     9    16    19    1
    10    16    17   ar
    11    18    13   ar
    12     4     5   ar
    13    10     9   am
    14     7     6   ar
    15     7     1   ar
    16     7     2   ar
    17     1     4   ar
    18     2     5   ar
    19     3     6   ar
    20     9    11    2
    21    13    14   ar
    22    15    16   ar
    23    17    18   ar
    24    10    12    1
@<TRIPOS>MOLECULE
MolPort-010-852-332 41076400 ChemDiv-G952-3119 MCULE-5099997512 PubChem-52095932 ZINC000041076400 ZINC41076400
 22 24 0 0 0
SMALL
GASTEIGER

@<TRIPOS>ATOM
      1 C           9.0018   42.8872   11.7720 C.ar    1  UNL1        0.1643
      2 C           8.4663   43.7992    9.9575 C.ar    1  UNL1        0.2195
      3 C           8.8340   42.0865    8.3594 C.ar    1  UNL1        0.1882
      4 N           8.6268   44.1669   12.0442 N.ar    1  UNL1       -0.1310
      5 N           8.2836   44.7508   10.8886 N.ar    1  UNL1       -0.1202
      6 N           9.1269   41.6755    9.6259 N.ar    1  UNL1       -0.1399
      7 N           8.8977   42.6758   10.4605 N.ar    1  UNL1       -0.1881
      8 S           8.2862   43.7295    8.2946 S.2     1  UNL1       -0.0111
      9 C          10.2186   40.8089    6.6241 C.2     1  UNL1        0.2509
     10 N           8.9846   41.2139    7.2331 N.am    1  UNL1       -0.2592
     11 O          11.3220   41.2246    7.0707 O.2     1  UNL1       -0.2698
     12 H           8.1574   40.8560    6.8370 H       1  UNL1        0.1571
     13 C          10.1966   39.8985    5.4655 C.ar    1  UNL1        0.0538
     14 C          11.3962   39.4649    4.8820 C.ar    1  UNL1        0.0050
     15 C          11.3764   38.6013    3.7829 C.ar    1  UNL1        0.0068
     16 C          10.1567   38.1650    3.2591 C.ar    1  UNL1        0.0346
     17 C           8.9567   38.5919    3.8338 C.ar    1  UNL1        0.0068
     18 C           8.9763   39.4554    4.9329 C.ar    1  UNL1        0.0050
     19 BR         10.1297   36.9881    1.7612 Br      1  UNL1       -0.0490
     20 C           9.4844   41.8898   12.7733 C.3     1  UNL1        0.0677
     21 C           7.2212   41.0425   12.1488 C.3     1  UNL1        0.0005
     22 C           8.4280   40.8306   13.0432 C.3     1  UNL1        0.0080
@<TRIPOS>BOND
     1    21    22    1
     2    22    20    1
     3    20     1    1
     4     2     8   ar
     5     3     8   ar
     6     3    10    1
     7     9    13    1
     8    14    15   ar
     9    16    19    1
    10    16    17   ar
    11    18    13   ar
    12     4     5   ar
    13    10     9   am
    14     7     6   ar
    15     7     1   ar
    16     7     2   ar
    17     1     4   ar
    18     2     5   ar
    19     3     6   ar
    20     9    11    2
    21    13    14   ar
    22    15    16   ar
    23    17    18   ar
    24    10    12    1
@<TRIPOS>MOLECULE
MolPort-010-852-332 41076400 ChemDiv-G952-3119 MCULE-5099997512 PubChem-52095932 ZINC000041076400 ZINC41076400
 22 24 0 0 0
SMALL
GASTEIGER

@<TRIPOS>ATOM
      1 C          14.6826   39.5473   10.6988 C.ar    1  UNL1        0.1643
      2 C          14.3038   40.7406    9.0125 C.ar    1  UNL1        0.2195
      3 C          11.9769   41.1714    9.1635 C.ar    1  UNL1        0.1882
      4 N          15.8557   39.7019   10.0263 N.ar    1  UNL1       -0.1310
      5 N          15.6173   40.4636    8.9507 N.ar    1  UNL1       -0.1202
      6 N          12.4220   40.3992   10.1952 N.ar    1  UNL1       -0.1399
      7 N          13.7216   40.2020   10.0480 N.ar    1  UNL1       -0.1881
      8 S          13.2363   41.6032    8.0539 S.2     1  UNL1       -0.0111
      9 C          10.0167   42.7852    9.5013 C.2     1  UNL1        0.2509
     10 N          10.6010   41.5546    9.0516 N.am    1  UNL1       -0.2592
     11 O          10.7246   43.6649   10.0622 O.2     1  UNL1       -0.2698
     12 H           9.9951   40.9079    8.6228 H       1  UNL1        0.1571
     13 C           8.5756   43.0232    9.3059 C.ar    1  UNL1        0.0538
     14 C           7.6511   41.9906    9.5218 C.ar    1  UNL1        0.0050
     15 C           6.2838   42.2154    9.3369 C.ar    1  UNL1        0.0068
     16 C           5.8310   43.4746    8.9346 C.ar    1  UNL1        0.0346
     17 C           6.7447   44.5092    8.7171 C.ar    1  UNL1        0.0068
     18 C           8.1120   44.2846    8.9020 C.ar    1  UNL1        0.0050
     19 BR          3.9676   43.7809    8.6825 Br      1  UNL1       -0.0490
     20 C          14.4926   38.7469   11.9452 C.3     1  UNL1        0.0677
     21 C          13.2185   36.8346   10.9707 C.3     1  UNL1        0.0005
     22 C          14.5096   37.2566   11.6463 C.3     1  UNL1        0.0080
@<TRIPOS>BOND
     1    21    22    1
     2    22    20    1
     3    20     1    1
     4     2     8   ar
     5     3     8   ar
     6     3    10    1
     7     9    13    1
     8    14    15   ar
     9    16    19    1
    10    16    17   ar
    11    18    13   ar
    12     4     5   ar
    13    10     9   am
    14     7     6   ar
    15     7     1   ar
    16     7     2   ar
    17     1     4   ar
    18     2     5   ar
    19     3     6   ar
    20     9    11    2
    21    13    14   ar
    22    15    16   ar
    23    17    18   ar
    24    10    12    1
@<TRIPOS>MOLECULE
MolPort-010-852-332 41076400 ChemDiv-G952-3119 MCULE-5099997512 PubChem-52095932 ZINC000041076400 ZINC41076400
 22 24 0 0 0
SMALL
GASTEIGER

@<TRIPOS>ATOM
      1 C          16.4271   40.9811    9.1527 C.ar    1  UNL1        0.1643
      2 C          15.3422   42.1484    7.7847 C.ar    1  UNL1        0.2195
      3 C          13.0856   41.6450    8.3108 C.ar    1  UNL1        0.1882
      4 N          17.3217   41.6522    8.3770 N.ar    1  UNL1       -0.1310
      5 N          16.6324   42.3985    7.5041 N.ar    1  UNL1       -0.1202
      6 N          13.9598   40.9729    9.1126 N.ar    1  UNL1       -0.1399
      7 N          15.1931   41.3019    8.7657 N.ar    1  UNL1       -0.1881
      8 S          13.8794   42.6590    7.1508 S.2     1  UNL1       -0.0111
      9 C          10.7752   42.3779    9.1388 C.2     1  UNL1        0.2509
     10 N          11.6681   41.4910    8.4503 N.am    1  UNL1       -0.2592
     11 O          11.2113   43.4173    9.7036 O.2     1  UNL1       -0.2698
     12 H          11.2661   40.6960    8.0313 H       1  UNL1        0.1571
     13 C           9.3346   42.0711    9.1866 C.ar    1  UNL1        0.0538
     14 C           8.6434   41.7296    8.0147 C.ar    1  UNL1        0.0050
     15 C           7.2770   41.4383    8.0589 C.ar    1  UNL1        0.0068
     16 C           6.5915   41.4864    9.2756 C.ar    1  UNL1        0.0346
     17 C           7.2718   41.8256   10.4481 C.ar    1  UNL1        0.0068
     18 C           8.6382   42.1169   10.4040 C.ar    1  UNL1        0.0050
     19 BR          4.7291   41.0895    9.3359 Br      1  UNL1       -0.0490
     20 C          16.7694   40.0156   10.2394 C.3     1  UNL1        0.0677
     21 C          15.2054   38.4858   11.4411 C.3     1  UNL1        0.0005
     22 C          15.9287   38.7535   10.1347 C.3     1  UNL1        0.0080
@<TRIPOS>BOND
     1    21    22    1
     2    22    20    1
     3    20     1    1
     4     2     8   ar
     5     3     8   ar
     6     3    10    1
     7     9    13    1
     8    14    15   ar
     9    16    19    1
    10    16    17   ar
    11    18    13   ar
    12     4     5   ar
    13    10     9   am
    14     7     6   ar
    15     7     1   ar
    16     7     2   ar
    17     1     4   ar
    18     2     5   ar
    19     3     6   ar
    20     9    11    2
    21    13    14   ar
    22    15    16   ar
    23    17    18   ar
    24    10    12    1
@<TRIPOS>MOLECULE
MolPort-010-852-332 41076400 ChemDiv-G952-3119 MCULE-5099997512 PubChem-52095932 ZINC000041076400 ZINC41076400
 22 24 0 0 0
SMALL
GASTEIGER

@<TRIPOS>ATOM
      1 C           4.3282   43.0495    9.5623 C.ar    1  UNL1        0.1643
      2 C           6.1336   43.6897    8.7010 C.ar    1  UNL1        0.2195
      3 C           7.7168   42.1371    9.5410 C.ar    1  UNL1        0.1882
      4 N           4.0620   44.1505    8.8078 N.ar    1  UNL1       -0.1310
      5 N           5.2117   44.5604    8.2563 N.ar    1  UNL1       -0.1202
      6 N           6.4570   41.8782    9.9934 N.ar    1  UNL1       -0.1399
      7 N           5.6304   42.7775    9.4858 N.ar    1  UNL1       -0.1881
      8 S           7.7860   43.5174    8.4952 S.2     1  UNL1       -0.0111
      9 C           9.8162   40.7551    9.0474 C.2     1  UNL1        0.2509
     10 N           8.8336   41.3252    9.9233 N.am    1  UNL1       -0.2592
     11 O           9.7534   40.9442    7.8024 O.2     1  UNL1       -0.2698
     12 H           8.9371   41.1397   10.8847 H       1  UNL1        0.1571
     13 C          10.9090   39.9408    9.6078 C.ar    1  UNL1        0.0538
     14 C          11.8790   40.5283   10.4334 C.ar    1  UNL1        0.0050
     15 C          12.9161   39.7567   10.9657 C.ar    1  UNL1        0.0068
     16 C          12.9909   38.3918   10.6761 C.ar    1  UNL1        0.0346
     17 C          12.0291   37.7980    9.8545 C.ar    1  UNL1        0.0068
     18 C          10.9919   38.5694    9.3222 C.ar    1  UNL1        0.0050
     19 BR         14.4043   37.3402   11.4013 Br      1  UNL1       -0.0490
     20 C           3.3315   42.2876   10.3724 C.3     1  UNL1        0.0677
     21 C           3.8380   40.0951   11.4525 C.3     1  UNL1        0.0005
     22 C           3.4780   40.7906   10.1532 C.3     1  UNL1        0.0080
@<TRIPOS>BOND
     1    21    22    1
     2    22    20    1
     3    20     1    1
     4     2     8   ar
     5     3     8   ar
     6     3    10    1
     7     9    13    1
     8    14    15   ar
     9    16    19    1
    10    16    17   ar
    11    18    13   ar
    12     4     5   ar
    13    10     9   am
    14     7     6   ar
    15     7     1   ar
    16     7     2   ar
    17     1     4   ar
    18     2     5   ar
    19     3     6   ar
    20     9    11    2
    21    13    14   ar
    22    15    16   ar
    23    17    18   ar
    24    10    12    1
