@<TRIPOS>MOLECULE
MolPort-006-579-772 ChemDiv-V028-5033 MCULE-9196107021 PubChem-46040736 ZINC000037543437 ZINC37543437
 29 31 0 0 0
SMALL
GASTEIGER

@<TRIPOS>ATOM
      1 C          10.9111   40.2360   10.2409 C.3     1  UNL1        0.1015
      2 C          10.8104   40.6536   11.6987 C.3     1  UNL1        0.0435
      3 C           9.3753   41.0558   12.0268 C.3     1  UNL1        0.0971
      4 C           9.4281   42.1674    9.7475 C.2     1  UNL1        0.3112
      5 O           8.9539   43.0190    8.9465 O.2     1  UNL1       -0.2520
      6 N          10.5679   41.3639    9.3760 N.am    1  UNL1       -0.2430
      7 N           8.8160   41.9804   11.0386 N.am    1  UNL1       -0.2596
      8 C          13.1843   42.6062    6.9679 C.ar    1  UNL1        0.0516
      9 C          12.4444   42.4164    8.1392 C.ar    1  UNL1        0.0296
     10 C          11.3198   41.5744    8.1604 C.ar    1  UNL1        0.0565
     11 C          10.9564   40.9084    6.9782 C.ar    1  UNL1        0.0150
     12 C          11.6886   41.0912    5.8032 C.ar    1  UNL1        0.0026
     13 C          12.7981   41.9385    5.7979 C.ar    1  UNL1        0.0148
     14 C          14.9580   44.1050    5.8812 C.2     1  UNL1        0.2563
     15 O          14.5435   43.9193    4.7067 O.2     1  UNL1       -0.2720
     16 N          14.3194   43.4818    7.0036 N.am    1  UNL1       -0.2818
     17 H          14.6997   43.6751    7.8909 H       1  UNL1        0.1549
     18 C          16.1292   44.9946    6.1063 C.3     1  UNL1        0.2273
     19 C          17.9339   43.8072    6.5545 C.3     1  UNL1        0.1748
     20 O          17.2635   44.4427    5.5102 O.3     1  UNL1       -0.3417
     21 C           7.5929   42.6888   11.3989 C.3     1  UNL1        0.1218
     22 C           6.3962   41.9935   10.8397 C.ar    1  UNL1        0.0022
     23 C           6.3821   41.5834    9.5012 C.ar    1  UNL1        0.0272
     24 C           5.2550   40.9438    8.9767 C.ar    1  UNL1        0.1421
     25 C           4.1400   40.7142    9.7887 C.ar    1  UNL1        0.0592
     26 C           4.1525   41.1239   11.1256 C.ar    1  UNL1        0.1421
     27 C           5.2794   41.7639   11.6505 C.ar    1  UNL1        0.0272
     28 F           5.2423   40.5495    7.6809 F       1  UNL1       -0.2041
     29 F           3.0723   40.9018   11.9121 F       1  UNL1       -0.2041
@<TRIPOS>BOND
     1    19    20    1
     2    18    20    1
     3    18    14    1
     4    14    16   am
     5     9    10   ar
     6    10     6    1
     7    11    12   ar
     8    13     8   ar
     9     1     6    1
    10     1     2    1
    11     2     3    1
    12     3     7    1
    13    21     7    1
    14    21    22    1
    15    23    24   ar
    16    24    28    1
    17    25    26   ar
    18    26    29    1
    19    27    22   ar
    20     4     6   am
    21    16     8    1
    22     7     4   am
    23    14    15    2
    24     8     9   ar
    25    10    11   ar
    26    12    13   ar
    27    22    23   ar
    28    24    25   ar
    29    26    27   ar
    30     4     5    2
    31    16    17    1
@<TRIPOS>MOLECULE
MolPort-006-579-772 ChemDiv-V028-5033 MCULE-9196107021 PubChem-46040736 ZINC000037543437 ZINC37543437
 29 31 0 0 0
SMALL
GASTEIGER

@<TRIPOS>ATOM
      1 C          10.9663   39.8524   10.2119 C.3     1  UNL1        0.1015
      2 C          11.4331   41.2918   10.3528 C.3     1  UNL1        0.0435
      3 C          11.3664   41.9953    9.0001 C.3     1  UNL1        0.0971
      4 C          12.2648   39.8029    8.0942 C.2     1  UNL1        0.3112
      5 O          12.8537   39.1711    7.1747 O.2     1  UNL1       -0.2520
      6 N          11.8536   39.1290    9.3023 N.am    1  UNL1       -0.2430
      7 N          11.9826   41.2066    7.9311 N.am    1  UNL1       -0.2596
      8 C          13.8051   35.9148    9.5233 C.ar    1  UNL1        0.0516
      9 C          13.4518   37.2324    9.2158 C.ar    1  UNL1        0.0296
     10 C          12.2093   37.7615    9.6036 C.ar    1  UNL1        0.0565
     11 C          11.3257   36.9421   10.3254 C.ar    1  UNL1        0.0150
     12 C          11.6689   35.6249   10.6376 C.ar    1  UNL1        0.0026
     13 C          12.9041   35.1127   10.2365 C.ar    1  UNL1        0.0148
     14 C          15.3856   34.1048    8.6294 C.2     1  UNL1        0.2563
     15 O          14.4940   33.2189    8.5526 O.2     1  UNL1       -0.2720
     16 N          15.0842   35.4264    9.0969 N.am    1  UNL1       -0.2818
     17 H          15.8330   36.0648    9.1283 H       1  UNL1        0.1549
     18 C          16.7770   33.7729    8.2197 C.3     1  UNL1        0.2273
     19 C          17.8496   32.0899    9.1602 C.3     1  UNL1        0.1748
     20 O          16.9326   32.3880    8.1533 O.3     1  UNL1       -0.3417
     21 C          12.2762   41.8902    6.6765 C.3     1  UNL1        0.1218
     22 C          13.5950   42.5856    6.7505 C.ar    1  UNL1        0.0022
     23 C          13.7787   43.8160    6.1084 C.ar    1  UNL1        0.0272
     24 C          15.0188   44.4590    6.1687 C.ar    1  UNL1        0.1421
     25 C          16.0771   43.8726    6.8697 C.ar    1  UNL1        0.0592
     26 C          15.8951   42.6434    7.5109 C.ar    1  UNL1        0.1421
     27 C          14.6552   41.9999    7.4506 C.ar    1  UNL1        0.0272
     28 F          15.1954   45.6484    5.5452 F       1  UNL1       -0.2041
     29 F          16.9204   42.0753    8.1897 F       1  UNL1       -0.2041
@<TRIPOS>BOND
     1    19    20    1
     2    18    20    1
     3    18    14    1
     4    14    16   am
     5     9    10   ar
     6    10     6    1
     7    11    12   ar
     8    13     8   ar
     9     1     6    1
    10     1     2    1
    11     2     3    1
    12     3     7    1
    13    21     7    1
    14    21    22    1
    15    23    24   ar
    16    24    28    1
    17    25    26   ar
    18    26    29    1
    19    27    22   ar
    20     4     6   am
    21    16     8    1
    22     7     4   am
    23    14    15    2
    24     8     9   ar
    25    10    11   ar
    26    12    13   ar
    27    22    23   ar
    28    24    25   ar
    29    26    27   ar
    30     4     5    2
    31    16    17    1
@<TRIPOS>MOLECULE
MolPort-006-579-772 ChemDiv-V028-5033 MCULE-9196107021 PubChem-46040736 ZINC000037543437 ZINC37543437
 29 31 0 0 0
SMALL
GASTEIGER

@<TRIPOS>ATOM
      1 C          10.0064   40.8223    7.1740 C.3     1  UNL1        0.1015
      2 C          10.9522   41.5487    6.2319 C.3     1  UNL1        0.0435
      3 C          12.3751   41.0306    6.4215 C.3     1  UNL1        0.0971
      4 C          11.7891   41.0515    8.8894 C.2     1  UNL1        0.3112
      5 O          12.1682   41.0661   10.0925 O.2     1  UNL1       -0.2520
      6 N          10.3842   41.0894    8.5610 N.am    1  UNL1       -0.2430
      7 N          12.7653   40.9776    7.8320 N.am    1  UNL1       -0.2596
      8 C           6.9925   41.5738   10.1260 C.ar    1  UNL1        0.0516
      9 C           7.9982   41.3946    9.1710 C.ar    1  UNL1        0.0296
     10 C           9.3482   41.2942    9.5470 C.ar    1  UNL1        0.0565
     11 C           9.6727   41.3622   10.9120 C.ar    1  UNL1        0.0150
     12 C           8.6759   41.5411   11.8735 C.ar    1  UNL1        0.0026
     13 C           7.3403   41.6480   11.4815 C.ar    1  UNL1        0.0148
     14 C           4.4867   41.0543   10.2822 C.2     1  UNL1        0.2563
     15 O           4.5961   40.3279   11.3050 O.2     1  UNL1       -0.2720
     16 N           5.6321   41.6757    9.6839 N.am    1  UNL1       -0.2818
     17 H           5.4675   42.2298    8.8870 H       1  UNL1        0.1549
     18 C           3.1402   41.2760    9.6891 C.3     1  UNL1        0.2273
     19 C           3.4211   43.3804    9.0890 C.3     1  UNL1        0.1748
     20 O           2.7067   42.5717    9.9718 O.3     1  UNL1       -0.3417
     21 C          14.1840   40.8172    8.1303 C.3     1  UNL1        0.1218
     22 C          14.9526   42.0238    7.7041 C.ar    1  UNL1        0.0022
     23 C          16.2511   42.2362    8.1822 C.ar    1  UNL1        0.0272
     24 C          16.9639   43.3737    7.7914 C.ar    1  UNL1        0.1421
     25 C          16.3795   44.3010    6.9231 C.ar    1  UNL1        0.0592
     26 C          15.0823   44.0905    6.4453 C.ar    1  UNL1        0.1421
     27 C          14.3691   42.9532    6.8363 C.ar    1  UNL1        0.0272
     28 F          18.2194   43.5787    8.2565 F       1  UNL1       -0.2041
     29 F          14.5161   44.9889    5.6046 F       1  UNL1       -0.2041
@<TRIPOS>BOND
     1    19    20    1
     2    18    20    1
     3    18    14    1
     4    14    16   am
     5     9    10   ar
     6    10     6    1
     7    11    12   ar
     8    13     8   ar
     9     1     6    1
    10     1     2    1
    11     2     3    1
    12     3     7    1
    13    21     7    1
    14    21    22    1
    15    23    24   ar
    16    24    28    1
    17    25    26   ar
    18    26    29    1
    19    27    22   ar
    20     4     6   am
    21    16     8    1
    22     7     4   am
    23    14    15    2
    24     8     9   ar
    25    10    11   ar
    26    12    13   ar
    27    22    23   ar
    28    24    25   ar
    29    26    27   ar
    30     4     5    2
    31    16    17    1
@<TRIPOS>MOLECULE
MolPort-006-579-772 ChemDiv-V028-5033 MCULE-9196107021 PubChem-46040736 ZINC000037543437 ZINC37543437
 29 31 0 0 0
SMALL
GASTEIGER

@<TRIPOS>ATOM
      1 C          10.1965   39.8210    5.9944 C.3     1  UNL1        0.1015
      2 C           8.8281   39.1979    6.2154 C.3     1  UNL1        0.0435
      3 C           7.7649   40.2901    6.2896 C.3     1  UNL1        0.0971
      4 C           9.5042   41.5465    7.6425 C.2     1  UNL1        0.3112
      5 O           9.7820   42.4567    8.4707 O.2     1  UNL1       -0.2520
      6 N          10.5384   40.6834    7.1246 N.am    1  UNL1       -0.2430
      7 N           8.1453   41.3774    7.1938 N.am    1  UNL1       -0.2596
      8 C          14.1316   41.6820    7.6529 C.ar    1  UNL1        0.0516
      9 C          12.8214   41.6554    7.1651 C.ar    1  UNL1        0.0296
     10 C          11.8973   40.6974    7.6149 C.ar    1  UNL1        0.0565
     11 C          12.3108   39.7674    8.5831 C.ar    1  UNL1        0.0150
     12 C          13.6170   39.7855    9.0767 C.ar    1  UNL1        0.0026
     13 C          14.5248   40.7388    8.6119 C.ar    1  UNL1        0.0148
     14 C          14.6926   43.8242    6.3608 C.2     1  UNL1        0.2563
     15 O          13.5014   44.0556    6.0239 O.2     1  UNL1       -0.2720
     16 N          15.0334   42.6789    7.1533 N.am    1  UNL1       -0.2818
     17 H          15.9852   42.5650    7.3776 H       1  UNL1        0.1549
     18 C          15.7643   44.7633    5.9326 C.3     1  UNL1        0.2273
     19 C          17.7594   43.8589    5.6693 C.3     1  UNL1        0.1748
     20 O          16.9455   44.4766    6.6177 O.3     1  UNL1       -0.3417
     21 C           7.0984   42.3065    7.6041 C.3     1  UNL1        0.1218
     22 C           6.4404   41.8391    8.8597 C.ar    1  UNL1        0.0022
     23 C           7.1177   41.9223   10.0821 C.ar    1  UNL1        0.0272
     24 C           6.5038   41.4719   11.2548 C.ar    1  UNL1        0.1421
     25 C           5.2127   40.9369   11.2072 C.ar    1  UNL1        0.0592
     26 C           4.5354   40.8527    9.9868 C.ar    1  UNL1        0.1421
     27 C           5.1491   41.3026    8.8138 C.ar    1  UNL1        0.0272
     28 F           7.1613   41.5512   12.4364 F       1  UNL1       -0.2041
     29 F           3.2849   40.3341    9.9406 F       1  UNL1       -0.2041
@<TRIPOS>BOND
     1    19    20    1
     2    18    20    1
     3    18    14    1
     4    14    16   am
     5     9    10   ar
     6    10     6    1
     7    11    12   ar
     8    13     8   ar
     9     1     6    1
    10     1     2    1
    11     2     3    1
    12     3     7    1
    13    21     7    1
    14    21    22    1
    15    23    24   ar
    16    24    28    1
    17    25    26   ar
    18    26    29    1
    19    27    22   ar
    20     4     6   am
    21    16     8    1
    22     7     4   am
    23    14    15    2
    24     8     9   ar
    25    10    11   ar
    26    12    13   ar
    27    22    23   ar
    28    24    25   ar
    29    26    27   ar
    30     4     5    2
    31    16    17    1
@<TRIPOS>MOLECULE
MolPort-006-579-772 ChemDiv-V028-5033 MCULE-9196107021 PubChem-46040736 ZINC000037543437 ZINC37543437
 29 31 0 0 0
SMALL
GASTEIGER

@<TRIPOS>ATOM
      1 C           8.6327   40.4879    5.9675 C.3     1  UNL1        0.1015
      2 C           9.9311   40.4668    5.1782 C.3     1  UNL1        0.0435
      3 C          11.0683   39.9592    6.0604 C.3     1  UNL1        0.0971
      4 C           9.9777   41.3801    7.8564 C.2     1  UNL1        0.3112
      5 O          10.0672   41.9932    8.9553 O.2     1  UNL1       -0.2520
      6 N           8.7518   41.4106    7.0955 N.am    1  UNL1       -0.2430
      7 N          11.1026   40.6264    7.3635 N.am    1  UNL1       -0.2596
      8 C           5.8086   42.8238    8.9740 C.ar    1  UNL1        0.0516
      9 C           6.8883   42.0079    8.6218 C.ar    1  UNL1        0.0296
     10 C           7.6242   42.2423    7.4481 C.ar    1  UNL1        0.0565
     11 C           7.2636   43.3291    6.6344 C.ar    1  UNL1        0.0150
     12 C           6.1870   44.1498    6.9772 C.ar    1  UNL1        0.0026
     13 C           5.4610   43.8969    8.1425 C.ar    1  UNL1        0.0148
     14 C           3.6674   42.4312   10.3284 C.2     1  UNL1        0.2563
     15 O           2.8942   42.5978    9.3484 O.2     1  UNL1       -0.2720
     16 N           5.0899   42.5337   10.1806 N.am    1  UNL1       -0.2818
     17 H           5.6292   42.3899   10.9916 H       1  UNL1        0.1549
     18 C           3.0910   42.1150   11.6632 C.3     1  UNL1        0.2273
     19 C           1.3485   42.5688   12.9380 C.3     1  UNL1        0.1748
     20 O           1.7039   42.2606   11.6256 O.3     1  UNL1       -0.3417
     21 C          12.3134   40.4759    8.1629 C.3     1  UNL1        0.1218
     22 C          13.3654   41.4346    7.7129 C.ar    1  UNL1        0.0022
     23 C          13.0559   42.4325    6.7810 C.ar    1  UNL1        0.0272
     24 C          14.0464   43.3210    6.3517 C.ar    1  UNL1        0.1421
     25 C          15.3475   43.2127    6.8522 C.ar    1  UNL1        0.0592
     26 C          15.6582   42.2160    7.7825 C.ar    1  UNL1        0.1421
     27 C          14.6680   41.3270    8.2118 C.ar    1  UNL1        0.0272
     28 F          13.7457   44.2847    5.4485 F       1  UNL1       -0.2041
     29 F          16.9186   42.1109    8.2670 F       1  UNL1       -0.2041
@<TRIPOS>BOND
     1    19    20    1
     2    18    20    1
     3    18    14    1
     4    14    16   am
     5     9    10   ar
     6    10     6    1
     7    11    12   ar
     8    13     8   ar
     9     1     6    1
    10     1     2    1
    11     2     3    1
    12     3     7    1
    13    21     7    1
    14    21    22    1
    15    23    24   ar
    16    24    28    1
    17    25    26   ar
    18    26    29    1
    19    27    22   ar
    20     4     6   am
    21    16     8    1
    22     7     4   am
    23    14    15    2
    24     8     9   ar
    25    10    11   ar
    26    12    13   ar
    27    22    23   ar
    28    24    25   ar
    29    26    27   ar
    30     4     5    2
    31    16    17    1
@<TRIPOS>MOLECULE
MolPort-006-579-772 ChemDiv-V028-5033 MCULE-9196107021 PubChem-46040736 ZINC000037543437 ZINC37543437
 29 31 0 0 0
SMALL
GASTEIGER

@<TRIPOS>ATOM
      1 C          10.2795   41.5097   11.2142 C.3     1  UNL1        0.1015
      2 C           9.1646   42.5384   11.1239 C.3     1  UNL1        0.0435
      3 C           7.9493   41.9291   10.4304 C.3     1  UNL1        0.0971
      4 C           9.6671   40.8720    8.8923 C.2     1  UNL1        0.3112
      5 O           9.9436   40.3318    7.7863 O.2     1  UNL1       -0.2520
      6 N          10.6998   41.1131    9.8711 N.am    1  UNL1       -0.2430
      7 N           8.3049   41.2355    9.1907 N.am    1  UNL1       -0.2596
      8 C          14.1056   41.3447    8.2790 C.ar    1  UNL1        0.0516
      9 C          12.7423   41.5341    8.5258 C.ar    1  UNL1        0.0296
     10 C          12.1041   40.9011    9.6057 C.ar    1  UNL1        0.0565
     11 C          12.8686   40.0792   10.4502 C.ar    1  UNL1        0.0150
     12 C          14.2307   39.8835   10.2124 C.ar    1  UNL1        0.0026
     13 C          14.8467   40.5132    9.1293 C.ar    1  UNL1        0.0148
     14 C          14.2251   43.1995    6.5130 C.2     1  UNL1        0.2563
     15 O          13.1810   43.7832    6.9065 O.2     1  UNL1       -0.2720
     16 N          14.7027   42.0116    7.1586 N.am    1  UNL1       -0.2818
     17 H          15.5259   41.6124    6.7949 H       1  UNL1        0.1549
     18 C          14.9799   43.7597    5.3596 C.3     1  UNL1        0.2273
     19 C          16.8643   44.4984    6.2375 C.3     1  UNL1        0.1748
     20 O          15.6333   44.9304    5.7459 O.3     1  UNL1       -0.3417
     21 C           7.2204   40.8976    8.2758 C.3     1  UNL1        0.1218
     22 C           6.0658   41.8256    8.4604 C.ar    1  UNL1        0.0022
     23 C           6.1359   43.1398    7.9831 C.ar    1  UNL1        0.0272
     24 C           5.0579   44.0106    8.1687 C.ar    1  UNL1        0.1421
     25 C           3.9090   43.5695    8.8325 C.ar    1  UNL1        0.0592
     26 C           3.8379   42.2572    9.3103 C.ar    1  UNL1        0.1421
     27 C           4.9159   41.3862    9.1252 C.ar    1  UNL1        0.0272
     28 F           5.1282   45.2824    7.7080 F       1  UNL1       -0.2041
     29 F           2.7251   41.8301    9.9536 F       1  UNL1       -0.2041
@<TRIPOS>BOND
     1    19    20    1
     2    18    20    1
     3    18    14    1
     4    14    16   am
     5     9    10   ar
     6    10     6    1
     7    11    12   ar
     8    13     8   ar
     9     1     6    1
    10     1     2    1
    11     2     3    1
    12     3     7    1
    13    21     7    1
    14    21    22    1
    15    23    24   ar
    16    24    28    1
    17    25    26   ar
    18    26    29    1
    19    27    22   ar
    20     4     6   am
    21    16     8    1
    22     7     4   am
    23    14    15    2
    24     8     9   ar
    25    10    11   ar
    26    12    13   ar
    27    22    23   ar
    28    24    25   ar
    29    26    27   ar
    30     4     5    2
    31    16    17    1
@<TRIPOS>MOLECULE
MolPort-006-579-772 ChemDiv-V028-5033 MCULE-9196107021 PubChem-46040736 ZINC000037543437 ZINC37543437
 29 31 0 0 0
SMALL
GASTEIGER

@<TRIPOS>ATOM
      1 C          10.0124   41.1881    6.9217 C.3     1  UNL1        0.1015
      2 C           8.7002   40.4217    6.9285 C.3     1  UNL1        0.0435
      3 C           7.7129   41.0886    7.8821 C.3     1  UNL1        0.0971
      4 C           9.7371   41.3725    9.3841 C.2     1  UNL1        0.3112
      5 O          10.2119   41.5669   10.5366 O.2     1  UNL1       -0.2520
      6 N          10.6111   41.1602    8.2554 N.am    1  UNL1       -0.2430
      7 N           8.3096   41.3806    9.1871 N.am    1  UNL1       -0.2596
      8 C          14.3111   41.7655    7.8929 C.ar    1  UNL1        0.0516
      9 C          12.9262   41.9009    7.7549 C.ar    1  UNL1        0.0296
     10 C          12.0421   41.0074    8.3827 C.ar    1  UNL1        0.0565
     11 C          12.5771   39.9751    9.1711 C.ar    1  UNL1        0.0150
     12 C          13.9586   39.8312    9.3152 C.ar    1  UNL1        0.0026
     13 C          14.8228   40.7227    8.6769 C.ar    1  UNL1        0.0148
     14 C          14.7551   43.7935    6.3884 C.2     1  UNL1        0.2563
     15 O          13.5374   44.0243    6.1655 O.2     1  UNL1       -0.2720
     16 N          15.1657   42.7033    7.2244 N.am    1  UNL1       -0.2818
     17 H          16.1347   42.5864    7.3527 H       1  UNL1        0.1549
     18 C          15.7856   44.6754    5.7768 C.3     1  UNL1        0.2273
     19 C          17.8624   43.9836    6.0527 C.3     1  UNL1        0.1748
     20 O          16.7787   43.8983    5.1797 O.3     1  UNL1       -0.3417
     21 C           7.4031   41.7105   10.2811 C.3     1  UNL1        0.1218
     22 C           6.1498   42.3310    9.7590 C.ar    1  UNL1        0.0022
     23 C           4.9072   41.7510   10.0406 C.ar    1  UNL1        0.0272
     24 C           3.7359   42.3271    9.5396 C.ar    1  UNL1        0.1421
     25 C           3.8051   43.4829    8.7557 C.ar    1  UNL1        0.0592
     26 C           5.0457   44.0629    8.4731 C.ar    1  UNL1        0.1421
     27 C           6.2172   43.4868    8.9736 C.ar    1  UNL1        0.0272
     28 F           2.5346   41.7635    9.8113 F       1  UNL1       -0.2041
     29 F           5.1126   45.1823    7.7134 F       1  UNL1       -0.2041
@<TRIPOS>BOND
     1    19    20    1
     2    18    20    1
     3    18    14    1
     4    14    16   am
     5     9    10   ar
     6    10     6    1
     7    11    12   ar
     8    13     8   ar
     9     1     6    1
    10     1     2    1
    11     2     3    1
    12     3     7    1
    13    21     7    1
    14    21    22    1
    15    23    24   ar
    16    24    28    1
    17    25    26   ar
    18    26    29    1
    19    27    22   ar
    20     4     6   am
    21    16     8    1
    22     7     4   am
    23    14    15    2
    24     8     9   ar
    25    10    11   ar
    26    12    13   ar
    27    22    23   ar
    28    24    25   ar
    29    26    27   ar
    30     4     5    2
    31    16    17    1
@<TRIPOS>MOLECULE
MolPort-006-579-772 ChemDiv-V028-5033 MCULE-9196107021 PubChem-46040736 ZINC000037543437 ZINC37543437
 29 31 0 0 0
SMALL
GASTEIGER

@<TRIPOS>ATOM
      1 C          10.3282   40.3659    9.9244 C.3     1  UNL1        0.1015
      2 C          10.4958   41.8764    9.9264 C.3     1  UNL1        0.0435
      3 C          10.5775   42.3929    8.4927 C.3     1  UNL1        0.0971
      4 C          12.0114   40.3383    8.0970 C.2     1  UNL1        0.3112
      5 O          12.8741   39.7376    7.3996 O.2     1  UNL1       -0.2520
      6 N          11.4928   39.7375    9.3024 N.am    1  UNL1       -0.2430
      7 N          11.5241   41.6281    7.6782 N.am    1  UNL1       -0.2596
      8 C          13.8418   37.2595   10.8928 C.ar    1  UNL1        0.0516
      9 C          13.3390   38.4380   10.3325 C.ar    1  UNL1        0.0296
     10 C          12.0169   38.5135    9.8631 C.ar    1  UNL1        0.0565
     11 C          11.1960   37.3797    9.9809 C.ar    1  UNL1        0.0150
     12 C          11.6885   36.1980   10.5388 C.ar    1  UNL1        0.0026
     13 C          13.0076   36.1379   10.9920 C.ar    1  UNL1        0.0148
     14 C          16.3800   37.3368   10.5400 C.2     1  UNL1        0.2563
     15 O          16.3060   37.4575    9.2887 O.2     1  UNL1       -0.2720
     16 N          15.2009   37.2384   11.3499 N.am    1  UNL1       -0.2818
     17 H          15.3386   37.1470   12.3204 H       1  UNL1        0.1549
     18 C          17.7186   37.3029   11.1888 C.3     1  UNL1        0.2273
     19 C          19.6503   37.3377   10.1234 C.3     1  UNL1        0.1748
     20 O          18.5840   36.4994   10.4457 O.3     1  UNL1       -0.3417
     21 C          11.9369   42.2092    6.4056 C.3     1  UNL1        0.1218
     22 C          13.3074   42.7912    6.5110 C.ar    1  UNL1        0.0022
     23 C          13.6334   43.9562    5.8065 C.ar    1  UNL1        0.0272
     24 C          14.9216   44.4919    5.8971 C.ar    1  UNL1        0.1421
     25 C          15.8861   43.8635    6.6910 C.ar    1  UNL1        0.0592
     26 C          15.5620   42.6995    7.3947 C.ar    1  UNL1        0.1421
     27 C          14.2739   42.1632    7.3041 C.ar    1  UNL1        0.0272
     28 F          15.2359   45.6180    5.2131 F       1  UNL1       -0.2041
     29 F          16.4963   42.0906    8.1635 F       1  UNL1       -0.2041
@<TRIPOS>BOND
     1    19    20    1
     2    18    20    1
     3    18    14    1
     4    14    16   am
     5     9    10   ar
     6    10     6    1
     7    11    12   ar
     8    13     8   ar
     9     1     6    1
    10     1     2    1
    11     2     3    1
    12     3     7    1
    13    21     7    1
    14    21    22    1
    15    23    24   ar
    16    24    28    1
    17    25    26   ar
    18    26    29    1
    19    27    22   ar
    20     4     6   am
    21    16     8    1
    22     7     4   am
    23    14    15    2
    24     8     9   ar
    25    10    11   ar
    26    12    13   ar
    27    22    23   ar
    28    24    25   ar
    29    26    27   ar
    30     4     5    2
    31    16    17    1
@<TRIPOS>MOLECULE
MolPort-006-579-772 ChemDiv-V028-5033 MCULE-9196107021 PubChem-46040736 ZINC000037543437 ZINC37543437
 29 31 0 0 0
SMALL
GASTEIGER

@<TRIPOS>ATOM
      1 C           9.7220   40.1719    6.2004 C.3     1  UNL1        0.1015
      2 C           8.3272   39.6288    6.4629 C.3     1  UNL1        0.0435
      3 C           7.3250   40.7779    6.5279 C.3     1  UNL1        0.0971
      4 C           9.1549   41.9732    7.8150 C.2     1  UNL1        0.3112
      5 O           9.4970   42.8877    8.6138 O.2     1  UNL1       -0.2520
      6 N          10.1314   41.0431    7.3011 N.am    1  UNL1       -0.2430
      7 N           7.7804   41.8657    7.3960 N.am    1  UNL1       -0.2596
      8 C          13.8426   41.6423    7.5378 C.ar    1  UNL1        0.0516
      9 C          12.5221   41.6707    7.0786 C.ar    1  UNL1        0.0296
     10 C          11.4987   40.9966    7.7658 C.ar    1  UNL1        0.0565
     11 C          11.8242   40.2998    8.9412 C.ar    1  UNL1        0.0150
     12 C          13.1398   40.2653    9.4082 C.ar    1  UNL1        0.0026
     13 C          14.1459   40.9333    8.7078 C.ar    1  UNL1        0.0148
     14 C          14.6946   43.6003    6.1187 C.2     1  UNL1        0.2563
     15 O          13.5992   44.2213    6.1327 O.2     1  UNL1       -0.2720
     16 N          14.8471   42.3438    6.7925 N.am    1  UNL1       -0.2818
     17 H          15.7333   41.9185    6.7377 H       1  UNL1        0.1549
     18 C          15.8538   44.1877    5.3941 C.3     1  UNL1        0.2273
     19 C          17.6814   44.1706    6.6298 C.3     1  UNL1        0.1748
     20 O          16.6047   44.9777    6.2650 O.3     1  UNL1       -0.3417
     21 C           6.7926   42.8597    7.8009 C.3     1  UNL1        0.1218
     22 C           6.0653   42.4125    9.0253 C.ar    1  UNL1        0.0022
     23 C           4.6950   42.6650    9.1615 C.ar    1  UNL1        0.0272
     24 C           4.0190   42.2563   10.3151 C.ar    1  UNL1        0.1421
     25 C           4.7117   41.5959   11.3345 C.ar    1  UNL1        0.0592
     26 C           6.0805   41.3437   11.2001 C.ar    1  UNL1        0.1421
     27 C           6.7570   41.7526   10.0468 C.ar    1  UNL1        0.0272
     28 F           2.6936   42.5031   10.4460 F       1  UNL1       -0.2041
     29 F           6.7515   40.7043   12.1878 F       1  UNL1       -0.2041
@<TRIPOS>BOND
     1    19    20    1
     2    18    20    1
     3    18    14    1
     4    14    16   am
     5     9    10   ar
     6    10     6    1
     7    11    12   ar
     8    13     8   ar
     9     1     6    1
    10     1     2    1
    11     2     3    1
    12     3     7    1
    13    21     7    1
    14    21    22    1
    15    23    24   ar
    16    24    28    1
    17    25    26   ar
    18    26    29    1
    19    27    22   ar
    20     4     6   am
    21    16     8    1
    22     7     4   am
    23    14    15    2
    24     8     9   ar
    25    10    11   ar
    26    12    13   ar
    27    22    23   ar
    28    24    25   ar
    29    26    27   ar
    30     4     5    2
    31    16    17    1
@<TRIPOS>MOLECULE
MolPort-006-579-772 ChemDiv-V028-5033 MCULE-9196107021 PubChem-46040736 ZINC000037543437 ZINC37543437
 29 31 0 0 0
SMALL
GASTEIGER

@<TRIPOS>ATOM
      1 C          12.5021   40.1726   11.3620 C.3     1  UNL1        0.1015
      2 C          11.3624   40.8657   10.6339 C.3     1  UNL1        0.0435
      3 C          10.3966   39.8269   10.0706 C.3     1  UNL1        0.0971
      4 C          12.5062   38.5468    9.4831 C.2     1  UNL1        0.3112
      5 O          13.0772   37.6583    8.7931 O.2     1  UNL1       -0.2520
      6 N          13.2570   39.3407   10.4259 N.am    1  UNL1       -0.2430
      7 N          11.0878   38.7600    9.3438 N.am    1  UNL1       -0.2596
      8 C          16.9069   40.1382    9.9464 C.ar    1  UNL1        0.0516
      9 C          15.5143   40.1795    9.8263 C.ar    1  UNL1        0.0296
     10 C          14.6965   39.2841   10.5358 C.ar    1  UNL1        0.0565
     11 C          15.3057   38.3478   11.3875 C.ar    1  UNL1        0.0150
     12 C          16.6955   38.2983   11.5144 C.ar    1  UNL1        0.0026
     13 C          17.4935   39.1897   10.7950 C.ar    1  UNL1        0.0148
     14 C          17.2016   42.0821    8.3008 C.2     1  UNL1        0.2563
     15 O          15.9679   42.2334    8.0989 O.2     1  UNL1       -0.2720
     16 N          17.6919   41.0729    9.1936 N.am    1  UNL1       -0.2818
     17 H          18.6689   41.0157    9.3009 H       1  UNL1        0.1549
     18 C          18.1669   42.9740    7.6033 C.3     1  UNL1        0.2273
     19 C          17.5172   43.9334    5.7258 C.3     1  UNL1        0.1748
     20 O          17.5016   44.0969    7.1102 O.3     1  UNL1       -0.3417
     21 C          10.2795   37.8965    8.4903 C.3     1  UNL1        0.1218
     22 C           9.6766   38.6771    7.3698 C.ar    1  UNL1        0.0022
     23 C          10.4923   39.4356    6.5218 C.ar    1  UNL1        0.0272
     24 C           9.9235   40.1758    5.4810 C.ar    1  UNL1        0.1421
     25 C           8.5388   40.1600    5.2870 C.ar    1  UNL1        0.0592
     26 C           7.7228   39.4033    6.1337 C.ar    1  UNL1        0.1421
     27 C           8.2912   38.6631    7.1749 C.ar    1  UNL1        0.0272
     28 F          10.7140   40.9108    4.6626 F       1  UNL1       -0.2041
     29 F           6.3815   39.3882    5.9460 F       1  UNL1       -0.2041
@<TRIPOS>BOND
     1    19    20    1
     2    18    20    1
     3    18    14    1
     4    14    16   am
     5     9    10   ar
     6    10     6    1
     7    11    12   ar
     8    13     8   ar
     9     1     6    1
    10     1     2    1
    11     2     3    1
    12     3     7    1
    13    21     7    1
    14    21    22    1
    15    23    24   ar
    16    24    28    1
    17    25    26   ar
    18    26    29    1
    19    27    22   ar
    20     4     6   am
    21    16     8    1
    22     7     4   am
    23    14    15    2
    24     8     9   ar
    25    10    11   ar
    26    12    13   ar
    27    22    23   ar
    28    24    25   ar
    29    26    27   ar
    30     4     5    2
    31    16    17    1
