@<TRIPOS>MOLECULE
MolPort-001-807-228 CSSS03437702633 MCULE-7238973406 PubChem-2811213 ZINC000001031142 ZINC01031142
 28 31 0 0 0
SMALL
GASTEIGER

@<TRIPOS>ATOM
      1 C           7.1880   41.0482    8.3607 C.ar    1  UNL1        0.1725
      2 C           7.4901   40.2622    7.2366 C.ar    1  UNL1        0.0413
      3 C           8.6085   40.5409    6.4514 C.ar    1  UNL1        0.0180
      4 C           9.4466   41.6143    6.7724 C.ar    1  UNL1        0.0548
      5 C           9.1533   42.3972    7.8912 C.ar    1  UNL1        0.0547
      6 C           8.0412   42.1278    8.6971 C.ar    1  UNL1        0.1733
      7 C          11.8670   42.4087    6.4728 C.2     1  UNL1        0.3096
      8 O          12.0577   42.5835    7.7060 O.2     1  UNL1       -0.2521
      9 N          10.6031   41.9375    5.9883 N.am    1  UNL1       -0.2679
     10 N          12.9082   42.6775    5.5273 N.am    1  UNL1       -0.2468
     11 H          10.5200   41.8236    5.0139 H       1  UNL1        0.1564
     12 H          12.6960   42.5232    4.5784 H       1  UNL1        0.1584
     13 C          14.2283   43.1485    5.8249 C.ar    1  UNL1        0.1889
     14 C          16.4288   43.6975    6.6155 C.ar    1  UNL1        0.1119
     15 N          14.8446   44.0877    5.0760 N.ar    1  UNL1       -0.1256
     16 N          16.0676   44.3878    5.5103 N.ar    1  UNL1       -0.1440
     17 S          15.2129   42.6329    7.0960 S.2     1  UNL1       -0.0347
     18 C          17.7708   43.8094    7.2614 C.3     1  UNL1        0.0484
     19 C          17.9747   42.6558    8.2260 C.3     1  UNL1        0.0069
     20 C          17.6107   44.0243    8.7553 C.3     1  UNL1        0.0069
     21 C           4.8898   41.5949    9.1136 C.3     1  UNL1        0.2526
     22 O           6.0498   40.7735    9.1275 O.3     1  UNL1       -0.4684
     23 O           7.8327   42.9677    9.8023 O.3     1  UNL1       -0.4761
     24 C           8.5553   42.9016   11.0259 C.3     1  UNL1        0.1660
     25 C           9.9571   42.3809   10.7613 C.3     1  UNL1        0.0435
     26 C          10.0511   41.0263   11.4307 C.3     1  UNL1        0.0038
     27 C           8.9957   41.0377   12.5097 C.3     1  UNL1        0.0038
     28 C           7.8890   41.9118   11.9672 C.3     1  UNL1        0.0435
@<TRIPOS>BOND
     1    21    22    1
     2     1    22    1
     3     2     3   ar
     4     4     9    1
     5     4     5   ar
     6     7    10   am
     7    13    17   ar
     8    14    17   ar
     9    18    14    1
    10    18    19    1
    11    19    20    1
    12    20    18    1
    13     6    23    1
    14     6     1   ar
    15    24    23    1
    16    24    25    1
    17    25    26    1
    18    26    27    1
    19    27    28    1
    20    28    24    1
    21     9     7   am
    22    10    13    1
    23    15    16   ar
    24     1     2   ar
    25     3     4   ar
    26     7     8    2
    27    13    15   ar
    28    14    16   ar
    29     5     6   ar
    30     9    11    1
    31    10    12    1
@<TRIPOS>MOLECULE
MolPort-001-807-228 CSSS03437702633 MCULE-7238973406 PubChem-2811213 ZINC000001031142 ZINC01031142
 28 31 0 0 0
SMALL
GASTEIGER

@<TRIPOS>ATOM
      1 C           6.9691   41.5112   10.9720 C.ar    1  UNL1        0.1725
      2 C           8.2584   41.5507   11.5278 C.ar    1  UNL1        0.0413
      3 C           9.3878   41.4312   10.7184 C.ar    1  UNL1        0.0180
      4 C           9.2510   41.2662    9.3357 C.ar    1  UNL1        0.0548
      5 C           7.9716   41.2298    8.7768 C.ar    1  UNL1        0.0547
      6 C           6.8263   41.3576    9.5711 C.ar    1  UNL1        0.1733
      7 C          11.4388   42.0886    8.2790 C.2     1  UNL1        0.3096
      8 O          11.4347   43.1830    8.9035 O.2     1  UNL1       -0.2521
      9 N          10.3862   41.1346    8.4693 N.am    1  UNL1       -0.2679
     10 N          12.4947   41.7733    7.3647 N.am    1  UNL1       -0.2468
     11 H          10.4491   40.3005    7.9501 H       1  UNL1        0.1564
     12 H          12.4392   40.9038    6.9063 H       1  UNL1        0.1584
     13 C          13.6240   42.5974    7.0505 C.ar    1  UNL1        0.1889
     14 C          15.7133   43.7418    6.7444 C.ar    1  UNL1        0.1119
     15 N          13.5261   43.6797    6.2495 N.ar    1  UNL1       -0.1256
     16 N          14.6859   44.3111    6.0742 N.ar    1  UNL1       -0.1440
     17 S          15.2089   42.3713    7.5870 S.2     1  UNL1       -0.0347
     18 C          17.1244   44.2247    6.6646 C.3     1  UNL1        0.0484
     19 C          18.0773   43.0718    6.9204 C.3     1  UNL1        0.0069
     20 C          17.8000   44.0763    8.0156 C.3     1  UNL1        0.0069
     21 C           4.7093   40.7611   11.6632 C.3     1  UNL1        0.2526
     22 O           5.8427   41.6083   11.7970 O.3     1  UNL1       -0.4684
     23 O           5.5851   41.3135    8.9168 O.3     1  UNL1       -0.4761
     24 C           5.0641   42.3427    8.0842 C.3     1  UNL1        0.1660
     25 C           6.1966   43.2381    7.6132 C.3     1  UNL1        0.0435
     26 C           5.9747   44.5922    8.2528 C.3     1  UNL1        0.0038
     27 C           4.5011   44.6475    8.5745 C.3     1  UNL1        0.0038
     28 C           4.1121   43.2199    8.8805 C.3     1  UNL1        0.0435
@<TRIPOS>BOND
     1    21    22    1
     2     1    22    1
     3     2     3   ar
     4     4     9    1
     5     4     5   ar
     6     7    10   am
     7    13    17   ar
     8    14    17   ar
     9    18    14    1
    10    18    19    1
    11    19    20    1
    12    20    18    1
    13     6    23    1
    14     6     1   ar
    15    24    23    1
    16    24    25    1
    17    25    26    1
    18    26    27    1
    19    27    28    1
    20    28    24    1
    21     9     7   am
    22    10    13    1
    23    15    16   ar
    24     1     2   ar
    25     3     4   ar
    26     7     8    2
    27    13    15   ar
    28    14    16   ar
    29     5     6   ar
    30     9    11    1
    31    10    12    1
@<TRIPOS>MOLECULE
MolPort-001-807-228 CSSS03437702633 MCULE-7238973406 PubChem-2811213 ZINC000001031142 ZINC01031142
 28 31 0 0 0
SMALL
GASTEIGER

@<TRIPOS>ATOM
      1 C           6.1344   40.9585    7.6926 C.ar    1  UNL1        0.1725
      2 C           6.6134   40.1725    6.6317 C.ar    1  UNL1        0.0413
      3 C           7.8448   40.4494    6.0385 C.ar    1  UNL1        0.0180
      4 C           8.6218   41.5209    6.4921 C.ar    1  UNL1        0.0548
      5 C           8.1525   42.3039    7.5491 C.ar    1  UNL1        0.0547
      6 C           6.9239   42.0363    8.1638 C.ar    1  UNL1        0.1733
      7 C          11.1398   41.9996    6.5914 C.2     1  UNL1        0.3096
      8 O          11.2093   41.8575    7.8415 O.2     1  UNL1       -0.2521
      9 N           9.8908   41.8421    5.9062 N.am    1  UNL1       -0.2679
     10 N          12.3068   42.3223    5.8270 N.am    1  UNL1       -0.2468
     11 H           9.9056   41.9678    4.9299 H       1  UNL1        0.1564
     12 H          12.1863   42.4223    4.8550 H       1  UNL1        0.1584
     13 C          13.6324   42.5142    6.3359 C.ar    1  UNL1        0.1889
     14 C          15.8692   43.1328    6.9546 C.ar    1  UNL1        0.1119
     15 N          14.1731   41.6978    7.2653 N.ar    1  UNL1       -0.1256
     16 N          15.4113   42.0443    7.6136 N.ar    1  UNL1       -0.1440
     17 S          14.7050   43.7427    5.8986 S.2     1  UNL1       -0.0347
     18 C          17.2030   43.7552    7.2080 C.3     1  UNL1        0.0484
     19 C          18.0428   42.8358    8.0753 C.3     1  UNL1        0.0069
     20 C          17.3683   44.0414    8.6893 C.3     1  UNL1        0.0069
     21 C           4.6745   40.6244    9.6685 C.3     1  UNL1        0.2526
     22 O           4.8864   40.6858    8.2643 O.3     1  UNL1       -0.4684
     23 O           6.5404   42.8761    9.2212 O.3     1  UNL1       -0.4761
     24 C           5.8705   44.1222    9.0724 C.3     1  UNL1        0.1660
     25 C           4.3875   43.9379    9.3424 C.3     1  UNL1        0.0435
     26 C           3.6733   44.1809    8.0299 C.3     1  UNL1        0.0038
     27 C           4.6127   45.0353    7.2140 C.3     1  UNL1        0.0038
     28 C           5.9991   44.6106    7.6390 C.3     1  UNL1        0.0435
@<TRIPOS>BOND
     1    21    22    1
     2     1    22    1
     3     2     3   ar
     4     4     9    1
     5     4     5   ar
     6     7    10   am
     7    13    17   ar
     8    14    17   ar
     9    18    14    1
    10    18    19    1
    11    19    20    1
    12    20    18    1
    13     6    23    1
    14     6     1   ar
    15    24    23    1
    16    24    25    1
    17    25    26    1
    18    26    27    1
    19    27    28    1
    20    28    24    1
    21     9     7   am
    22    10    13    1
    23    15    16   ar
    24     1     2   ar
    25     3     4   ar
    26     7     8    2
    27    13    15   ar
    28    14    16   ar
    29     5     6   ar
    30     9    11    1
    31    10    12    1
@<TRIPOS>MOLECULE
MolPort-001-807-228 CSSS03437702633 MCULE-7238973406 PubChem-2811213 ZINC000001031142 ZINC01031142
 28 31 0 0 0
SMALL
GASTEIGER

@<TRIPOS>ATOM
      1 C          10.8161   37.0627   10.0390 C.ar    1  UNL1        0.1725
      2 C           9.9235   37.3583    8.9956 C.ar    1  UNL1        0.0413
      3 C          10.0853   38.5080    8.2230 C.ar    1  UNL1        0.0180
      4 C          11.1420   39.3883    8.4801 C.ar    1  UNL1        0.0548
      5 C          12.0350   39.0978    9.5140 C.ar    1  UNL1        0.0547
      6 C          11.8951   37.9443   10.2942 C.ar    1  UNL1        0.1733
      7 C          12.5848   41.2503    7.4650 C.2     1  UNL1        0.3096
      8 O          13.6612   40.7994    7.9401 O.2     1  UNL1       -0.2521
      9 N          11.3405   40.5834    7.7126 N.am    1  UNL1       -0.2679
     10 N          12.5799   42.4396    6.6676 N.am    1  UNL1       -0.2468
     11 H          10.5370   40.9886    7.3134 H       1  UNL1        0.1564
     12 H          11.7068   42.7418    6.3277 H       1  UNL1        0.1584
     13 C          13.7194   43.2336    6.3152 C.ar    1  UNL1        0.1889
     14 C          15.8180   44.3506    5.9734 C.ar    1  UNL1        0.1119
     15 N          13.6496   44.2337    5.4109 N.ar    1  UNL1       -0.1256
     16 N          14.8148   44.8492    5.2162 N.ar    1  UNL1       -0.1440
     17 S          15.2847   43.0657    6.9258 S.2     1  UNL1       -0.0347
     18 C          17.2310   44.8284    5.8968 C.3     1  UNL1        0.0484
     19 C          18.1527   43.6611    5.5954 C.3     1  UNL1        0.0069
     20 C          18.0526   44.1966    7.0056 C.3     1  UNL1        0.0069
     21 C          11.6870   35.0301   11.1603 C.3     1  UNL1        0.2526
     22 O          10.6298   35.9183   10.8229 O.3     1  UNL1       -0.4684
     23 O          12.8452   37.7368   11.3064 O.3     1  UNL1       -0.4761
     24 C          14.1926   37.3342   11.0913 C.3     1  UNL1        0.1660
     25 C          15.1182   38.1724   11.9555 C.3     1  UNL1        0.0435
     26 C          15.9453   39.0193   11.0120 C.3     1  UNL1        0.0038
     27 C          15.9285   38.2844    9.6937 C.3     1  UNL1        0.0038
     28 C          14.5855   37.5937    9.6463 C.3     1  UNL1        0.0435
@<TRIPOS>BOND
     1    21    22    1
     2     1    22    1
     3     2     3   ar
     4     4     9    1
     5     4     5   ar
     6     7    10   am
     7    13    17   ar
     8    14    17   ar
     9    18    14    1
    10    18    19    1
    11    19    20    1
    12    20    18    1
    13     6    23    1
    14     6     1   ar
    15    24    23    1
    16    24    25    1
    17    25    26    1
    18    26    27    1
    19    27    28    1
    20    28    24    1
    21     9     7   am
    22    10    13    1
    23    15    16   ar
    24     1     2   ar
    25     3     4   ar
    26     7     8    2
    27    13    15   ar
    28    14    16   ar
    29     5     6   ar
    30     9    11    1
    31    10    12    1
@<TRIPOS>MOLECULE
MolPort-001-807-228 CSSS03437702633 MCULE-7238973406 PubChem-2811213 ZINC000001031142 ZINC01031142
 28 31 0 0 0
SMALL
GASTEIGER

@<TRIPOS>ATOM
      1 C          14.8354   40.0840    9.5431 C.ar    1  UNL1        0.1725
      2 C          14.4517   39.4925   10.7579 C.ar    1  UNL1        0.0413
      3 C          13.1635   39.6699   11.2618 C.ar    1  UNL1        0.0180
      4 C          12.2326   40.4456   10.5624 C.ar    1  UNL1        0.0548
      5 C          12.6071   41.0333    9.3520 C.ar    1  UNL1        0.0547
      6 C          13.8920   40.8593    8.8251 C.ar    1  UNL1        0.1733
      7 C           9.7708   41.1140   10.2932 C.2     1  UNL1        0.3096
      8 O           9.8834   41.3804    9.0668 O.2     1  UNL1       -0.2521
      9 N          10.8999   40.6568   11.0484 N.am    1  UNL1       -0.2679
     10 N           8.5126   41.2625   10.9604 N.am    1  UNL1       -0.2468
     11 H          10.7441   40.4676   12.0020 H       1  UNL1        0.1564
     12 H           8.4905   41.0405   11.9193 H       1  UNL1        0.1584
     13 C           7.2827   41.7021   10.3713 C.ar    1  UNL1        0.1889
     14 C           5.0559   42.2908    9.6906 C.ar    1  UNL1        0.1119
     15 N           7.2401   42.3390    9.1817 N.ar    1  UNL1       -0.1256
     16 N           6.0059   42.6715    8.8068 N.ar    1  UNL1       -0.1440
     17 S           5.7376   41.5249   11.0289 S.2     1  UNL1       -0.0347
     18 C           3.6030   42.5978    9.5300 C.3     1  UNL1        0.0484
     19 C           2.8242   42.0241   10.6992 C.3     1  UNL1        0.0069
     20 C           2.8163   41.3101    9.3667 C.3     1  UNL1        0.0069
     21 C          17.2885   40.3707    9.7612 C.3     1  UNL1        0.2526
     22 O          16.1382   39.9186    9.0591 O.3     1  UNL1       -0.4684
     23 O          14.1721   41.4854    7.6003 O.3     1  UNL1       -0.4761
     24 C          14.4554   42.8699    7.4371 C.3     1  UNL1        0.1660
     25 C          13.7370   43.3945    6.2063 C.3     1  UNL1        0.0435
     26 C          14.8081   43.7622    5.2016 C.3     1  UNL1        0.0038
     27 C          16.0557   44.0050    6.0157 C.3     1  UNL1        0.0038
     28 C          15.9428   43.0684    7.1961 C.3     1  UNL1        0.0435
@<TRIPOS>BOND
     1    21    22    1
     2     1    22    1
     3     2     3   ar
     4     4     9    1
     5     4     5   ar
     6     7    10   am
     7    13    17   ar
     8    14    17   ar
     9    18    14    1
    10    18    19    1
    11    19    20    1
    12    20    18    1
    13     6    23    1
    14     6     1   ar
    15    24    23    1
    16    24    25    1
    17    25    26    1
    18    26    27    1
    19    27    28    1
    20    28    24    1
    21     9     7   am
    22    10    13    1
    23    15    16   ar
    24     1     2   ar
    25     3     4   ar
    26     7     8    2
    27    13    15   ar
    28    14    16   ar
    29     5     6   ar
    30     9    11    1
    31    10    12    1
@<TRIPOS>MOLECULE
MolPort-001-807-228 CSSS03437702633 MCULE-7238973406 PubChem-2811213 ZINC000001031142 ZINC01031142
 28 31 0 0 0
SMALL
GASTEIGER

@<TRIPOS>ATOM
      1 C          15.9920   42.8604    7.3649 C.ar    1  UNL1        0.1725
      2 C          15.5237   43.7013    6.3419 C.ar    1  UNL1        0.0413
      3 C          14.2471   43.5307    5.8070 C.ar    1  UNL1        0.0180
      4 C          13.4129   42.5129    6.2821 C.ar    1  UNL1        0.0548
      5 C          13.8716   41.6759    7.3018 C.ar    1  UNL1        0.0547
      6 C          15.1457   41.8371    7.8581 C.ar    1  UNL1        0.1733
      7 C          10.9195   41.9501    6.4958 C.2     1  UNL1        0.3096
      8 O          10.9694   41.7927    7.7450 O.2     1  UNL1       -0.2521
      9 N          12.0958   42.3008    5.7557 N.am    1  UNL1       -0.2679
     10 N           9.6869   41.7816    5.7870 N.am    1  UNL1       -0.2468
     11 H          11.9882   42.4074    4.7830 H       1  UNL1        0.1564
     12 H           9.7141   41.9161    4.8121 H       1  UNL1        0.1584
     13 C           8.4177   41.4365    6.3554 C.ar    1  UNL1        0.1889
     14 C           6.3762   41.1096    7.5778 C.ar    1  UNL1        0.1119
     15 N           7.6008   40.5204    5.7931 N.ar    1  UNL1       -0.1256
     16 N           6.4656   40.3434    6.4672 N.ar    1  UNL1       -0.1440
     17 S           7.7373   42.0883    7.7566 S.2     1  UNL1       -0.0347
     18 C           5.1792   41.1392    8.4706 C.3     1  UNL1        0.0484
     19 C           5.0976   42.4801    9.1764 C.3     1  UNL1        0.0069
     20 C           5.6157   41.2693    9.9184 C.3     1  UNL1        0.0069
     21 C          17.5821   43.8995    8.9584 C.3     1  UNL1        0.2526
     22 O          17.2837   43.0260    7.8774 O.3     1  UNL1       -0.4684
     23 O          15.5145   40.9499    8.8816 O.3     1  UNL1       -0.4761
     24 C          14.8373   39.7389    9.1958 C.3     1  UNL1        0.1660
     25 C          13.6918   40.0294   10.1495 C.3     1  UNL1        0.0435
     26 C          14.0432   39.3678   11.4651 C.3     1  UNL1        0.0038
     27 C          15.0194   38.2712   11.1147 C.3     1  UNL1        0.0038
     28 C          15.7809   38.7911    9.9177 C.3     1  UNL1        0.0435
@<TRIPOS>BOND
     1    21    22    1
     2     1    22    1
     3     2     3   ar
     4     4     9    1
     5     4     5   ar
     6     7    10   am
     7    13    17   ar
     8    14    17   ar
     9    18    14    1
    10    18    19    1
    11    19    20    1
    12    20    18    1
    13     6    23    1
    14     6     1   ar
    15    24    23    1
    16    24    25    1
    17    25    26    1
    18    26    27    1
    19    27    28    1
    20    28    24    1
    21     9     7   am
    22    10    13    1
    23    15    16   ar
    24     1     2   ar
    25     3     4   ar
    26     7     8    2
    27    13    15   ar
    28    14    16   ar
    29     5     6   ar
    30     9    11    1
    31    10    12    1
@<TRIPOS>MOLECULE
MolPort-001-807-228 CSSS03437702633 MCULE-7238973406 PubChem-2811213 ZINC000001031142 ZINC01031142
 28 31 0 0 0
SMALL
GASTEIGER

@<TRIPOS>ATOM
      1 C          15.5551   42.4697    7.5092 C.ar    1  UNL1        0.1725
      2 C          14.7014   43.2128    6.6774 C.ar    1  UNL1        0.0413
      3 C          13.3588   42.8623    6.5382 C.ar    1  UNL1        0.0180
      4 C          12.8424   41.7587    7.2259 C.ar    1  UNL1        0.0548
      5 C          13.6855   41.0181    8.0575 C.ar    1  UNL1        0.0547
      6 C          15.0333   41.3595    8.2177 C.ar    1  UNL1        0.1733
      7 C          10.4134   41.6245    8.0392 C.2     1  UNL1        0.3096
      8 O          10.6383   42.2648    9.1008 O.2     1  UNL1       -0.2521
      9 N          11.4694   41.3620    7.1063 N.am    1  UNL1       -0.2679
     10 N           9.0980   41.1440    7.7408 N.am    1  UNL1       -0.2468
     11 H          11.2264   40.8557    6.2977 H       1  UNL1        0.1564
     12 H           8.9877   40.6488    6.8970 H       1  UNL1        0.1584
     13 C           7.9262   41.3121    8.5480 C.ar    1  UNL1        0.1889
     14 C           5.7691   41.5231    9.5831 C.ar    1  UNL1        0.1119
     15 N           7.9932   41.6052    9.8642 N.ar    1  UNL1       -0.1256
     16 N           6.7972   41.7160   10.4401 N.ar    1  UNL1       -0.1440
     17 S           6.3250   41.1695    8.0312 S.2     1  UNL1       -0.0347
     18 C           4.3333   41.5356    9.9943 C.3     1  UNL1        0.0484
     19 C           4.2292   41.7691   11.4901 C.3     1  UNL1        0.0069
     20 C           4.0527   40.3754   10.9317 C.3     1  UNL1        0.0069
     21 C          17.5502   43.7228    6.7369 C.3     1  UNL1        0.2526
     22 O          16.9062   42.8166    7.6226 O.3     1  UNL1       -0.4684
     23 O          15.7991   40.5577    9.0787 O.3     1  UNL1       -0.4761
     24 C          15.3866   39.3037    9.6088 C.3     1  UNL1        0.1660
     25 C          13.9668   39.4163   10.1358 C.3     1  UNL1        0.0435
     26 C          14.0460   39.2467   11.6380 C.3     1  UNL1        0.0038
     27 C          15.3263   38.4878   11.8893 C.3     1  UNL1        0.0038
     28 C          16.2655   38.9274   10.7903 C.3     1  UNL1        0.0435
@<TRIPOS>BOND
     1    21    22    1
     2     1    22    1
     3     2     3   ar
     4     4     9    1
     5     4     5   ar
     6     7    10   am
     7    13    17   ar
     8    14    17   ar
     9    18    14    1
    10    18    19    1
    11    19    20    1
    12    20    18    1
    13     6    23    1
    14     6     1   ar
    15    24    23    1
    16    24    25    1
    17    25    26    1
    18    26    27    1
    19    27    28    1
    20    28    24    1
    21     9     7   am
    22    10    13    1
    23    15    16   ar
    24     1     2   ar
    25     3     4   ar
    26     7     8    2
    27    13    15   ar
    28    14    16   ar
    29     5     6   ar
    30     9    11    1
    31    10    12    1
@<TRIPOS>MOLECULE
MolPort-001-807-228 CSSS03437702633 MCULE-7238973406 PubChem-2811213 ZINC000001031142 ZINC01031142
 28 31 0 0 0
SMALL
GASTEIGER

@<TRIPOS>ATOM
      1 C           6.9224   41.6505   11.0732 C.ar    1  UNL1        0.1725
      2 C           7.8988   41.5243   12.0750 C.ar    1  UNL1        0.0413
      3 C           9.2045   41.1528   11.7554 C.ar    1  UNL1        0.0180
      4 C           9.5602   40.8965   10.4267 C.ar    1  UNL1        0.0548
      5 C           8.5946   41.0238    9.4257 C.ar    1  UNL1        0.0547
      6 C           7.2815   41.4047    9.7251 C.ar    1  UNL1        0.1733
      7 C          11.8740   41.3194    9.4035 C.2     1  UNL1        0.3096
      8 O          11.6164   42.5118    9.0881 O.2     1  UNL1       -0.2521
      9 N          10.8901   40.5073   10.0567 N.am    1  UNL1       -0.2679
     10 N          13.1552   40.7482    9.1160 N.am    1  UNL1       -0.2468
     11 H          11.1552   39.5845   10.2745 H       1  UNL1        0.1564
     12 H          13.2934   39.8115    9.3854 H       1  UNL1        0.1584
     13 C          14.2560   41.4044    8.4751 C.ar    1  UNL1        0.1889
     14 C          16.3156   42.3362    7.6637 C.ar    1  UNL1        0.1119
     15 N          14.0915   42.2061    7.4013 N.ar    1  UNL1       -0.1256
     16 N          15.2343   42.7179    6.9470 N.ar    1  UNL1       -0.1440
     17 S          15.8824   41.2922    8.9146 S.2     1  UNL1       -0.0347
     18 C          17.7165   42.7258    7.3223 C.3     1  UNL1        0.0484
     19 C          17.9555   44.1740    7.7076 C.3     1  UNL1        0.0069
     20 C          17.7086   43.8109    6.2611 C.3     1  UNL1        0.0069
     21 C           4.5351   41.0702   11.4067 C.3     1  UNL1        0.2526
     22 O           5.6096   42.0007   11.4087 O.3     1  UNL1       -0.4684
     23 O           6.3845   41.5104    8.6505 O.3     1  UNL1       -0.4761
     24 C           6.7581   41.5951    7.2805 C.3     1  UNL1        0.1660
     25 C           6.5806   40.2392    6.6200 C.3     1  UNL1        0.0435
     26 C           7.9655   39.7490    6.2546 C.3     1  UNL1        0.0038
     27 C           8.8180   40.9907    6.1575 C.3     1  UNL1        0.0038
     28 C           8.2317   41.9497    7.1672 C.3     1  UNL1        0.0435
@<TRIPOS>BOND
     1    21    22    1
     2     1    22    1
     3     2     3   ar
     4     4     9    1
     5     4     5   ar
     6     7    10   am
     7    13    17   ar
     8    14    17   ar
     9    18    14    1
    10    18    19    1
    11    19    20    1
    12    20    18    1
    13     6    23    1
    14     6     1   ar
    15    24    23    1
    16    24    25    1
    17    25    26    1
    18    26    27    1
    19    27    28    1
    20    28    24    1
    21     9     7   am
    22    10    13    1
    23    15    16   ar
    24     1     2   ar
    25     3     4   ar
    26     7     8    2
    27    13    15   ar
    28    14    16   ar
    29     5     6   ar
    30     9    11    1
    31    10    12    1
@<TRIPOS>MOLECULE
MolPort-001-807-228 CSSS03437702633 MCULE-7238973406 PubChem-2811213 ZINC000001031142 ZINC01031142
 28 31 0 0 0
SMALL
GASTEIGER

@<TRIPOS>ATOM
      1 C          12.9129   37.1231    9.7793 C.ar    1  UNL1        0.1725
      2 C          11.5198   37.2418    9.6451 C.ar    1  UNL1        0.0413
      3 C          10.9590   38.3147    8.9528 C.ar    1  UNL1        0.0180
      4 C          11.7802   39.2937    8.3828 C.ar    1  UNL1        0.0548
      5 C          13.1663   39.1792    8.5099 C.ar    1  UNL1        0.0547
      6 C          13.7486   38.1050    9.1925 C.ar    1  UNL1        0.1733
      7 C           9.8917   40.8904    7.7020 C.2     1  UNL1        0.3096
      8 O           9.0253   40.3129    8.4117 O.2     1  UNL1       -0.2521
      9 N          11.2434   40.4149    7.6677 N.am    1  UNL1       -0.2679
     10 N           9.5456   42.0342    6.9133 N.am    1  UNL1       -0.2468
     11 H          11.8697   40.9105    7.0921 H       1  UNL1        0.1564
     12 H          10.2667   42.4388    6.3789 H       1  UNL1        0.1584
     13 C           8.2542   42.6486    6.8245 C.ar    1  UNL1        0.1889
     14 C           6.1522   43.7921    7.0311 C.ar    1  UNL1        0.1119
     15 N           7.4939   42.5710    5.7115 N.ar    1  UNL1       -0.1256
     16 N           6.3307   43.2105    5.8234 N.ar    1  UNL1       -0.1440
     17 S           7.4883   43.5488    8.0302 S.2     1  UNL1       -0.0347
     18 C           4.9587   44.6169    7.3860 C.3     1  UNL1        0.0484
     19 C           4.8821   44.7886    8.8918 C.3     1  UNL1        0.0069
     20 C           3.9813   43.7901    8.2013 C.3     1  UNL1        0.0069
     21 C          13.2004   34.6937   10.1826 C.3     1  UNL1        0.2526
     22 O          13.4634   36.0548   10.4966 O.3     1  UNL1       -0.4684
     23 O          15.1502   38.0748    9.2625 O.3     1  UNL1       -0.4761
     24 C          15.9265   38.6132   10.3261 C.3     1  UNL1        0.1660
     25 C          16.5341   39.9360    9.8935 C.3     1  UNL1        0.0435
     26 C          18.0316   39.7249    9.8256 C.3     1  UNL1        0.0038
     27 C          18.3135   38.5544   10.7358 C.3     1  UNL1        0.0038
     28 C          17.0838   37.6811   10.6450 C.3     1  UNL1        0.0435
@<TRIPOS>BOND
     1    21    22    1
     2     1    22    1
     3     2     3   ar
     4     4     9    1
     5     4     5   ar
     6     7    10   am
     7    13    17   ar
     8    14    17   ar
     9    18    14    1
    10    18    19    1
    11    19    20    1
    12    20    18    1
    13     6    23    1
    14     6     1   ar
    15    24    23    1
    16    24    25    1
    17    25    26    1
    18    26    27    1
    19    27    28    1
    20    28    24    1
    21     9     7   am
    22    10    13    1
    23    15    16   ar
    24     1     2   ar
    25     3     4   ar
    26     7     8    2
    27    13    15   ar
    28    14    16   ar
    29     5     6   ar
    30     9    11    1
    31    10    12    1
@<TRIPOS>MOLECULE
MolPort-001-807-228 CSSS03437702633 MCULE-7238973406 PubChem-2811213 ZINC000001031142 ZINC01031142
 28 31 0 0 0
SMALL
GASTEIGER

@<TRIPOS>ATOM
      1 C          13.2211   37.2974   10.6132 C.ar    1  UNL1        0.1725
      2 C          11.9769   37.4352    9.9763 C.ar    1  UNL1        0.0413
      3 C          11.3500   38.6785    9.8976 C.ar    1  UNL1        0.0180
      4 C          11.9533   39.8100   10.4575 C.ar    1  UNL1        0.0548
      5 C          13.1923   39.6798   11.0889 C.ar    1  UNL1        0.0547
      6 C          13.8418   38.4427   11.1698 C.ar    1  UNL1        0.1733
      7 C          10.0982   41.4431    9.7714 C.2     1  UNL1        0.3096
      8 O           9.4172   40.5628    9.1806 O.2     1  UNL1       -0.2521
      9 N          11.3398   41.1051   10.4026 N.am    1  UNL1       -0.2679
     10 N           9.6476   42.8012    9.8251 N.am    1  UNL1       -0.2468
     11 H          11.8227   41.8399   10.8455 H       1  UNL1        0.1564
     12 H          10.2257   43.4416   10.2994 H       1  UNL1        0.1584
     13 C           8.4391   43.3208    9.2573 C.ar    1  UNL1        0.1889
     14 C           6.3512   43.8373    8.1883 C.ar    1  UNL1        0.1119
     15 N           8.0973   44.6231    9.3571 N.ar    1  UNL1       -0.1256
     16 N           6.9362   44.9088    8.7699 N.ar    1  UNL1       -0.1440
     17 S           7.2712   42.4422    8.4116 S.2     1  UNL1       -0.0347
     18 C           5.0176   43.8831    7.5173 C.3     1  UNL1        0.0484
     19 C           4.3637   45.2299    7.7650 C.3     1  UNL1        0.0069
     20 C           3.9194   44.0206    8.5559 C.3     1  UNL1        0.0069
     21 C          13.6278   35.0090    9.7499 C.3     1  UNL1        0.2526
     22 O          13.8295   36.0405   10.7069 O.3     1  UNL1       -0.4684
     23 O          15.0858   38.4137   11.8195 O.3     1  UNL1       -0.4761
     24 C          16.3454   38.5789   11.1792 C.3     1  UNL1        0.1660
     25 C          16.1919   38.3447    9.6866 C.3     1  UNL1        0.0435
     26 C          16.9673   37.0857    9.3622 C.3     1  UNL1        0.0038
     27 C          17.9882   36.9476   10.4653 C.3     1  UNL1        0.0038
     28 C          17.3256   37.5355   11.6895 C.3     1  UNL1        0.0435
@<TRIPOS>BOND
     1    21    22    1
     2     1    22    1
     3     2     3   ar
     4     4     9    1
     5     4     5   ar
     6     7    10   am
     7    13    17   ar
     8    14    17   ar
     9    18    14    1
    10    18    19    1
    11    19    20    1
    12    20    18    1
    13     6    23    1
    14     6     1   ar
    15    24    23    1
    16    24    25    1
    17    25    26    1
    18    26    27    1
    19    27    28    1
    20    28    24    1
    21     9     7   am
    22    10    13    1
    23    15    16   ar
    24     1     2   ar
    25     3     4   ar
    26     7     8    2
    27    13    15   ar
    28    14    16   ar
    29     5     6   ar
    30     9    11    1
    31    10    12    1
