@<TRIPOS>MOLECULE
MolPort-002-865-767 5540775 CHEMBL1416512 CSSS00138423846 MCULE-2130640142 PubChem-3614254 ZINC000005540775 ZINC05540775
 23 24 0 0 0
SMALL
GASTEIGER

@<TRIPOS>ATOM
      1 C           9.8992   39.4769    3.8946 C.2     1  UNL1        0.2505
      2 C           9.2057   40.2454    7.6413 C.ar    1  UNL1        0.1866
      3 C           8.5081   40.7411    5.5672 C.ar    1  UNL1        0.3636
      4 O           9.2998   39.9334    2.8841 O.2     1  UNL1       -0.2710
      5 O           7.7868   41.3174    4.7104 O.2     1  UNL1       -0.2434
      6 N           9.5022   39.8741    5.2163 N.ar    1  UNL1       -0.1954
      7 N           8.3258   40.9617    6.9049 N.ar    1  UNL1       -0.1687
      8 S          10.1913   39.3551    6.6386 S.2     1  UNL1        0.0364
      9 C           9.1360   41.4175    9.8923 C.2     1  UNL1        0.2509
     10 O           8.9273   42.5460    9.3685 O.2     1  UNL1       -0.2698
     11 N           9.2796   40.2524    9.0697 N.am    1  UNL1       -0.2594
     12 H           9.4411   39.3928    9.5216 H       1  UNL1        0.1571
     13 C           9.2326   41.2964   11.3577 C.ar    1  UNL1        0.0537
     14 C          10.4761   41.0877   11.9731 C.ar    1  UNL1        0.0042
     15 C          10.5664   40.9729   13.3635 C.ar    1  UNL1       -0.0041
     16 C           9.4144   41.0659   14.1487 C.ar    1  UNL1       -0.0218
     17 C           9.5104   40.9439   15.6266 C.3     1  UNL1        0.0310
     18 C           8.1717   41.2736   13.5441 C.ar    1  UNL1       -0.0041
     19 C           8.0812   41.3884   12.1537 C.ar    1  UNL1        0.0042
     20 C          11.0212   38.5065    3.7003 C.3     1  UNL1        0.0891
     21 C          10.6567   36.0454    3.8584 C.3     1  UNL1        0.0005
     22 C          10.5501   37.2642    2.9608 C.3     1  UNL1        0.0093
     23 C           9.1060   37.4482    2.5453 C.3     1  UNL1        0.0005
@<TRIPOS>BOND
     1    21    22    1
     2    22    23    1
     3    22    20    1
     4    20     1    1
     5     1     6   am
     6     2     8   ar
     7     2    11    1
     8     9    13    1
     9    14    15   ar
    10    16    18   ar
    11    17    16    1
    12    19    13   ar
    13     3     7   ar
    14     3     6   ar
    15     6     8   ar
    16    11     9   am
    17     1     4    2
    18     2     7   ar
    19     9    10    2
    20    13    14   ar
    21    15    16   ar
    22    18    19   ar
    23     3     5    2
    24    11    12    1
@<TRIPOS>MOLECULE
MolPort-002-865-767 5540775 CHEMBL1416512 CSSS00138423846 MCULE-2130640142 PubChem-3614254 ZINC000005540775 ZINC05540775
 23 24 0 0 0
SMALL
GASTEIGER

@<TRIPOS>ATOM
      1 C           5.9607   43.3119    8.9547 C.2     1  UNL1        0.2505
      2 C           9.5993   42.3732    9.9494 C.ar    1  UNL1        0.1866
      3 C           8.2992   44.1208    9.4113 C.ar    1  UNL1        0.3636
      4 O           5.4955   44.4553    8.6999 O.2     1  UNL1       -0.2710
      5 O           8.0495   45.3359    9.1920 O.2     1  UNL1       -0.2434
      6 N           7.3430   43.1521    9.3100 N.ar    1  UNL1       -0.1954
      7 N           9.5561   43.7125    9.7643 N.ar    1  UNL1       -0.1687
      8 S           8.0955   41.7146    9.6764 S.2     1  UNL1        0.0364
      9 C          11.8578   41.3276    9.4480 C.2     1  UNL1        0.2509
     10 O          11.8425   41.7185    8.2487 O.2     1  UNL1       -0.2698
     11 N          10.7642   41.6322   10.3232 N.am    1  UNL1       -0.2594
     12 H          10.8189   41.3071   11.2508 H       1  UNL1        0.1571
     13 C          13.0061   40.5537    9.9519 C.ar    1  UNL1        0.0537
     14 C          12.8919   39.7967   11.1277 C.ar    1  UNL1        0.0042
     15 C          13.9821   39.0629   11.6049 C.ar    1  UNL1       -0.0041
     16 C          15.1942   39.0806   10.9100 C.ar    1  UNL1       -0.0218
     17 C          16.3530   38.3007   11.4172 C.3     1  UNL1        0.0310
     18 C          15.3168   39.8320    9.7382 C.ar    1  UNL1       -0.0041
     19 C          14.2267   40.5658    9.2609 C.ar    1  UNL1        0.0042
     20 C           5.0520   42.1250    8.8946 C.3     1  UNL1        0.0891
     21 C           2.7802   41.3096    9.5180 C.3     1  UNL1        0.0005
     22 C           3.9034   42.2631    9.8813 C.3     1  UNL1        0.0093
     23 C           4.3994   41.9362   11.2737 C.3     1  UNL1        0.0005
@<TRIPOS>BOND
     1    21    22    1
     2    22    23    1
     3    22    20    1
     4    20     1    1
     5     1     6   am
     6     2     8   ar
     7     2    11    1
     8     9    13    1
     9    14    15   ar
    10    16    18   ar
    11    17    16    1
    12    19    13   ar
    13     3     7   ar
    14     3     6   ar
    15     6     8   ar
    16    11     9   am
    17     1     4    2
    18     2     7   ar
    19     9    10    2
    20    13    14   ar
    21    15    16   ar
    22    18    19   ar
    23     3     5    2
    24    11    12    1
@<TRIPOS>MOLECULE
MolPort-002-865-767 5540775 CHEMBL1416512 CSSS00138423846 MCULE-2130640142 PubChem-3614254 ZINC000005540775 ZINC05540775
 23 24 0 0 0
SMALL
GASTEIGER

@<TRIPOS>ATOM
      1 C           6.9548   40.0978    6.4223 C.2     1  UNL1        0.2505
      2 C          10.7092   40.9531    5.8911 C.ar    1  UNL1        0.1866
      3 C           9.0654   39.6256    5.1365 C.ar    1  UNL1        0.3636
      4 O           6.2557   39.2515    5.8027 O.2     1  UNL1       -0.2710
      5 O           8.5614   38.7326    4.4048 O.2     1  UNL1       -0.2434
      6 N           8.3389   40.2825    6.0870 N.ar    1  UNL1       -0.1954
      7 N          10.3803   39.9808    5.0102 N.ar    1  UNL1       -0.1687
      8 S           9.3816   41.3590    6.8088 S.2     1  UNL1        0.0364
      9 C          12.7930   41.5467    7.2144 C.2     1  UNL1        0.2509
     10 O          12.3576   41.0000    8.2646 O.2     1  UNL1       -0.2698
     11 N          12.0055   41.5444    6.0166 N.am    1  UNL1       -0.2594
     12 H          12.3852   41.9826    5.2210 H       1  UNL1        0.1571
     13 C          14.1183   42.1908    7.2189 C.ar    1  UNL1        0.0537
     14 C          15.1547   41.6785    8.0138 C.ar    1  UNL1        0.0042
     15 C          16.4117   42.2906    8.0174 C.ar    1  UNL1       -0.0041
     16 C          16.6415   43.4193    7.2264 C.ar    1  UNL1       -0.0218
     17 C          17.9776   44.0699    7.2301 C.3     1  UNL1        0.0310
     18 C          15.6148   43.9364    6.4318 C.ar    1  UNL1       -0.0041
     19 C          14.3578   43.3243    6.4281 C.ar    1  UNL1        0.0042
     20 C           6.3214   40.9162    7.5027 C.3     1  UNL1        0.0891
     21 C           6.8848   43.3051    7.9393 C.3     1  UNL1        0.0005
     22 C           7.3276   41.8666    8.1322 C.3     1  UNL1        0.0093
     23 C           7.4305   41.5747    9.6141 C.3     1  UNL1        0.0005
@<TRIPOS>BOND
     1    21    22    1
     2    22    23    1
     3    22    20    1
     4    20     1    1
     5     1     6   am
     6     2     8   ar
     7     2    11    1
     8     9    13    1
     9    14    15   ar
    10    16    18   ar
    11    17    16    1
    12    19    13   ar
    13     3     7   ar
    14     3     6   ar
    15     6     8   ar
    16    11     9   am
    17     1     4    2
    18     2     7   ar
    19     9    10    2
    20    13    14   ar
    21    15    16   ar
    22    18    19   ar
    23     3     5    2
    24    11    12    1
@<TRIPOS>MOLECULE
MolPort-002-865-767 5540775 CHEMBL1416512 CSSS00138423846 MCULE-2130640142 PubChem-3614254 ZINC000005540775 ZINC05540775
 23 24 0 0 0
SMALL
GASTEIGER

@<TRIPOS>ATOM
      1 C          11.2673   39.8880    6.1207 C.2     1  UNL1        0.2505
      2 C           7.7066   40.3256    7.6171 C.ar    1  UNL1        0.1866
      3 C           8.7923   39.9988    5.6810 C.ar    1  UNL1        0.3636
      4 O          11.5861   39.7041    4.9151 O.2     1  UNL1       -0.2710
      5 O           8.8853   39.8318    4.4360 O.2     1  UNL1       -0.2434
      6 N           9.8878   40.0279    6.4947 N.ar    1  UNL1       -0.1954
      7 N           7.5738   40.1615    6.2810 N.ar    1  UNL1       -0.1687
      8 S           9.3157   40.2686    8.0379 S.2     1  UNL1        0.0364
      9 C           6.0184   41.7851    8.8277 C.2     1  UNL1        0.2509
     10 O           6.4302   42.8364    8.2650 O.2     1  UNL1       -0.2698
     11 N           6.6253   40.5204    8.5328 N.am    1  UNL1       -0.2594
     12 H           6.2714   39.7266    8.9952 H       1  UNL1        0.1571
     13 C           4.9074   41.8577    9.7930 C.ar    1  UNL1        0.0537
     14 C           4.8763   41.0041   10.9060 C.ar    1  UNL1        0.0042
     15 C           3.8216   41.0738   11.8212 C.ar    1  UNL1       -0.0041
     16 C           2.7906   41.9973   11.6302 C.ar    1  UNL1       -0.0218
     17 C           1.6696   42.0714   12.6029 C.3     1  UNL1        0.0310
     18 C           2.8135   42.8511   10.5241 C.ar    1  UNL1       -0.0041
     19 C           3.8681   42.7815    9.6089 C.ar    1  UNL1        0.0042
     20 C          12.3432   39.9462    7.1587 C.3     1  UNL1        0.0891
     21 C          12.7751   42.0715    5.9293 C.3     1  UNL1        0.0005
     22 C          12.9442   41.3401    7.2480 C.3     1  UNL1        0.0093
     23 C          12.2405   42.1181    8.3395 C.3     1  UNL1        0.0005
@<TRIPOS>BOND
     1    21    22    1
     2    22    23    1
     3    22    20    1
     4    20     1    1
     5     1     6   am
     6     2     8   ar
     7     2    11    1
     8     9    13    1
     9    14    15   ar
    10    16    18   ar
    11    17    16    1
    12    19    13   ar
    13     3     7   ar
    14     3     6   ar
    15     6     8   ar
    16    11     9   am
    17     1     4    2
    18     2     7   ar
    19     9    10    2
    20    13    14   ar
    21    15    16   ar
    22    18    19   ar
    23     3     5    2
    24    11    12    1
@<TRIPOS>MOLECULE
MolPort-002-865-767 5540775 CHEMBL1416512 CSSS00138423846 MCULE-2130640142 PubChem-3614254 ZINC000005540775 ZINC05540775
 23 24 0 0 0
SMALL
GASTEIGER

@<TRIPOS>ATOM
      1 C           3.9116   42.9784    9.1607 C.2     1  UNL1        0.2505
      2 C           7.7692   42.6501    8.8138 C.ar    1  UNL1        0.1866
      3 C           6.0646   44.0586    8.4337 C.ar    1  UNL1        0.3636
      4 O           3.1837   43.9575    8.8440 O.2     1  UNL1       -0.2710
      5 O           5.5333   45.1326    8.0450 O.2     1  UNL1       -0.2434
      6 N           5.3326   43.0345    8.9612 N.ar    1  UNL1       -0.1954
      7 N           7.4161   43.8679    8.3426 N.ar    1  UNL1       -0.1687
      8 S           6.4176   41.8297    9.3330 S.2     1  UNL1        0.0364
      9 C           9.7940   41.7500   10.0530 C.2     1  UNL1        0.2509
     10 O           9.2250   41.8397   11.1753 O.2     1  UNL1       -0.2698
     11 N           9.1054   42.1418    8.8584 N.am    1  UNL1       -0.2594
     12 H           9.5882   42.0545    8.0049 H       1  UNL1        0.1571
     13 C          11.1738   41.2396    9.9697 C.ar    1  UNL1        0.0537
     14 C          12.0030   41.6048    8.8984 C.ar    1  UNL1        0.0042
     15 C          13.3120   41.1198    8.8204 C.ar    1  UNL1       -0.0041
     16 C          13.8013   40.2663    9.8127 C.ar    1  UNL1       -0.0218
     17 C          15.1926   39.7509    9.7297 C.3     1  UNL1        0.0310
     18 C          12.9822   39.8974   10.8830 C.ar    1  UNL1       -0.0041
     19 C          11.6732   40.3823   10.9612 C.ar    1  UNL1        0.0042
     20 C           3.2780   41.7621    9.7585 C.3     1  UNL1        0.0891
     21 C           2.1970   42.0976   11.9797 C.3     1  UNL1        0.0005
     22 C           3.4817   41.7217   11.2648 C.3     1  UNL1        0.0093
     23 C           3.8861   40.3222   11.6766 C.3     1  UNL1        0.0005
@<TRIPOS>BOND
     1    21    22    1
     2    22    23    1
     3    22    20    1
     4    20     1    1
     5     1     6   am
     6     2     8   ar
     7     2    11    1
     8     9    13    1
     9    14    15   ar
    10    16    18   ar
    11    17    16    1
    12    19    13   ar
    13     3     7   ar
    14     3     6   ar
    15     6     8   ar
    16    11     9   am
    17     1     4    2
    18     2     7   ar
    19     9    10    2
    20    13    14   ar
    21    15    16   ar
    22    18    19   ar
    23     3     5    2
    24    11    12    1
@<TRIPOS>MOLECULE
MolPort-002-865-767 5540775 CHEMBL1416512 CSSS00138423846 MCULE-2130640142 PubChem-3614254 ZINC000005540775 ZINC05540775
 23 24 0 0 0
SMALL
GASTEIGER

@<TRIPOS>ATOM
      1 C          15.7578   37.1052    9.8064 C.2     1  UNL1        0.2505
      2 C          12.8833   39.6565   10.3873 C.ar    1  UNL1        0.1866
      3 C          14.6126   38.6637   11.4159 C.ar    1  UNL1        0.3636
      4 O          16.6360   36.7243   10.6264 O.2     1  UNL1       -0.2710
      5 O          15.3813   38.4207   12.3838 O.2     1  UNL1       -0.2434
      6 N          14.7647   38.0656   10.1985 N.ar    1  UNL1       -0.1954
      7 N          13.5773   39.5486   11.5434 N.ar    1  UNL1       -0.1687
      8 S          13.5518   38.6645    9.2304 S.2     1  UNL1        0.0364
      9 C          11.6956   41.6152    9.2926 C.2     1  UNL1        0.2509
     10 O          12.7068   41.9244    8.6045 O.2     1  UNL1       -0.2698
     11 N          11.7434   40.4971   10.1883 N.am    1  UNL1       -0.2594
     12 H          10.9308   40.2925   10.7051 H       1  UNL1        0.1571
     13 C          10.4590   42.4077    9.1748 C.ar    1  UNL1        0.0537
     14 C           9.5013   42.0898    8.1999 C.ar    1  UNL1        0.0042
     15 C           8.3284   42.8425    8.0891 C.ar    1  UNL1       -0.0041
     16 C           8.1044   43.9185    8.9520 C.ar    1  UNL1       -0.0218
     17 C           6.8577   44.7185    8.8343 C.3     1  UNL1        0.0310
     18 C           9.0530   44.2422    9.9258 C.ar    1  UNL1       -0.0041
     19 C          10.2259   43.4896   10.0368 C.ar    1  UNL1        0.0042
     20 C          15.7705   36.5534    8.4158 C.3     1  UNL1        0.0891
     21 C          16.1635   34.0965    8.5701 C.3     1  UNL1        0.0005
     22 C          15.1207   35.1796    8.3649 C.3     1  UNL1        0.0093
     23 C          14.0800   35.0788    9.4596 C.3     1  UNL1        0.0005
@<TRIPOS>BOND
     1    21    22    1
     2    22    23    1
     3    22    20    1
     4    20     1    1
     5     1     6   am
     6     2     8   ar
     7     2    11    1
     8     9    13    1
     9    14    15   ar
    10    16    18   ar
    11    17    16    1
    12    19    13   ar
    13     3     7   ar
    14     3     6   ar
    15     6     8   ar
    16    11     9   am
    17     1     4    2
    18     2     7   ar
    19     9    10    2
    20    13    14   ar
    21    15    16   ar
    22    18    19   ar
    23     3     5    2
    24    11    12    1
@<TRIPOS>MOLECULE
MolPort-002-865-767 5540775 CHEMBL1416512 CSSS00138423846 MCULE-2130640142 PubChem-3614254 ZINC000005540775 ZINC05540775
 23 24 0 0 0
SMALL
GASTEIGER

@<TRIPOS>ATOM
      1 C          15.2584   41.5118    8.3410 C.2     1  UNL1        0.2505
      2 C          11.4710   41.7390    9.1858 C.ar    1  UNL1        0.1866
      3 C          13.3225   40.5526    9.6308 C.ar    1  UNL1        0.3636
      4 O          16.1034   40.6849    8.7778 O.2     1  UNL1       -0.2710
      5 O          13.9886   39.6351   10.1798 O.2     1  UNL1       -0.2434
      6 N          13.8888   41.4460    8.7682 N.ar    1  UNL1       -0.1954
      7 N          11.9846   40.6960    9.8770 N.ar    1  UNL1       -0.1687
      8 S          12.6668   42.4659    8.2851 S.2     1  UNL1        0.0364
      9 C           9.1641   41.9799    8.1533 C.2     1  UNL1        0.2509
     10 O           9.5184   41.4222    7.0786 O.2     1  UNL1       -0.2698
     11 N          10.1031   42.1554    9.2220 N.am    1  UNL1       -0.2594
     12 H           9.7826   42.5955   10.0423 H       1  UNL1        0.1571
     13 C           7.7775   42.4531    8.3108 C.ar    1  UNL1        0.0537
     14 C           7.4478   43.7897    8.0399 C.ar    1  UNL1        0.0042
     15 C           6.1319   44.2376    8.1897 C.ar    1  UNL1       -0.0041
     16 C           5.1363   43.3526    8.6115 C.ar    1  UNL1       -0.0218
     17 C           3.7376   43.8286    8.7708 C.3     1  UNL1        0.0310
     18 C           5.4559   42.0197    8.8837 C.ar    1  UNL1       -0.0041
     19 C           6.7718   41.5717    8.7338 C.ar    1  UNL1        0.0042
     20 C          15.7025   42.5704    7.3816 C.3     1  UNL1        0.0891
     21 C          17.6982   43.6765    6.3774 C.3     1  UNL1        0.0005
     22 C          17.1748   42.8996    7.5712 C.3     1  UNL1        0.0093
     23 C          17.3418   43.7390    8.8199 C.3     1  UNL1        0.0005
@<TRIPOS>BOND
     1    21    22    1
     2    22    23    1
     3    22    20    1
     4    20     1    1
     5     1     6   am
     6     2     8   ar
     7     2    11    1
     8     9    13    1
     9    14    15   ar
    10    16    18   ar
    11    17    16    1
    12    19    13   ar
    13     3     7   ar
    14     3     6   ar
    15     6     8   ar
    16    11     9   am
    17     1     4    2
    18     2     7   ar
    19     9    10    2
    20    13    14   ar
    21    15    16   ar
    22    18    19   ar
    23     3     5    2
    24    11    12    1
@<TRIPOS>MOLECULE
MolPort-002-865-767 5540775 CHEMBL1416512 CSSS00138423846 MCULE-2130640142 PubChem-3614254 ZINC000005540775 ZINC05540775
 23 24 0 0 0
SMALL
GASTEIGER

@<TRIPOS>ATOM
      1 C          14.0427   40.4746    9.5451 C.2     1  UNL1        0.2505
      2 C          10.2744   41.4130    9.7161 C.ar    1  UNL1        0.1866
      3 C          12.1526   41.8075    8.5539 C.ar    1  UNL1        0.3636
      4 O          14.9076   40.8801    8.7227 O.2     1  UNL1       -0.2710
      5 O          12.8455   42.3391    7.6461 O.2     1  UNL1       -0.2434
      6 N          12.6839   40.9308    9.4551 N.ar    1  UNL1       -0.1954
      7 N          10.8199   42.0892    8.6794 N.ar    1  UNL1       -0.1687
      8 S          11.4365   40.4826   10.4601 S.2     1  UNL1        0.0364
      9 C           7.8428   42.0208    9.3114 C.2     1  UNL1        0.2509
     10 O           8.0826   42.4718    8.1579 O.2     1  UNL1       -0.2698
     11 N           8.9029   41.4871   10.1152 N.am    1  UNL1       -0.2594
     12 H           8.6696   41.1460   11.0088 H       1  UNL1        0.1571
     13 C           6.4657   42.0426    9.8352 C.ar    1  UNL1        0.0537
     14 C           5.4657   42.7721    9.1746 C.ar    1  UNL1        0.0042
     15 C           4.1594   42.7922    9.6725 C.ar    1  UNL1       -0.0041
     16 C           3.8435   42.0832   10.8344 C.ar    1  UNL1       -0.0218
     17 C           2.4551   42.1045   11.3636 C.3     1  UNL1        0.0310
     18 C           4.8334   41.3541   11.4988 C.ar    1  UNL1       -0.0041
     19 C           6.1397   41.3340   11.0010 C.ar    1  UNL1        0.0042
     20 C          14.4465   39.5027   10.6083 C.3     1  UNL1        0.0891
     21 C          15.4876   37.5375    9.4818 C.3     1  UNL1        0.0005
     22 C          14.2331   38.0686   10.1502 C.3     1  UNL1        0.0093
     23 C          13.9075   37.2045   11.3498 C.3     1  UNL1        0.0005
@<TRIPOS>BOND
     1    21    22    1
     2    22    23    1
     3    22    20    1
     4    20     1    1
     5     1     6   am
     6     2     8   ar
     7     2    11    1
     8     9    13    1
     9    14    15   ar
    10    16    18   ar
    11    17    16    1
    12    19    13   ar
    13     3     7   ar
    14     3     6   ar
    15     6     8   ar
    16    11     9   am
    17     1     4    2
    18     2     7   ar
    19     9    10    2
    20    13    14   ar
    21    15    16   ar
    22    18    19   ar
    23     3     5    2
    24    11    12    1
@<TRIPOS>MOLECULE
MolPort-002-865-767 5540775 CHEMBL1416512 CSSS00138423846 MCULE-2130640142 PubChem-3614254 ZINC000005540775 ZINC05540775
 23 24 0 0 0
SMALL
GASTEIGER

@<TRIPOS>ATOM
      1 C           7.1681   40.9922    7.6806 C.2     1  UNL1        0.2505
      2 C          10.7675   42.2233    8.4797 C.ar    1  UNL1        0.1866
      3 C           8.7936   41.7607    9.4408 C.ar    1  UNL1        0.3636
      4 O           6.2120   40.8144    8.4824 O.2     1  UNL1       -0.2710
      5 O           7.9850   41.6594   10.4014 O.2     1  UNL1       -0.2434
      6 N           8.4412   41.4543    8.1582 N.ar    1  UNL1       -0.1954
      7 N          10.0771   42.1885    9.6424 N.ar    1  UNL1       -0.1687
      8 S           9.7910   41.7291    7.2259 S.2     1  UNL1        0.0364
      9 C          13.1584   41.8509    7.7110 C.2     1  UNL1        0.2509
     10 O          12.8893   40.7225    7.2153 O.2     1  UNL1       -0.2698
     11 N          12.1335   42.6259    8.3464 N.am    1  UNL1       -0.2594
     12 H          12.3889   43.5006    8.7190 H       1  UNL1        0.1571
     13 C          14.5335   42.3751    7.6362 C.ar    1  UNL1        0.0537
     14 C          14.8212   43.5069    6.8585 C.ar    1  UNL1        0.0042
     15 C          16.1263   44.0033    6.7883 C.ar    1  UNL1       -0.0041
     16 C          17.1531   43.3718    7.4950 C.ar    1  UNL1       -0.0218
     17 C          18.5403   43.8994    7.4203 C.3     1  UNL1        0.0310
     18 C          16.8754   42.2439    8.2719 C.ar    1  UNL1       -0.0041
     19 C          15.5704   41.7474    8.3422 C.ar    1  UNL1        0.0042
     20 C           6.9638   40.7040    6.2268 C.3     1  UNL1        0.0891
     21 C           8.6639   39.4319    4.9206 C.3     1  UNL1        0.0005
     22 C           7.4806   39.3207    5.8640 C.3     1  UNL1        0.0093
     23 C           7.9176   38.6047    7.1242 C.3     1  UNL1        0.0005
@<TRIPOS>BOND
     1    21    22    1
     2    22    23    1
     3    22    20    1
     4    20     1    1
     5     1     6   am
     6     2     8   ar
     7     2    11    1
     8     9    13    1
     9    14    15   ar
    10    16    18   ar
    11    17    16    1
    12    19    13   ar
    13     3     7   ar
    14     3     6   ar
    15     6     8   ar
    16    11     9   am
    17     1     4    2
    18     2     7   ar
    19     9    10    2
    20    13    14   ar
    21    15    16   ar
    22    18    19   ar
    23     3     5    2
    24    11    12    1
@<TRIPOS>MOLECULE
MolPort-002-865-767 5540775 CHEMBL1416512 CSSS00138423846 MCULE-2130640142 PubChem-3614254 ZINC000005540775 ZINC05540775
 23 24 0 0 0
SMALL
GASTEIGER

@<TRIPOS>ATOM
      1 C          11.9290   40.6598    6.9602 C.2     1  UNL1        0.2505
      2 C           8.3998   41.5973    8.2926 C.ar    1  UNL1        0.1866
      3 C           9.6849   41.6796    6.4553 C.ar    1  UNL1        0.3636
      4 O          12.3951   40.8384    5.8028 O.2     1  UNL1       -0.2710
      5 O           9.9479   41.9570    5.2550 O.2     1  UNL1       -0.2434
      6 N          10.5901   41.0717    7.2763 N.ar    1  UNL1       -0.1954
      7 N           8.4652   41.9798    6.9968 N.ar    1  UNL1       -0.1687
      8 S           9.8391   40.8984    8.7504 S.2     1  UNL1        0.0364
      9 C           5.9606   41.2268    8.8914 C.2     1  UNL1        0.2509
     10 O           5.7459   40.5396    7.8554 O.2     1  UNL1       -0.2698
     11 N           7.2634   41.7687    9.1440 N.am    1  UNL1       -0.2594
     12 H           7.3850   42.2984    9.9649 H       1  UNL1        0.1571
     13 C           4.8663   41.4736    9.8468 C.ar    1  UNL1        0.0537
     14 C           3.8974   42.4527    9.5801 C.ar    1  UNL1        0.0042
     15 C           2.8596   42.6860   10.4875 C.ar    1  UNL1       -0.0041
     16 C           2.7830   41.9422   11.6678 C.ar    1  UNL1       -0.0218
     17 C           1.6799   42.1901   12.6322 C.3     1  UNL1        0.0310
     18 C           3.7439   40.9651   11.9415 C.ar    1  UNL1       -0.0041
     19 C           4.7817   40.7317   11.0343 C.ar    1  UNL1        0.0042
     20 C          12.7839   40.0020    7.9970 C.3     1  UNL1        0.0891
     21 C          14.7599   40.2840    9.4905 C.3     1  UNL1        0.0005
     22 C          13.7203   41.0048    8.6525 C.3     1  UNL1        0.0093
     23 C          14.4211   41.8094    7.5786 C.3     1  UNL1        0.0005
@<TRIPOS>BOND
     1    21    22    1
     2    22    23    1
     3    22    20    1
     4    20     1    1
     5     1     6   am
     6     2     8   ar
     7     2    11    1
     8     9    13    1
     9    14    15   ar
    10    16    18   ar
    11    17    16    1
    12    19    13   ar
    13     3     7   ar
    14     3     6   ar
    15     6     8   ar
    16    11     9   am
    17     1     4    2
    18     2     7   ar
    19     9    10    2
    20    13    14   ar
    21    15    16   ar
    22    18    19   ar
    23     3     5    2
    24    11    12    1
