@<TRIPOS>MOLECULE
MolPort-007-723-649 8588140 CHEMBL1592321 ChemDiv-E157-6989 MCULE-7455272593 PubChem-16017538 ZINC000008588140 ZINC08588140
 31 33 0 0 0
SMALL
GASTEIGER

@<TRIPOS>ATOM
      1 C           9.7704   42.1503    7.6468 C.ar    1  UNL1        0.2593
      2 C           7.4920   42.6561    7.1450 C.ar    1  UNL1        0.1894
      3 N           9.4034   41.7588    6.4073 N.ar    1  UNL1       -0.1187
      4 N           8.1321   42.0388    6.1272 N.ar    1  UNL1       -0.1239
      5 S           8.5002   42.8869    8.4717 S.2     1  UNL1       -0.0102
      6 C           5.5974   44.2318    7.7499 C.2     1  UNL1        0.2721
      7 N           6.1225   43.0672    7.1044 N.am    1  UNL1       -0.2597
      8 O           6.3375   44.9828    8.4390 O.2     1  UNL1       -0.2707
      9 H           5.4939   42.5070    6.5942 H       1  UNL1        0.1569
     10 C           4.1535   44.5669    7.5966 C.3     1  UNL1        0.2897
     11 O           3.4526   44.3008    8.8075 O.3     1  UNL1       -0.4656
     12 C           3.5806   43.1051    9.5230 C.ar    1  UNL1        0.1393
     13 C           2.7935   41.9797    9.2268 C.ar    1  UNL1        0.0378
     14 C           2.9450   40.8005    9.9617 C.ar    1  UNL1        0.0145
     15 C           3.8817   40.7386   10.9969 C.ar    1  UNL1        0.0579
     16 C           4.6657   41.8557   11.2979 C.ar    1  UNL1        0.0145
     17 C           4.5144   43.0352   10.5626 C.ar    1  UNL1        0.0378
     18 CL          4.0717   39.2622   11.9173 Cl      1  UNL1       -0.0822
     19 S          11.3881   41.9522    8.2890 S.O2    1  UNL1        0.1010
     20 O          12.3798   42.4302    7.2654 O.2     1  UNL1       -0.1477
     21 O          11.5460   42.7694    9.5404 O.2     1  UNL1       -0.1477
     22 C          10.6120   39.3227    8.3532 C.3     1  UNL1        0.1392
     23 N          11.6690   40.2769    8.6601 N.pl3   1  UNL1       -0.1870
     24 C          12.8967   39.8365    9.2750 C.ar    1  UNL1        0.0683
     25 C          14.1030   40.5135    9.0271 C.ar    1  UNL1        0.0119
     26 C          15.2955   40.0840    9.6162 C.ar    1  UNL1       -0.0209
     27 C          16.5622   40.8113    9.3441 C.3     1  UNL1        0.0311
     28 C          15.2964   38.9707   10.4597 C.ar    1  UNL1       -0.0084
     29 C          14.1047   38.2886   10.7153 C.ar    1  UNL1       -0.0209
     30 C          14.1037   37.1024   11.6098 C.3     1  UNL1        0.0311
     31 C          12.9131   38.7202   10.1276 C.ar    1  UNL1        0.0119
@<TRIPOS>BOND
     1    22    23    1
     2    25    26   ar
     3    27    26    1
     4    28    29   ar
     5    30    29    1
     6    31    24   ar
     7     1     5   ar
     8     2     7    1
     9     2     5   ar
    10    10     6    1
    11    10    11    1
    12    12    11    1
    13    13    14   ar
    14    15    18    1
    15    15    16   ar
    16    17    12   ar
    17    23    24    1
    18     3     4   ar
    19     7     6   am
    20    19    23    1
    21    19     1    1
    22    24    25   ar
    23    26    28   ar
    24    29    31   ar
    25     1     3   ar
    26     2     4   ar
    27     6     8    2
    28    12    13   ar
    29    14    15   ar
    30    16    17   ar
    31    19    20    2
    32    19    21    2
    33     7     9    1
@<TRIPOS>MOLECULE
MolPort-007-723-649 8588140 CHEMBL1592321 ChemDiv-E157-6989 MCULE-7455272593 PubChem-16017538 ZINC000008588140 ZINC08588140
 31 33 0 0 0
SMALL
GASTEIGER

@<TRIPOS>ATOM
      1 C          10.6858   41.7436    9.7901 C.ar    1  UNL1        0.2593
      2 C           8.9473   43.3437    9.4497 C.ar    1  UNL1        0.1894
      3 N          10.9884   42.9646   10.2821 N.ar    1  UNL1       -0.1187
      4 N          10.0200   43.8583   10.0909 N.ar    1  UNL1       -0.1239
      5 S           9.1584   41.7159    9.0811 S.2     1  UNL1       -0.0102
      6 C           6.8510   43.7499    8.0790 C.2     1  UNL1        0.2721
      7 N           7.7706   44.0883    9.1222 N.am    1  UNL1       -0.2597
      8 O           7.0438   42.7464    7.3424 O.2     1  UNL1       -0.2707
      9 H           7.5789   44.8940    9.6545 H       1  UNL1        0.1569
     10 C           5.6406   44.5927    7.8665 C.3     1  UNL1        0.2897
     11 O           4.7396   44.4493    8.9601 O.3     1  UNL1       -0.4656
     12 C           4.4364   43.2170    9.5499 C.ar    1  UNL1        0.1393
     13 C           5.2813   42.6285   10.5057 C.ar    1  UNL1        0.0378
     14 C           4.9503   41.3956   11.0749 C.ar    1  UNL1        0.0145
     15 C           3.7752   40.7430   10.6923 C.ar    1  UNL1        0.0579
     16 C           2.9322   41.3224    9.7400 C.ar    1  UNL1        0.0145
     17 C           3.2632   42.5559    9.1708 C.ar    1  UNL1        0.0378
     18 CL          3.3604   39.1993   11.4048 Cl      1  UNL1       -0.0822
     19 S          11.7437   40.3536    9.9218 S.O2    1  UNL1        0.1010
     20 O          12.6920   40.5709   11.0678 O.2     1  UNL1       -0.1477
     21 O          10.9330   39.1162   10.1870 O.2     1  UNL1       -0.1477
     22 C          12.3070   39.0032    7.6024 C.3     1  UNL1        0.1392
     23 N          12.6301   40.1505    8.4398 N.pl3   1  UNL1       -0.1870
     24 C          13.6720   41.0691    8.0526 C.ar    1  UNL1        0.0683
     25 C          14.9497   40.9858    8.6317 C.ar    1  UNL1        0.0119
     26 C          15.9589   41.8798    8.2632 C.ar    1  UNL1       -0.0209
     27 C          17.3046   41.7777    8.8848 C.3     1  UNL1        0.0311
     28 C          15.7022   42.8695    7.3117 C.ar    1  UNL1       -0.0084
     29 C          14.4370   42.9635    6.7276 C.ar    1  UNL1       -0.0209
     30 C          14.1607   44.0172    5.7172 C.3     1  UNL1        0.0311
     31 C          13.4297   42.0680    7.0951 C.ar    1  UNL1        0.0119
@<TRIPOS>BOND
     1    22    23    1
     2    25    26   ar
     3    27    26    1
     4    28    29   ar
     5    30    29    1
     6    31    24   ar
     7     1     5   ar
     8     2     7    1
     9     2     5   ar
    10    10     6    1
    11    10    11    1
    12    12    11    1
    13    13    14   ar
    14    15    18    1
    15    15    16   ar
    16    17    12   ar
    17    23    24    1
    18     3     4   ar
    19     7     6   am
    20    19    23    1
    21    19     1    1
    22    24    25   ar
    23    26    28   ar
    24    29    31   ar
    25     1     3   ar
    26     2     4   ar
    27     6     8    2
    28    12    13   ar
    29    14    15   ar
    30    16    17   ar
    31    19    20    2
    32    19    21    2
    33     7     9    1
@<TRIPOS>MOLECULE
MolPort-007-723-649 8588140 CHEMBL1592321 ChemDiv-E157-6989 MCULE-7455272593 PubChem-16017538 ZINC000008588140 ZINC08588140
 31 33 0 0 0
SMALL
GASTEIGER

@<TRIPOS>ATOM
      1 C          13.6617   38.5288    9.9231 C.ar    1  UNL1        0.2593
      2 C          11.4630   39.4172   10.1971 C.ar    1  UNL1        0.1894
      3 N          12.8097   38.1387    8.9503 N.ar    1  UNL1       -0.1187
      4 N          11.5825   38.6323    9.1034 N.ar    1  UNL1       -0.1239
      5 S          12.9111   39.5361   11.0449 S.2     1  UNL1       -0.0102
      6 C           9.9885   41.4692   10.4291 C.2     1  UNL1        0.2721
      7 N          10.2536   40.0720   10.5908 N.am    1  UNL1       -0.2597
      8 O          10.8497   42.2409    9.9295 O.2     1  UNL1       -0.2707
      9 H           9.5509   39.5201   11.0041 H       1  UNL1        0.1569
     10 C           8.6688   42.0186   10.8496 C.3     1  UNL1        0.2897
     11 O           7.6404   41.5560    9.9798 O.3     1  UNL1       -0.4656
     12 C           6.6415   42.3869    9.4600 C.ar    1  UNL1        0.1393
     13 C           5.2935   42.2393    9.8272 C.ar    1  UNL1        0.0378
     14 C           4.3197   43.0849    9.2885 C.ar    1  UNL1        0.0145
     15 C           4.6858   44.0813    8.3796 C.ar    1  UNL1        0.0579
     16 C           6.0249   44.2312    8.0086 C.ar    1  UNL1        0.0145
     17 C           6.9991   43.3855    8.5476 C.ar    1  UNL1        0.0378
     18 CL          3.4668   45.1404    7.7049 Cl      1  UNL1       -0.0822
     19 S          15.3523   38.0729    9.9741 S.O2    1  UNL1        0.1010
     20 O          15.5810   37.1853   11.1656 O.2     1  UNL1       -0.1477
     21 O          15.7173   37.3187    8.7264 O.2     1  UNL1       -0.1477
     22 C          17.3752   39.5319   11.1142 C.3     1  UNL1        0.1392
     23 N          16.3396   39.4994   10.0902 N.pl3   1  UNL1       -0.1870
     24 C          16.1335   40.6316    9.2214 C.ar    1  UNL1        0.0683
     25 C          14.9309   40.7760    8.5088 C.ar    1  UNL1        0.0119
     26 C          14.7319   41.8688    7.6605 C.ar    1  UNL1       -0.0209
     27 C          13.4542   42.0068    6.9147 C.3     1  UNL1        0.0311
     28 C          15.7341   42.8304    7.5132 C.ar    1  UNL1       -0.0084
     29 C          16.9342   42.6998    8.2158 C.ar    1  UNL1       -0.0209
     30 C          18.0029   43.7198    8.0585 C.3     1  UNL1        0.0311
     31 C          17.1311   41.6082    9.0650 C.ar    1  UNL1        0.0119
@<TRIPOS>BOND
     1    22    23    1
     2    25    26   ar
     3    27    26    1
     4    28    29   ar
     5    30    29    1
     6    31    24   ar
     7     1     5   ar
     8     2     7    1
     9     2     5   ar
    10    10     6    1
    11    10    11    1
    12    12    11    1
    13    13    14   ar
    14    15    18    1
    15    15    16   ar
    16    17    12   ar
    17    23    24    1
    18     3     4   ar
    19     7     6   am
    20    19    23    1
    21    19     1    1
    22    24    25   ar
    23    26    28   ar
    24    29    31   ar
    25     1     3   ar
    26     2     4   ar
    27     6     8    2
    28    12    13   ar
    29    14    15   ar
    30    16    17   ar
    31    19    20    2
    32    19    21    2
    33     7     9    1
@<TRIPOS>MOLECULE
MolPort-007-723-649 8588140 CHEMBL1592321 ChemDiv-E157-6989 MCULE-7455272593 PubChem-16017538 ZINC000008588140 ZINC08588140
 31 33 0 0 0
SMALL
GASTEIGER

@<TRIPOS>ATOM
      1 C          14.7935   39.4748   10.0349 C.ar    1  UNL1        0.2593
      2 C          12.4518   39.9362   10.0804 C.ar    1  UNL1        0.1894
      3 N          14.2839   39.7399    8.8125 N.ar    1  UNL1       -0.1187
      4 N          12.9773   39.9954    8.8366 N.ar    1  UNL1       -0.1239
      5 S          13.6142   39.5533   11.2347 S.2     1  UNL1       -0.0102
      6 C          10.4353   41.4515   10.3552 C.2     1  UNL1        0.2721
      7 N          11.0740   40.1710   10.3851 N.am    1  UNL1       -0.2597
      8 O          11.0814   42.4940   10.0682 O.2     1  UNL1       -0.2707
      9 H          10.5238   39.3935   10.6340 H       1  UNL1        0.1569
     10 C           8.9800   41.5523   10.6593 C.3     1  UNL1        0.2897
     11 O           8.2130   41.3722    9.4729 O.3     1  UNL1       -0.4656
     12 C           7.1714   42.2263    9.0937 C.ar    1  UNL1        0.1393
     13 C           7.4202   43.4978    8.5504 C.ar    1  UNL1        0.0378
     14 C           6.3571   44.3275    8.1831 C.ar    1  UNL1        0.0145
     15 C           5.0403   43.8933    8.3573 C.ar    1  UNL1        0.0579
     16 C           4.7866   42.6305    8.8998 C.ar    1  UNL1        0.0145
     17 C           5.8500   41.8004    9.2670 C.ar    1  UNL1        0.0378
     18 CL          3.7088   44.9319    7.8974 Cl      1  UNL1       -0.0822
     19 S          16.4872   39.1378   10.3292 S.O2    1  UNL1        0.1010
     20 O          17.3198   40.1440    9.5849 O.2     1  UNL1       -0.1477
     21 O          16.7840   39.2497   11.7982 O.2     1  UNL1       -0.1477
     22 C          18.2567   37.2199    9.4860 C.3     1  UNL1        0.1392
     23 N          16.8659   37.5289    9.7896 N.pl3   1  UNL1       -0.1870
     24 C          15.8404   36.5295    9.6205 C.ar    1  UNL1        0.0683
     25 C          16.0931   35.3653    8.8749 C.ar    1  UNL1        0.0119
     26 C          15.0982   34.3987    8.7036 C.ar    1  UNL1       -0.0209
     27 C          15.3820   33.1732    7.9128 C.3     1  UNL1        0.0311
     28 C          13.8373   34.5852    9.2747 C.ar    1  UNL1       -0.0084
     29 C          13.5724   35.7372   10.0187 C.ar    1  UNL1       -0.0209
     30 C          12.2311   35.9392   10.6248 C.3     1  UNL1        0.0311
     31 C          14.5683   36.7016   10.1911 C.ar    1  UNL1        0.0119
@<TRIPOS>BOND
     1    22    23    1
     2    25    26   ar
     3    27    26    1
     4    28    29   ar
     5    30    29    1
     6    31    24   ar
     7     1     5   ar
     8     2     7    1
     9     2     5   ar
    10    10     6    1
    11    10    11    1
    12    12    11    1
    13    13    14   ar
    14    15    18    1
    15    15    16   ar
    16    17    12   ar
    17    23    24    1
    18     3     4   ar
    19     7     6   am
    20    19    23    1
    21    19     1    1
    22    24    25   ar
    23    26    28   ar
    24    29    31   ar
    25     1     3   ar
    26     2     4   ar
    27     6     8    2
    28    12    13   ar
    29    14    15   ar
    30    16    17   ar
    31    19    20    2
    32    19    21    2
    33     7     9    1
@<TRIPOS>MOLECULE
MolPort-007-723-649 8588140 CHEMBL1592321 ChemDiv-E157-6989 MCULE-7455272593 PubChem-16017538 ZINC000008588140 ZINC08588140
 31 33 0 0 0
SMALL
GASTEIGER

@<TRIPOS>ATOM
      1 C          13.0394   39.1288    9.5527 C.ar    1  UNL1        0.2593
      2 C          11.0303   40.4133    9.6624 C.ar    1  UNL1        0.1894
      3 N          12.2098   38.9010    8.5115 N.ar    1  UNL1       -0.1187
      4 N          11.0879   39.6156    8.5729 N.ar    1  UNL1       -0.1239
      5 S          12.4031   40.2629   10.6230 S.2     1  UNL1       -0.0102
      6 C           9.3539   41.4442   11.2641 C.2     1  UNL1        0.2721
      7 N           9.9368   41.2839    9.9668 N.am    1  UNL1       -0.2597
      8 O           9.7730   40.7836   12.2514 O.2     1  UNL1       -0.2707
      9 H           9.5566   41.8126    9.2284 H       1  UNL1        0.1569
     10 C           8.2394   42.4152   11.4524 C.3     1  UNL1        0.2897
     11 O           7.0981   41.7591   11.9957 O.3     1  UNL1       -0.4656
     12 C           5.9163   41.5502   11.2761 C.ar    1  UNL1        0.1393
     13 C           4.9845   40.5697   11.6557 C.ar    1  UNL1        0.0378
     14 C           3.8141   40.3852   10.9142 C.ar    1  UNL1        0.0145
     15 C           3.5681   41.1772    9.7895 C.ar    1  UNL1        0.0579
     16 C           4.4926   42.1524    9.4055 C.ar    1  UNL1        0.0145
     17 C           5.6633   42.3371   10.1473 C.ar    1  UNL1        0.0378
     18 CL          2.1027   40.9465    8.8609 Cl      1  UNL1       -0.0822
     19 S          14.6059   38.3654    9.7318 S.O2    1  UNL1        0.1010
     20 O          14.5884   37.5019   10.9621 O.2     1  UNL1       -0.1477
     21 O          14.8956   37.5040    8.5349 O.2     1  UNL1       -0.1477
     22 C          16.8512   39.4159   10.9047 C.3     1  UNL1        0.1392
     23 N          15.8381   39.5842    9.8716 N.pl3   1  UNL1       -0.1870
     24 C          15.8533   40.7428    9.0134 C.ar    1  UNL1        0.0683
     25 C          16.9638   41.6039    8.9950 C.ar    1  UNL1        0.0119
     26 C          16.9777   42.7316    8.1694 C.ar    1  UNL1       -0.0209
     27 C          18.1600   43.6315    8.1615 C.3     1  UNL1        0.0311
     28 C          15.8802   43.0129    7.3527 C.ar    1  UNL1       -0.0084
     29 C          14.7700   42.1655    7.3604 C.ar    1  UNL1       -0.0209
     30 C          13.6001   42.4642    6.4947 C.3     1  UNL1        0.0311
     31 C          14.7582   41.0375    8.1845 C.ar    1  UNL1        0.0119
@<TRIPOS>BOND
     1    22    23    1
     2    25    26   ar
     3    27    26    1
     4    28    29   ar
     5    30    29    1
     6    31    24   ar
     7     1     5   ar
     8     2     7    1
     9     2     5   ar
    10    10     6    1
    11    10    11    1
    12    12    11    1
    13    13    14   ar
    14    15    18    1
    15    15    16   ar
    16    17    12   ar
    17    23    24    1
    18     3     4   ar
    19     7     6   am
    20    19    23    1
    21    19     1    1
    22    24    25   ar
    23    26    28   ar
    24    29    31   ar
    25     1     3   ar
    26     2     4   ar
    27     6     8    2
    28    12    13   ar
    29    14    15   ar
    30    16    17   ar
    31    19    20    2
    32    19    21    2
    33     7     9    1
@<TRIPOS>MOLECULE
MolPort-007-723-649 8588140 CHEMBL1592321 ChemDiv-E157-6989 MCULE-7455272593 PubChem-16017538 ZINC000008588140 ZINC08588140
 31 33 0 0 0
SMALL
GASTEIGER

@<TRIPOS>ATOM
      1 C           8.6568   42.3983    7.7422 C.ar    1  UNL1        0.2593
      2 C          10.7973   41.9189    8.6840 C.ar    1  UNL1        0.1894
      3 N           8.9949   43.2421    8.7413 N.ar    1  UNL1       -0.1187
      4 N          10.1879   42.9742    9.2685 N.ar    1  UNL1       -0.1239
      5 S           9.8588   41.2537    7.4566 S.2     1  UNL1       -0.0102
      6 C          12.3329   40.5191   10.1403 C.2     1  UNL1        0.2721
      7 N          12.0859   41.4234    9.0588 N.am    1  UNL1       -0.2597
      8 O          11.3931   40.1063   10.8704 O.2     1  UNL1       -0.2707
      9 H          12.8610   41.7272    8.5333 H       1  UNL1        0.1569
     10 C          13.7232   40.0506   10.4014 C.3     1  UNL1        0.2897
     11 O          14.4459   39.9403    9.1792 O.3     1  UNL1       -0.4656
     12 C          15.2685   40.9555    8.6782 C.ar    1  UNL1        0.1393
     13 C          14.8241   41.8419    7.6830 C.ar    1  UNL1        0.0378
     14 C          15.6714   42.8445    7.2028 C.ar    1  UNL1        0.0145
     15 C          16.9669   42.9669    7.7124 C.ar    1  UNL1        0.0579
     16 C          17.4154   42.0864    8.7007 C.ar    1  UNL1        0.0145
     17 C          16.5677   41.0836    9.1812 C.ar    1  UNL1        0.0378
     18 CL         18.0281   44.2222    7.1115 Cl      1  UNL1       -0.0822
     19 S           7.1659   42.5199    6.8307 S.O2    1  UNL1        0.1010
     20 O           7.4036   43.3816    5.6221 O.2     1  UNL1       -0.1477
     21 O           6.7291   41.1548    6.3787 O.2     1  UNL1       -0.1477
     22 C           5.2803   44.4380    7.3659 C.3     1  UNL1        0.1392
     23 N           5.9247   43.2165    7.8295 N.pl3   1  UNL1       -0.1870
     24 C           5.5527   42.6263    9.0914 C.ar    1  UNL1        0.0683
     25 C           4.2068   42.5897    9.4940 C.ar    1  UNL1        0.0119
     26 C           3.8448   42.0247   10.7201 C.ar    1  UNL1       -0.0209
     27 C           2.4171   41.9935   11.1306 C.3     1  UNL1        0.0311
     28 C           4.8249   41.4904   11.5596 C.ar    1  UNL1       -0.0084
     29 C           6.1663   41.5195   11.1718 C.ar    1  UNL1       -0.0209
     30 C           7.2110   40.9544   12.0643 C.3     1  UNL1        0.0311
     31 C           6.5267   42.0826    9.9452 C.ar    1  UNL1        0.0119
@<TRIPOS>BOND
     1    22    23    1
     2    25    26   ar
     3    27    26    1
     4    28    29   ar
     5    30    29    1
     6    31    24   ar
     7     1     5   ar
     8     2     7    1
     9     2     5   ar
    10    10     6    1
    11    10    11    1
    12    12    11    1
    13    13    14   ar
    14    15    18    1
    15    15    16   ar
    16    17    12   ar
    17    23    24    1
    18     3     4   ar
    19     7     6   am
    20    19    23    1
    21    19     1    1
    22    24    25   ar
    23    26    28   ar
    24    29    31   ar
    25     1     3   ar
    26     2     4   ar
    27     6     8    2
    28    12    13   ar
    29    14    15   ar
    30    16    17   ar
    31    19    20    2
    32    19    21    2
    33     7     9    1
@<TRIPOS>MOLECULE
MolPort-007-723-649 8588140 CHEMBL1592321 ChemDiv-E157-6989 MCULE-7455272593 PubChem-16017538 ZINC000008588140 ZINC08588140
 31 33 0 0 0
SMALL
GASTEIGER

@<TRIPOS>ATOM
      1 C          13.4755   39.1198    9.9849 C.ar    1  UNL1        0.2593
      2 C          11.1854   39.6977    9.6385 C.ar    1  UNL1        0.1894
      3 N          12.9773   39.9104   10.9602 N.ar    1  UNL1       -0.1187
      4 N          11.7004   40.2348   10.7667 N.ar    1  UNL1       -0.1239
      5 S          12.3205   38.7737    8.8091 S.2     1  UNL1       -0.0102
      6 C           9.3741   41.0088    8.4392 C.2     1  UNL1        0.2721
      7 N           9.8377   39.8873    9.1981 N.am    1  UNL1       -0.2597
      8 O          10.1539   41.9451    8.1201 O.2     1  UNL1       -0.2707
      9 H           9.1796   39.1944    9.4347 H       1  UNL1        0.1569
     10 C           7.9478   41.0656    8.0114 C.3     1  UNL1        0.2897
     11 O           7.3256   42.2421    8.5183 O.3     1  UNL1       -0.4656
     12 C           6.1711   42.2215    9.3089 C.ar    1  UNL1        0.1393
     13 C           6.0957   41.4576   10.4855 C.ar    1  UNL1        0.0378
     14 C           4.9270   41.4577   11.2521 C.ar    1  UNL1        0.0145
     15 C           3.8271   42.2190   10.8478 C.ar    1  UNL1        0.0579
     16 C           3.8953   42.9788    9.6768 C.ar    1  UNL1        0.0145
     17 C           5.0645   42.9790    8.9101 C.ar    1  UNL1        0.0378
     18 CL          2.3635   42.2194   11.8075 Cl      1  UNL1       -0.0822
     19 S          15.1133   38.4983    9.9801 S.O2    1  UNL1        0.1010
     20 O          15.3336   37.6978   11.2333 O.2     1  UNL1       -0.1477
     21 O          15.3190   37.6059    8.7885 O.2     1  UNL1       -0.1477
     22 C          17.3791   39.7982   10.8150 C.3     1  UNL1        0.1392
     23 N          16.2405   39.8202    9.9066 N.pl3   1  UNL1       -0.1870
     24 C          16.0518   40.9221    8.9959 C.ar    1  UNL1        0.0683
     25 C          14.8555   41.0525    8.2702 C.ar    1  UNL1        0.0119
     26 C          14.6733   42.1157    7.3814 C.ar    1  UNL1       -0.0209
     27 C          13.4021   42.2393    6.6221 C.3     1  UNL1        0.0311
     28 C          15.6864   43.0611    7.2063 C.ar    1  UNL1       -0.0084
     29 C          16.8803   42.9442    7.9215 C.ar    1  UNL1       -0.0209
     30 C          17.9605   43.9470    7.7348 C.3     1  UNL1        0.0311
     31 C          17.0604   41.8823    8.8112 C.ar    1  UNL1        0.0119
@<TRIPOS>BOND
     1    22    23    1
     2    25    26   ar
     3    27    26    1
     4    28    29   ar
     5    30    29    1
     6    31    24   ar
     7     1     5   ar
     8     2     7    1
     9     2     5   ar
    10    10     6    1
    11    10    11    1
    12    12    11    1
    13    13    14   ar
    14    15    18    1
    15    15    16   ar
    16    17    12   ar
    17    23    24    1
    18     3     4   ar
    19     7     6   am
    20    19    23    1
    21    19     1    1
    22    24    25   ar
    23    26    28   ar
    24    29    31   ar
    25     1     3   ar
    26     2     4   ar
    27     6     8    2
    28    12    13   ar
    29    14    15   ar
    30    16    17   ar
    31    19    20    2
    32    19    21    2
    33     7     9    1
@<TRIPOS>MOLECULE
MolPort-007-723-649 8588140 CHEMBL1592321 ChemDiv-E157-6989 MCULE-7455272593 PubChem-16017538 ZINC000008588140 ZINC08588140
 31 33 0 0 0
SMALL
GASTEIGER

@<TRIPOS>ATOM
      1 C          13.6931   37.8125   10.6230 C.ar    1  UNL1        0.2593
      2 C          11.5857   37.6933    9.5079 C.ar    1  UNL1        0.1894
      3 N          13.5453   36.6859    9.8927 N.ar    1  UNL1       -0.1187
      4 N          12.3693   36.6176    9.2719 N.ar    1  UNL1       -0.1239
      5 S          12.3357   38.8047   10.5239 S.2     1  UNL1       -0.0102
      6 C           9.9714   38.6545    7.8025 C.2     1  UNL1        0.2721
      7 N          10.2759   37.8715    8.9613 N.am    1  UNL1       -0.2597
      8 O          10.8743   39.2770    7.1827 O.2     1  UNL1       -0.2707
      9 H           9.5276   37.4217    9.4163 H       1  UNL1        0.1569
     10 C           8.5650   38.7273    7.3154 C.3     1  UNL1        0.2897
     11 O           8.3887   39.8681    6.4813 O.3     1  UNL1       -0.4656
     12 C           7.6488   40.9928    6.8634 C.ar    1  UNL1        0.1393
     13 C           6.8325   40.9858    8.0068 C.ar    1  UNL1        0.0378
     14 C           6.1049   42.1257    8.3602 C.ar    1  UNL1        0.0145
     15 C           6.1870   43.2779    7.5737 C.ar    1  UNL1        0.0579
     16 C           6.9954   43.2899    6.4337 C.ar    1  UNL1        0.0145
     17 C           7.7234   42.1498    6.0803 C.ar    1  UNL1        0.0378
     18 CL          5.2762   44.7054    8.0160 Cl      1  UNL1       -0.0822
     19 S          15.1446   38.2041   11.5220 S.O2    1  UNL1        0.1010
     20 O          14.8071   39.2294   12.5682 O.2     1  UNL1       -0.1477
     21 O          15.6755   36.9721   12.1994 O.2     1  UNL1       -0.1477
     22 C          17.6505   38.1654   10.4085 C.3     1  UNL1        0.1392
     23 N          16.3534   38.8276   10.4387 N.pl3   1  UNL1       -0.1870
     24 C          16.0999   39.9790    9.6086 C.ar    1  UNL1        0.0683
     25 C          17.0995   40.9450    9.4020 C.ar    1  UNL1        0.0119
     26 C          16.8536   42.0656    8.6036 C.ar    1  UNL1       -0.0209
     27 C          17.9216   43.0773    8.3950 C.3     1  UNL1        0.0311
     28 C          15.6041   42.2347    8.0030 C.ar    1  UNL1       -0.0084
     29 C          14.6016   41.2823    8.1993 C.ar    1  UNL1       -0.0209
     30 C          13.2706   41.4615    7.5637 C.3     1  UNL1        0.0311
     31 C          14.8492   40.1616    8.9956 C.ar    1  UNL1        0.0119
@<TRIPOS>BOND
     1    22    23    1
     2    25    26   ar
     3    27    26    1
     4    28    29   ar
     5    30    29    1
     6    31    24   ar
     7     1     5   ar
     8     2     7    1
     9     2     5   ar
    10    10     6    1
    11    10    11    1
    12    12    11    1
    13    13    14   ar
    14    15    18    1
    15    15    16   ar
    16    17    12   ar
    17    23    24    1
    18     3     4   ar
    19     7     6   am
    20    19    23    1
    21    19     1    1
    22    24    25   ar
    23    26    28   ar
    24    29    31   ar
    25     1     3   ar
    26     2     4   ar
    27     6     8    2
    28    12    13   ar
    29    14    15   ar
    30    16    17   ar
    31    19    20    2
    32    19    21    2
    33     7     9    1
@<TRIPOS>MOLECULE
MolPort-007-723-649 8588140 CHEMBL1592321 ChemDiv-E157-6989 MCULE-7455272593 PubChem-16017538 ZINC000008588140 ZINC08588140
 31 33 0 0 0
SMALL
GASTEIGER

@<TRIPOS>ATOM
      1 C           6.6238   41.4533   11.2654 C.ar    1  UNL1        0.2593
      2 C           8.9872   41.6798   11.0170 C.ar    1  UNL1        0.1894
      3 N           7.2545   41.7138   12.4311 N.ar    1  UNL1       -0.1187
      4 N           8.5731   41.8383   12.2938 N.ar    1  UNL1       -0.1239
      5 S           7.7033   41.3691    9.9754 S.2     1  UNL1       -0.0102
      6 C          10.8023   41.6229    9.2449 C.2     1  UNL1        0.2721
      7 N          10.3515   41.7659   10.5958 N.am    1  UNL1       -0.2597
      8 O           9.9922   41.3806    8.3113 O.2     1  UNL1       -0.2707
      9 H          11.0315   41.9364   11.2870 H       1  UNL1        0.1569
     10 C          12.2524   41.7725    8.9360 C.3     1  UNL1        0.2897
     11 O          12.4294   42.2120    7.5930 O.3     1  UNL1       -0.4656
     12 C          13.6506   42.6748    7.0902 C.ar    1  UNL1        0.1393
     13 C          13.7134   43.5424    5.9870 C.ar    1  UNL1        0.0378
     14 C          14.9496   43.9853    5.5082 C.ar    1  UNL1        0.0145
     15 C          16.1295   43.5636    6.1269 C.ar    1  UNL1        0.0579
     16 C          16.0734   42.6985    7.2230 C.ar    1  UNL1        0.0145
     17 C          14.8368   42.2557    7.7022 C.ar    1  UNL1        0.0378
     18 CL         17.6776   44.1180    5.5277 Cl      1  UNL1       -0.0822
     19 S           4.8874   41.2737   11.1194 S.O2    1  UNL1        0.1010
     20 O           4.5034   39.8873   11.5557 O.2     1  UNL1       -0.1477
     21 O           4.1932   42.2728   12.0016 O.2     1  UNL1       -0.1477
     22 C           2.9847   41.6345    9.1778 C.3     1  UNL1        0.1392
     23 N           4.4088   41.5374    9.4688 N.pl3   1  UNL1       -0.1870
     24 C           5.3808   41.6344    8.4083 C.ar    1  UNL1        0.0683
     25 C           5.8041   42.8899    7.9395 C.ar    1  UNL1        0.0119
     26 C           6.7408   42.9863    6.9066 C.ar    1  UNL1       -0.0209
     27 C           7.1780   44.3215    6.4231 C.3     1  UNL1        0.0311
     28 C           7.2648   41.8279    6.3285 C.ar    1  UNL1       -0.0084
     29 C           6.8535   40.5736    6.7848 C.ar    1  UNL1       -0.0209
     30 C           7.4074   39.3399    6.1695 C.3     1  UNL1        0.0311
     31 C           5.9189   40.4785    7.8187 C.ar    1  UNL1        0.0119
@<TRIPOS>BOND
     1    22    23    1
     2    25    26   ar
     3    27    26    1
     4    28    29   ar
     5    30    29    1
     6    31    24   ar
     7     1     5   ar
     8     2     7    1
     9     2     5   ar
    10    10     6    1
    11    10    11    1
    12    12    11    1
    13    13    14   ar
    14    15    18    1
    15    15    16   ar
    16    17    12   ar
    17    23    24    1
    18     3     4   ar
    19     7     6   am
    20    19    23    1
    21    19     1    1
    22    24    25   ar
    23    26    28   ar
    24    29    31   ar
    25     1     3   ar
    26     2     4   ar
    27     6     8    2
    28    12    13   ar
    29    14    15   ar
    30    16    17   ar
    31    19    20    2
    32    19    21    2
    33     7     9    1
@<TRIPOS>MOLECULE
MolPort-007-723-649 8588140 CHEMBL1592321 ChemDiv-E157-6989 MCULE-7455272593 PubChem-16017538 ZINC000008588140 ZINC08588140
 31 33 0 0 0
SMALL
GASTEIGER

@<TRIPOS>ATOM
      1 C          11.0019   41.6944    8.2386 C.ar    1  UNL1        0.2593
      2 C           9.0758   43.0906    8.4367 C.ar    1  UNL1        0.1894
      3 N          11.0111   42.4508    9.3576 N.ar    1  UNL1       -0.1187
      4 N           9.9380   43.2314    9.4679 N.ar    1  UNL1       -0.1239
      5 S           9.6208   41.9635    7.3131 S.2     1  UNL1       -0.0102
      6 C           6.7673   43.4429    7.4442 C.2     1  UNL1        0.2721
      7 N           7.8455   43.8097    8.3110 N.am    1  UNL1       -0.2597
      8 O           6.8507   42.4352    6.6930 O.2     1  UNL1       -0.2707
      9 H           7.7320   44.6175    8.8622 H       1  UNL1        0.1569
     10 C           5.5217   44.2608    7.4367 C.3     1  UNL1        0.2897
     11 O           4.9397   44.2877    8.7363 O.3     1  UNL1       -0.4656
     12 C           4.6229   43.1331    9.4608 C.ar    1  UNL1        0.1393
     13 C           5.5404   42.5416   10.3450 C.ar    1  UNL1        0.0378
     14 C           5.1933   41.3875   11.0528 C.ar    1  UNL1        0.0145
     15 C           3.9293   40.8168   10.8809 C.ar    1  UNL1        0.0579
     16 C           3.0133   41.3993   10.0006 C.ar    1  UNL1        0.0145
     17 C           3.3604   42.5540    9.2928 C.ar    1  UNL1        0.0378
     18 CL          3.4943   39.3717   11.7670 Cl      1  UNL1       -0.0822
     19 S          12.2581   40.5424    7.8344 S.O2    1  UNL1        0.1010
     20 O          11.6157   39.2608    7.3822 O.2     1  UNL1       -0.1477
     21 O          13.1085   41.0822    6.7190 O.2     1  UNL1       -0.1477
     22 C          12.6209   39.7263   10.4273 C.3     1  UNL1        0.1392
     23 N          13.2574   40.2536    9.2277 N.pl3   1  UNL1       -0.1870
     24 C          14.6693   40.5460    9.2166 C.ar    1  UNL1        0.0683
     25 C          15.1699   41.6244    8.4672 C.ar    1  UNL1        0.0119
     26 C          16.5389   41.9051    8.4491 C.ar    1  UNL1       -0.0209
     27 C          17.0517   43.0494    7.6520 C.3     1  UNL1        0.0311
     28 C          17.4248   41.1096    9.1792 C.ar    1  UNL1       -0.0084
     29 C          16.9412   40.0349    9.9287 C.ar    1  UNL1       -0.0209
     30 C          17.8819   39.1855   10.7039 C.3     1  UNL1        0.0311
     31 C          15.5723   39.7566    9.9479 C.ar    1  UNL1        0.0119
@<TRIPOS>BOND
     1    22    23    1
     2    25    26   ar
     3    27    26    1
     4    28    29   ar
     5    30    29    1
     6    31    24   ar
     7     1     5   ar
     8     2     7    1
     9     2     5   ar
    10    10     6    1
    11    10    11    1
    12    12    11    1
    13    13    14   ar
    14    15    18    1
    15    15    16   ar
    16    17    12   ar
    17    23    24    1
    18     3     4   ar
    19     7     6   am
    20    19    23    1
    21    19     1    1
    22    24    25   ar
    23    26    28   ar
    24    29    31   ar
    25     1     3   ar
    26     2     4   ar
    27     6     8    2
    28    12    13   ar
    29    14    15   ar
    30    16    17   ar
    31    19    20    2
    32    19    21    2
    33     7     9    1
