@<TRIPOS>MOLECULE
MolPort-010-777-046 MolPort-047-128-844 ChemDiv-G889-0087 MCULE-3695965441 MCULE-9086515972 PubChem-146060485 PubChem-50807345 ZINC000046053313
 26 27 0 0 0
SMALL
GASTEIGER

@<TRIPOS>ATOM
      1 C           4.9685   41.7013    9.5711 C.ar    1  UNL1        0.0542
      2 C           5.4353   41.6166   10.9081 C.ar    1  UNL1        0.0900
      3 C           4.4994   41.5378   11.9491 C.ar    1  UNL1        0.0224
      4 C           3.1227   41.5233   11.6916 C.ar    1  UNL1        0.0508
      5 C           2.6761   41.5800   10.3714 C.ar    1  UNL1        0.0160
      6 C           3.5901   41.6707    9.3218 C.ar    1  UNL1        0.0160
      7 C           1.1759   42.4301   13.0976 C.2     1  UNL1        0.2495
      8 N           2.1536   41.4391   12.7452 N.am    1  UNL1       -0.2804
      9 O           1.0985   43.5127   12.4551 O.2     1  UNL1       -0.2698
     10 H           2.1591   40.6150   13.2837 H       1  UNL1        0.1552
     11 C           0.2538   42.1792   14.2195 C.ar    1  UNL1        0.0537
     12 C           0.4188   42.8555   15.4372 C.ar    1  UNL1        0.0045
     13 C          -0.4554   42.6183   16.5020 C.ar    1  UNL1        0.0001
     14 C          -1.5013   41.7029   16.3570 C.ar    1  UNL1        0.0000
     15 C          -1.6733   41.0247   15.1475 C.ar    1  UNL1        0.0001
     16 C          -0.7991   41.2619   14.0826 C.ar    1  UNL1        0.0045
     17 C           6.8696   41.5541   11.2664 C.2     1  UNL1        0.3393
     18 O           7.7783   40.9736   10.3885 O.3     1  UNL1       -0.4771
     19 O           7.2959   42.0575   12.3388 O.2     1  UNL1       -0.2450
     20 H           7.4778   40.5945    9.5861 H       1  UNL1        0.2954
     21 C           6.1476   40.7383    7.5846 C.3     1  UNL1        0.1122
     22 N           5.8613   41.8643    8.4627 N.pl3   1  UNL1       -0.3056
     23 C           6.5009   43.1534    8.2253 C.3     1  UNL1        0.0908
     24 C           5.8345   43.8980    7.0726 C.3     1  UNL1        0.0214
     25 C           3.6726   44.8275    7.9012 C.3     1  UNL1        0.0001
     26 C           5.1149   45.1470    7.5561 C.3     1  UNL1        0.0018
@<TRIPOS>BOND
     1    25    26    1
     2    26    24    1
     3    24    23    1
     4    23    22    1
     5    21    22    1
     6     2     3   ar
     7     2    17    1
     8     4     8    1
     9     4     5   ar
    10     7    11    1
    11    12    13   ar
    12    14    15   ar
    13    16    11   ar
    14     6     1   ar
    15    17    18    1
    16    22     1    1
    17     8     7   am
    18     1     2   ar
    19     3     4   ar
    20     7     9    2
    21    11    12   ar
    22    13    14   ar
    23    15    16   ar
    24     5     6   ar
    25    17    19    2
    26     8    10    1
    27    18    20    1
@<TRIPOS>MOLECULE
MolPort-010-777-046 MolPort-047-128-844 ChemDiv-G889-0087 MCULE-3695965441 MCULE-9086515972 PubChem-146060485 PubChem-50807345 ZINC000046053313
 26 27 0 0 0
SMALL
GASTEIGER

@<TRIPOS>ATOM
      1 C           4.8252   41.7073    9.4978 C.ar    1  UNL1        0.0542
      2 C           5.3092   41.6651   10.8305 C.ar    1  UNL1        0.0900
      3 C           4.3874   41.5936   11.8846 C.ar    1  UNL1        0.0224
      4 C           3.0084   41.5453   11.6444 C.ar    1  UNL1        0.0508
      5 C           2.5453   41.5603   10.3287 C.ar    1  UNL1        0.0160
      6 C           3.4448   41.6431    9.2661 C.ar    1  UNL1        0.0160
      7 C           1.1797   42.5143   13.1631 C.2     1  UNL1        0.2495
      8 N           2.0536   41.4680   12.7115 N.am    1  UNL1       -0.2804
      9 O           1.1939   43.6469   12.6084 O.2     1  UNL1       -0.2698
     10 H           1.9905   40.6068   13.1844 H       1  UNL1        0.1552
     11 C           0.2572   42.2618   14.2843 C.ar    1  UNL1        0.0537
     12 C           0.4072   42.9538   15.4951 C.ar    1  UNL1        0.0045
     13 C          -0.4674   42.7151   16.5592 C.ar    1  UNL1        0.0001
     14 C          -1.4988   41.7824   16.4204 C.ar    1  UNL1        0.0000
     15 C          -1.6558   41.0884   15.2178 C.ar    1  UNL1        0.0001
     16 C          -0.7811   41.3271   14.1536 C.ar    1  UNL1        0.0045
     17 C           6.7487   41.6401   11.1727 C.2     1  UNL1        0.3393
     18 O           7.2143   40.7629   12.1458 O.3     1  UNL1       -0.4771
     19 O           7.5752   42.3716   10.5669 O.2     1  UNL1       -0.2450
     20 H           6.6125   40.2115   12.6061 H       1  UNL1        0.2954
     21 C           6.0444   43.1913    7.8930 C.3     1  UNL1        0.1122
     22 N           5.7015   41.8605    8.3748 N.pl3   1  UNL1       -0.3056
     23 C           6.2343   40.6823    7.7000 C.3     1  UNL1        0.0908
     24 C           7.6131   40.9592    7.1088 C.3     1  UNL1        0.0214
     25 C           8.8296   38.7812    7.0812 C.3     1  UNL1        0.0001
     26 C           8.0907   39.8058    6.2411 C.3     1  UNL1        0.0018
@<TRIPOS>BOND
     1    25    26    1
     2    26    24    1
     3    24    23    1
     4    23    22    1
     5    21    22    1
     6     2     3   ar
     7     2    17    1
     8     4     8    1
     9     4     5   ar
    10     7    11    1
    11    12    13   ar
    12    14    15   ar
    13    16    11   ar
    14     6     1   ar
    15    17    18    1
    16    22     1    1
    17     8     7   am
    18     1     2   ar
    19     3     4   ar
    20     7     9    2
    21    11    12   ar
    22    13    14   ar
    23    15    16   ar
    24     5     6   ar
    25    17    19    2
    26     8    10    1
    27    18    20    1
@<TRIPOS>MOLECULE
MolPort-010-777-046 MolPort-047-128-844 ChemDiv-G889-0087 MCULE-3695965441 MCULE-9086515972 PubChem-146060485 PubChem-50807345 ZINC000046053313
 26 27 0 0 0
SMALL
GASTEIGER

@<TRIPOS>ATOM
      1 C           8.6663   41.6103    8.5903 C.ar    1  UNL1        0.0542
      2 C           9.3116   41.8027    7.3417 C.ar    1  UNL1        0.0900
      3 C          10.7098   41.9026    7.3095 C.ar    1  UNL1        0.0224
      4 C          11.4747   41.7984    8.4781 C.ar    1  UNL1        0.0508
      5 C          10.8309   41.5822    9.6966 C.ar    1  UNL1        0.0160
      6 C           9.4403   41.4916    9.7522 C.ar    1  UNL1        0.0160
      7 C          13.7151   42.5129    7.4488 C.2     1  UNL1        0.2495
      8 N          12.9054   41.8945    8.4608 N.am    1  UNL1       -0.2804
      9 O          13.1822   43.0529    6.4413 O.2     1  UNL1       -0.2698
     10 H          13.3829   41.4944    9.2232 H       1  UNL1        0.1552
     11 C          15.1821   42.5174    7.5894 C.ar    1  UNL1        0.0537
     12 C          15.9664   43.3773    6.8068 C.ar    1  UNL1        0.0045
     13 C          17.3581   43.3825    6.9395 C.ar    1  UNL1        0.0001
     14 C          17.9758   42.5275    7.8562 C.ar    1  UNL1        0.0000
     15 C          17.2023   41.6674    8.6402 C.ar    1  UNL1        0.0001
     16 C          15.8106   41.6623    8.5074 C.ar    1  UNL1        0.0045
     17 C           8.5885   41.8530    6.0516 C.2     1  UNL1        0.3393
     18 O           7.8875   42.9995    5.6946 O.3     1  UNL1       -0.4771
     19 O           8.6295   40.8883    5.2436 O.2     1  UNL1       -0.2450
     20 H           7.8471   43.7266    6.2843 H       1  UNL1        0.2954
     21 C           6.4733   40.5335    8.0467 C.3     1  UNL1        0.1122
     22 N           7.2393   41.5784    8.7120 N.pl3   1  UNL1       -0.3056
     23 C           6.5505   42.6053    9.4854 C.3     1  UNL1        0.0908
     24 C           6.0057   43.7068    8.5815 C.3     1  UNL1        0.0214
     25 C           3.9743   44.9024    7.7639 C.3     1  UNL1        0.0001
     26 C           4.4862   43.7509    8.6085 C.3     1  UNL1        0.0018
@<TRIPOS>BOND
     1    25    26    1
     2    26    24    1
     3    24    23    1
     4    23    22    1
     5    21    22    1
     6     2     3   ar
     7     2    17    1
     8     4     8    1
     9     4     5   ar
    10     7    11    1
    11    12    13   ar
    12    14    15   ar
    13    16    11   ar
    14     6     1   ar
    15    17    18    1
    16    22     1    1
    17     8     7   am
    18     1     2   ar
    19     3     4   ar
    20     7     9    2
    21    11    12   ar
    22    13    14   ar
    23    15    16   ar
    24     5     6   ar
    25    17    19    2
    26     8    10    1
    27    18    20    1
@<TRIPOS>MOLECULE
MolPort-010-777-046 MolPort-047-128-844 ChemDiv-G889-0087 MCULE-3695965441 MCULE-9086515972 PubChem-146060485 PubChem-50807345 ZINC000046053313
 26 27 0 0 0
SMALL
GASTEIGER

@<TRIPOS>ATOM
      1 C           9.0774   40.6311    7.0116 C.ar    1  UNL1        0.0542
      2 C           9.9830   40.1927    6.0115 C.ar    1  UNL1        0.0900
      3 C          11.3468   40.4839    6.1573 C.ar    1  UNL1        0.0224
      4 C          11.8280   41.1791    7.2739 C.ar    1  UNL1        0.0508
      5 C          10.9317   41.5817    8.2639 C.ar    1  UNL1        0.0160
      6 C           9.5695   41.3125    8.1326 C.ar    1  UNL1        0.0160
      7 C          13.9086   42.6527    6.9751 C.2     1  UNL1        0.2495
      8 N          13.2202   41.4809    7.4390 N.am    1  UNL1       -0.2804
      9 O          13.2886   43.5574    6.3525 O.2     1  UNL1       -0.2698
     10 H          13.7610   40.8144    7.9212 H       1  UNL1        0.1552
     11 C          15.3527   42.7997    7.2299 C.ar    1  UNL1        0.0537
     12 C          16.1038   43.7505    6.5235 C.ar    1  UNL1        0.0045
     13 C          17.4736   43.8909    6.7646 C.ar    1  UNL1        0.0001
     14 C          18.1027   43.0814    7.7142 C.ar    1  UNL1        0.0000
     15 C          17.3623   42.1315    8.4228 C.ar    1  UNL1        0.0001
     16 C          15.9923   41.9911    8.1817 C.ar    1  UNL1        0.0045
     17 C           9.5723   39.3923    4.8366 C.2     1  UNL1        0.3393
     18 O           9.7603   38.0147    4.8369 O.3     1  UNL1       -0.4771
     19 O           9.0122   39.9300    3.8455 O.2     1  UNL1       -0.2450
     20 H          10.1754   37.5986    5.5666 H       1  UNL1        0.2954
     21 C           7.1337   39.1596    6.4452 C.3     1  UNL1        0.1122
     22 N           7.6625   40.4406    6.8927 N.pl3   1  UNL1       -0.3056
     23 C           6.7511   41.5371    7.1998 C.3     1  UNL1        0.0908
     24 C           6.9588   42.7122    6.2495 C.3     1  UNL1        0.0214
     25 C           6.8865   44.1497    8.2873 C.3     1  UNL1        0.0001
     26 C           6.4381   44.0107    6.8448 C.3     1  UNL1        0.0018
@<TRIPOS>BOND
     1    25    26    1
     2    26    24    1
     3    24    23    1
     4    23    22    1
     5    21    22    1
     6     2     3   ar
     7     2    17    1
     8     4     8    1
     9     4     5   ar
    10     7    11    1
    11    12    13   ar
    12    14    15   ar
    13    16    11   ar
    14     6     1   ar
    15    17    18    1
    16    22     1    1
    17     8     7   am
    18     1     2   ar
    19     3     4   ar
    20     7     9    2
    21    11    12   ar
    22    13    14   ar
    23    15    16   ar
    24     5     6   ar
    25    17    19    2
    26     8    10    1
    27    18    20    1
@<TRIPOS>MOLECULE
MolPort-010-777-046 MolPort-047-128-844 ChemDiv-G889-0087 MCULE-3695965441 MCULE-9086515972 PubChem-146060485 PubChem-50807345 ZINC000046053313
 26 27 0 0 0
SMALL
GASTEIGER

@<TRIPOS>ATOM
      1 C           9.0240   40.6890    7.0995 C.ar    1  UNL1        0.0542
      2 C           9.9193   40.2402    6.0948 C.ar    1  UNL1        0.0900
      3 C          11.2837   40.5373    6.2208 C.ar    1  UNL1        0.0224
      4 C          11.7758   41.2487    7.3223 C.ar    1  UNL1        0.0508
      5 C          10.8898   41.6615    8.3174 C.ar    1  UNL1        0.0160
      6 C           9.5270   41.3866    8.2057 C.ar    1  UNL1        0.0160
      7 C          13.8709   42.6659    6.8849 C.2     1  UNL1        0.2495
      8 N          13.1688   41.5567    7.4672 N.am    1  UNL1       -0.2804
      9 O          13.2638   43.5016    6.1612 O.2     1  UNL1       -0.2698
     10 H          13.6998   40.9431    8.0246 H       1  UNL1        0.1552
     11 C          15.3138   42.8296    7.1363 C.ar    1  UNL1        0.0537
     12 C          15.9390   42.1141    8.1680 C.ar    1  UNL1        0.0045
     13 C          17.3077   42.2685    8.4073 C.ar    1  UNL1        0.0001
     14 C          18.0614   43.1398    7.6163 C.ar    1  UNL1        0.0000
     15 C          17.4469   43.8566    6.5861 C.ar    1  UNL1        0.0001
     16 C          16.0782   43.7021    6.3469 C.ar    1  UNL1        0.0045
     17 C           9.4973   39.4232    4.9354 C.2     1  UNL1        0.3393
     18 O           9.5786   38.0366    4.9988 O.3     1  UNL1       -0.4771
     19 O           9.0220   39.9583    3.8996 O.2     1  UNL1       -0.2450
     20 H           9.9298   37.6222    5.7623 H       1  UNL1        0.2954
     21 C           7.0767   39.1871    6.6346 C.3     1  UNL1        0.1122
     22 N           7.6084   40.4928    6.9997 N.pl3   1  UNL1       -0.3056
     23 C           6.6992   41.6068    7.2435 C.3     1  UNL1        0.0908
     24 C           5.7363   41.2957    8.3851 C.3     1  UNL1        0.0214
     25 C           3.7915   42.2419    9.6289 C.3     1  UNL1        0.0001
     26 C           5.1081   42.5614    8.9465 C.3     1  UNL1        0.0018
@<TRIPOS>BOND
     1    25    26    1
     2    26    24    1
     3    24    23    1
     4    23    22    1
     5    21    22    1
     6     2     3   ar
     7     2    17    1
     8     4     8    1
     9     4     5   ar
    10     7    11    1
    11    12    13   ar
    12    14    15   ar
    13    16    11   ar
    14     6     1   ar
    15    17    18    1
    16    22     1    1
    17     8     7   am
    18     1     2   ar
    19     3     4   ar
    20     7     9    2
    21    11    12   ar
    22    13    14   ar
    23    15    16   ar
    24     5     6   ar
    25    17    19    2
    26     8    10    1
    27    18    20    1
@<TRIPOS>MOLECULE
MolPort-010-777-046 MolPort-047-128-844 ChemDiv-G889-0087 MCULE-3695965441 MCULE-9086515972 PubChem-146060485 PubChem-50807345 ZINC000046053313
 26 27 0 0 0
SMALL
GASTEIGER

@<TRIPOS>ATOM
      1 C          15.3589   41.1064    8.5824 C.ar    1  UNL1        0.0542
      2 C          14.5737   40.0764    9.1611 C.ar    1  UNL1        0.0900
      3 C          13.1918   40.0633    8.9244 C.ar    1  UNL1        0.0224
      4 C          12.5816   41.0322    8.1179 C.ar    1  UNL1        0.0508
      5 C          13.3678   42.0245    7.5323 C.ar    1  UNL1        0.0160
      6 C          14.7425   42.0626    7.7645 C.ar    1  UNL1        0.0160
      7 C          10.3101   39.8823    7.7902 C.2     1  UNL1        0.2495
      8 N          11.1703   41.0298    7.8634 N.am    1  UNL1       -0.2804
      9 O          10.7723   38.7213    7.9613 O.2     1  UNL1       -0.2698
     10 H          10.7465   41.9074    7.7241 H       1  UNL1        0.1552
     11 C           8.8739   40.0631    7.5137 C.ar    1  UNL1        0.0537
     12 C           8.2648   39.3779    6.4521 C.ar    1  UNL1        0.0045
     13 C           6.9025   39.5485    6.1890 C.ar    1  UNL1        0.0001
     14 C           6.1389   40.4058    6.9858 C.ar    1  UNL1        0.0000
     15 C           6.7372   41.0925    8.0456 C.ar    1  UNL1        0.0001
     16 C           8.0996   40.9218    8.3087 C.ar    1  UNL1        0.0045
     17 C          15.1441   38.9739    9.9666 C.2     1  UNL1        0.3393
     18 O          15.8682   37.9635    9.3436 O.3     1  UNL1       -0.4771
     19 O          15.0239   38.9528   11.2197 O.2     1  UNL1       -0.2450
     20 H          15.9673   37.9643    8.4119 H       1  UNL1        0.2954
     21 C          17.3517   40.5646    9.9963 C.3     1  UNL1        0.1122
     22 N          16.7620   41.2310    8.8435 N.pl3   1  UNL1       -0.3056
     23 C          17.5974   42.0431    7.9661 C.3     1  UNL1        0.0908
     24 C          17.5697   43.5115    8.3787 C.3     1  UNL1        0.0214
     25 C          17.6054   43.8138    5.9025 C.3     1  UNL1        0.0001
     26 C          17.1551   44.4086    7.2234 C.3     1  UNL1        0.0018
@<TRIPOS>BOND
     1    25    26    1
     2    26    24    1
     3    24    23    1
     4    23    22    1
     5    21    22    1
     6     2     3   ar
     7     2    17    1
     8     4     8    1
     9     4     5   ar
    10     7    11    1
    11    12    13   ar
    12    14    15   ar
    13    16    11   ar
    14     6     1   ar
    15    17    18    1
    16    22     1    1
    17     8     7   am
    18     1     2   ar
    19     3     4   ar
    20     7     9    2
    21    11    12   ar
    22    13    14   ar
    23    15    16   ar
    24     5     6   ar
    25    17    19    2
    26     8    10    1
    27    18    20    1
@<TRIPOS>MOLECULE
MolPort-010-777-046 MolPort-047-128-844 ChemDiv-G889-0087 MCULE-3695965441 MCULE-9086515972 PubChem-146060485 PubChem-50807345 ZINC000046053313
 26 27 0 0 0
SMALL
GASTEIGER

@<TRIPOS>ATOM
      1 C          14.4718   40.0009    9.5210 C.ar    1  UNL1        0.0542
      2 C          13.6738   39.3478   10.4951 C.ar    1  UNL1        0.0900
      3 C          12.2925   39.5879   10.5116 C.ar    1  UNL1        0.0224
      4 C          11.6901   40.4410    9.5783 C.ar    1  UNL1        0.0508
      5 C          12.4812   41.0565    8.6083 C.ar    1  UNL1        0.0160
      6 C          13.8588   40.8405    8.5816 C.ar    1  UNL1        0.0160
      7 C           9.5941   41.7559   10.2616 C.2     1  UNL1        0.2495
      8 N          10.2785   40.6933    9.5800 N.am    1  UNL1       -0.2804
      9 O          10.2362   42.5973   10.9474 O.2     1  UNL1       -0.2698
     10 H           9.7196   40.0726    9.0588 H       1  UNL1        0.1552
     11 C           8.1281   41.8648   10.1577 C.ar    1  UNL1        0.0537
     12 C           7.3175   41.6082   11.2732 C.ar    1  UNL1        0.0045
     13 C           5.9268   41.7114   11.1758 C.ar    1  UNL1        0.0001
     14 C           5.3361   42.0720    9.9618 C.ar    1  UNL1        0.0000
     15 C           6.1358   42.3296    8.8452 C.ar    1  UNL1        0.0001
     16 C           7.5266   42.2265    8.9426 C.ar    1  UNL1        0.0045
     17 C          14.2151   38.3775   11.4725 C.2     1  UNL1        0.3393
     18 O          14.9052   38.8323   12.5906 O.3     1  UNL1       -0.4771
     19 O          14.0260   37.1403   11.3355 O.2     1  UNL1       -0.2450
     20 H          15.0545   39.7498   12.7079 H       1  UNL1        0.2954
     21 C          16.7401   41.0516    9.3992 C.3     1  UNL1        0.1122
     22 N          15.8979   39.8672    9.4920 N.pl3   1  UNL1       -0.3056
     23 C          16.5068   38.5425    9.5343 C.3     1  UNL1        0.0908
     24 C          17.7857   38.5475   10.3661 C.3     1  UNL1        0.0214
     25 C          19.6255   36.8699   10.5237 C.3     1  UNL1        0.0001
     26 C          18.9350   37.8803    9.6274 C.3     1  UNL1        0.0018
@<TRIPOS>BOND
     1    25    26    1
     2    26    24    1
     3    24    23    1
     4    23    22    1
     5    21    22    1
     6     2     3   ar
     7     2    17    1
     8     4     8    1
     9     4     5   ar
    10     7    11    1
    11    12    13   ar
    12    14    15   ar
    13    16    11   ar
    14     6     1   ar
    15    17    18    1
    16    22     1    1
    17     8     7   am
    18     1     2   ar
    19     3     4   ar
    20     7     9    2
    21    11    12   ar
    22    13    14   ar
    23    15    16   ar
    24     5     6   ar
    25    17    19    2
    26     8    10    1
    27    18    20    1
@<TRIPOS>MOLECULE
MolPort-010-777-046 MolPort-047-128-844 ChemDiv-G889-0087 MCULE-3695965441 MCULE-9086515972 PubChem-146060485 PubChem-50807345 ZINC000046053313
 26 27 0 0 0
SMALL
GASTEIGER

@<TRIPOS>ATOM
      1 C          14.3899   39.8530    9.6475 C.ar    1  UNL1        0.0542
      2 C          13.6253   39.2491   10.6785 C.ar    1  UNL1        0.0900
      3 C          12.2358   39.4359   10.6901 C.ar    1  UNL1        0.0224
      4 C          11.5935   40.1881    9.6984 C.ar    1  UNL1        0.0508
      5 C          12.3527   40.7547    8.6745 C.ar    1  UNL1        0.0160
      6 C          13.7375   40.5908    8.6509 C.ar    1  UNL1        0.0160
      7 C           9.4450   41.4208   10.3718 C.2     1  UNL1        0.2495
      8 N          10.1731   40.3848    9.6945 N.am    1  UNL1       -0.2804
      9 O          10.0511   42.2878   11.0586 O.2     1  UNL1       -0.2698
     10 H           9.6409   39.7418    9.1724 H       1  UNL1        0.1552
     11 C           7.9762   41.4719   10.2625 C.ar    1  UNL1        0.0537
     12 C           7.1821   41.5544   11.4157 C.ar    1  UNL1        0.0045
     13 C           5.7888   41.6031   11.3131 C.ar    1  UNL1        0.0001
     14 C           5.1790   41.5696   10.0561 C.ar    1  UNL1        0.0000
     15 C           5.9622   41.4876    8.9018 C.ar    1  UNL1        0.0001
     16 C           7.3556   41.4390    9.0044 C.ar    1  UNL1        0.0045
     17 C          14.2114   38.3813   11.7240 C.2     1  UNL1        0.3393
     18 O          15.0741   38.9230   12.6704 O.3     1  UNL1       -0.4771
     19 O          13.9103   37.1614   11.8025 O.2     1  UNL1       -0.2450
     20 H          15.3085   39.8291   12.6264 H       1  UNL1        0.2954
     21 C          16.4760   38.4765    9.5160 C.3     1  UNL1        0.1122
     22 N          15.8199   39.7729    9.6146 N.pl3   1  UNL1       -0.3056
     23 C          16.6203   40.9890    9.7011 C.3     1  UNL1        0.0908
     24 C          16.4874   41.8303    8.4354 C.3     1  UNL1        0.0214
     25 C          17.4007   44.0076    7.6294 C.3     1  UNL1        0.0001
     26 C          17.7507   42.6309    8.1617 C.3     1  UNL1        0.0018
@<TRIPOS>BOND
     1    25    26    1
     2    26    24    1
     3    24    23    1
     4    23    22    1
     5    21    22    1
     6     2     3   ar
     7     2    17    1
     8     4     8    1
     9     4     5   ar
    10     7    11    1
    11    12    13   ar
    12    14    15   ar
    13    16    11   ar
    14     6     1   ar
    15    17    18    1
    16    22     1    1
    17     8     7   am
    18     1     2   ar
    19     3     4   ar
    20     7     9    2
    21    11    12   ar
    22    13    14   ar
    23    15    16   ar
    24     5     6   ar
    25    17    19    2
    26     8    10    1
    27    18    20    1
@<TRIPOS>MOLECULE
MolPort-010-777-046 MolPort-047-128-844 ChemDiv-G889-0087 MCULE-3695965441 MCULE-9086515972 PubChem-146060485 PubChem-50807345 ZINC000046053313
 26 27 0 0 0
SMALL
GASTEIGER

@<TRIPOS>ATOM
      1 C           6.2636   42.0239    9.0268 C.ar    1  UNL1        0.0542
      2 C           6.7849   43.1418    8.3261 C.ar    1  UNL1        0.0900
      3 C           8.1728   43.2508    8.1602 C.ar    1  UNL1        0.0224
      4 C           9.0447   42.2729    8.6552 C.ar    1  UNL1        0.0508
      5 C           8.5188   41.1645    9.3191 C.ar    1  UNL1        0.0160
      6 C           7.1420   41.0427    9.5052 C.ar    1  UNL1        0.0160
      7 C          11.2723   41.6572    7.5379 C.2     1  UNL1        0.2495
      8 N          10.4660   42.3683    8.4900 N.am    1  UNL1       -0.2804
      9 O          10.7445   40.8493    6.7259 O.2     1  UNL1       -0.2698
     10 H          10.9389   42.9865    9.0929 H       1  UNL1        0.1552
     11 C          12.7296   41.8744    7.5089 C.ar    1  UNL1        0.0537
     12 C          13.3076   42.6715    6.5100 C.ar    1  UNL1        0.0045
     13 C          14.6899   42.8783    6.4816 C.ar    1  UNL1        0.0001
     14 C          15.5047   42.2894    7.4522 C.ar    1  UNL1        0.0000
     15 C          14.9376   41.4937    8.4512 C.ar    1  UNL1        0.0001
     16 C          13.5552   41.2870    8.4796 C.ar    1  UNL1        0.0045
     17 C           5.9344   44.1839    7.7093 C.2     1  UNL1        0.3393
     18 O           5.3579   43.9599    6.4640 O.3     1  UNL1       -0.4771
     19 O           5.6841   45.2611    8.3110 O.2     1  UNL1       -0.2450
     20 H           5.5337   43.1635    6.0027 H       1  UNL1        0.2954
     21 C           4.0614   40.9362    8.5461 C.3     1  UNL1        0.1122
     22 N           4.8650   41.8849    9.3044 N.pl3   1  UNL1       -0.3056
     23 C           4.2406   42.7090   10.3330 C.3     1  UNL1        0.0908
     24 C           2.9882   42.0413   10.8926 C.3     1  UNL1        0.0214
     25 C           4.0308   40.0220   11.9219 C.3     1  UNL1        0.0001
     26 C           3.2788   41.3110   12.1940 C.3     1  UNL1        0.0018
@<TRIPOS>BOND
     1    25    26    1
     2    26    24    1
     3    24    23    1
     4    23    22    1
     5    21    22    1
     6     2     3   ar
     7     2    17    1
     8     4     8    1
     9     4     5   ar
    10     7    11    1
    11    12    13   ar
    12    14    15   ar
    13    16    11   ar
    14     6     1   ar
    15    17    18    1
    16    22     1    1
    17     8     7   am
    18     1     2   ar
    19     3     4   ar
    20     7     9    2
    21    11    12   ar
    22    13    14   ar
    23    15    16   ar
    24     5     6   ar
    25    17    19    2
    26     8    10    1
    27    18    20    1
@<TRIPOS>MOLECULE
MolPort-010-777-046 MolPort-047-128-844 ChemDiv-G889-0087 MCULE-3695965441 MCULE-9086515972 PubChem-146060485 PubChem-50807345 ZINC000046053313
 26 27 0 0 0
SMALL
GASTEIGER

@<TRIPOS>ATOM
      1 C          14.9315   39.7455    9.7772 C.ar    1  UNL1        0.0542
      2 C          13.9604   39.4181   10.7582 C.ar    1  UNL1        0.0900
      3 C          12.6786   39.9768   10.6560 C.ar    1  UNL1        0.0224
      4 C          12.3385   40.8317    9.6000 C.ar    1  UNL1        0.0508
      5 C          13.2935   41.1251    8.6266 C.ar    1  UNL1        0.0160
      6 C          14.5781   40.5892    8.7159 C.ar    1  UNL1        0.0160
      7 C           9.9923   41.0056    8.5730 C.2     1  UNL1        0.2495
      8 N          11.0307   41.4077    9.4798 N.am    1  UNL1       -0.2804
      9 O          10.1752   40.0500    7.7705 O.2     1  UNL1       -0.2698
     10 H          10.8228   42.1579   10.0825 H       1  UNL1        0.1552
     11 C           8.7009   41.7154    8.5811 C.ar    1  UNL1        0.0537
     12 C           8.2625   42.4022    7.4395 C.ar    1  UNL1        0.0045
     13 C           7.0375   43.0758    7.4460 C.ar    1  UNL1        0.0001
     14 C           6.2416   43.0675    8.5947 C.ar    1  UNL1        0.0000
     15 C           6.6703   42.3858    9.7367 C.ar    1  UNL1        0.0001
     16 C           7.8953   41.7122    9.7300 C.ar    1  UNL1        0.0045
     17 C          14.2112   38.4697   11.8660 C.2     1  UNL1        0.3393
     18 O          13.6302   37.2067   11.8416 O.3     1  UNL1       -0.4771
     19 O          14.9799   38.7677   12.8175 O.2     1  UNL1       -0.2450
     20 H          13.0557   36.9687   11.1407 H       1  UNL1        0.2954
     21 C          17.3787   40.2290    9.9807 C.3     1  UNL1        0.1122
     22 N          16.2830   39.2774    9.8589 N.pl3   1  UNL1       -0.3056
     23 C          16.5640   37.8475    9.7989 C.3     1  UNL1        0.0908
     24 C          15.6526   37.1459    8.7967 C.3     1  UNL1        0.0214
     25 C          14.8973   34.7702    8.8973 C.3     1  UNL1        0.0001
     26 C          16.0599   35.6955    8.5916 C.3     1  UNL1        0.0018
@<TRIPOS>BOND
     1    25    26    1
     2    26    24    1
     3    24    23    1
     4    23    22    1
     5    21    22    1
     6     2     3   ar
     7     2    17    1
     8     4     8    1
     9     4     5   ar
    10     7    11    1
    11    12    13   ar
    12    14    15   ar
    13    16    11   ar
    14     6     1   ar
    15    17    18    1
    16    22     1    1
    17     8     7   am
    18     1     2   ar
    19     3     4   ar
    20     7     9    2
    21    11    12   ar
    22    13    14   ar
    23    15    16   ar
    24     5     6   ar
    25    17    19    2
    26     8    10    1
    27    18    20    1
