@<TRIPOS>MOLECULE
MolPort-020-278-649 MCULE-1929153330 PubChem-110255521
 29 31 0 0 0
SMALL
GASTEIGER

@<TRIPOS>ATOM
      1 C          12.8158   42.1665    6.4834 C.ar    1  UNL1        0.1368
      2 C          14.1168   41.0392    8.1132 C.ar    1  UNL1        0.1411
      3 C          15.0690   42.8608    6.9460 C.ar    1  UNL1        0.0635
      4 C          13.8868   43.0297    6.2287 C.ar    1  UNL1        0.0492
      5 C          16.2239   43.7623    6.6982 C.3     1  UNL1        0.0522
      6 N          12.9576   41.1913    7.4200 N.ar    1  UNL1       -0.2158
      7 N          15.1650   41.8733    7.8727 N.ar    1  UNL1       -0.2349
      8 C          14.2262   39.9549    9.1328 C.3     1  UNL1        0.0764
      9 C          13.2273   40.1734   10.2592 C.3     1  UNL1        0.0105
     10 C          13.3615   39.0490   11.2713 C.3     1  UNL1        0.0197
     11 C          14.7968   38.9876   11.7990 C.3     1  UNL1        0.0969
     12 C          15.6479   39.8891    9.6977 C.3     1  UNL1        0.1044
     13 N          15.7970   38.8512   10.7281 N.3     1  UNL1       -0.1449
     14 S          15.7858   37.2541   10.0167 S.O2    1  UNL1        0.1021
     15 O          14.6989   36.4097   10.6241 O.2     1  UNL1       -0.1408
     16 O          15.5248   37.3780    8.5409 O.2     1  UNL1       -0.1408
     17 C          18.2483   37.4272   10.8134 C.3     1  UNL1        0.1161
     18 C          17.8335   36.1200    8.9229 C.3     1  UNL1        0.1161
     19 N          17.3207   36.4695   10.2363 N.3     1  UNL1       -0.1424
     20 N          11.5677   42.2792    5.7848 N.pl3   1  UNL1       -0.2679
     21 H          11.3447   43.1710    5.4324 H       1  UNL1        0.1565
     22 C           7.2002   40.3523    6.7522 C.3     1  UNL1        0.0522
     23 C           8.4853   40.3038    6.0077 C.ar    1  UNL1        0.0634
     24 C           8.7280   39.2720    5.1032 C.ar    1  UNL1        0.0296
     25 C           9.9452   39.2612    4.4250 C.ar    1  UNL1        0.0634
     26 C          10.6076   41.2422    5.5409 C.ar    1  UNL1        0.2211
     27 C          10.2446   38.1793    3.4516 C.3     1  UNL1        0.0522
     28 N          10.8582   40.2405    4.6537 N.ar    1  UNL1       -0.2179
     29 N           9.4240   41.2652    6.2095 N.ar    1  UNL1       -0.2179
@<TRIPOS>BOND
     1    22    23    1
     2    23    29   ar
     3    24    25   ar
     4    26    28   ar
     5    26    20    1
     6     2     6   ar
     7     3     7   ar
     8     4     1   ar
     9     5     3    1
    10     8     2    1
    11     8     9    1
    12     9    10    1
    13    10    11    1
    14    11    13    1
    15    12    13    1
    16    12     8    1
    17    17    19    1
    18    18    19    1
    19    27    25    1
    20    20     1    1
    21    14    13    1
    22    14    19    1
    23    23    24   ar
    24    25    28   ar
    25    26    29   ar
    26     1     6   ar
    27     2     7   ar
    28     3     4   ar
    29    14    15    2
    30    14    16    2
    31    20    21    1
@<TRIPOS>MOLECULE
MolPort-020-278-649 MCULE-1929153330 PubChem-110255521
 29 31 0 0 0
SMALL
GASTEIGER

@<TRIPOS>ATOM
      1 C          15.5812   41.9362    7.9765 C.ar    1  UNL1        0.1368
      2 C          13.3199   41.8458    7.2710 C.ar    1  UNL1        0.1411
      3 C          14.7119   43.5660    6.4399 C.ar    1  UNL1        0.0635
      4 C          15.7815   43.0702    7.1821 C.ar    1  UNL1        0.0492
      5 C          14.8938   44.7686    5.5863 C.3     1  UNL1        0.0522
      6 N          14.3540   41.3518    8.0017 N.ar    1  UNL1       -0.2158
      7 N          13.5040   42.9489    6.4953 N.ar    1  UNL1       -0.2349
      8 C          11.9904   41.1704    7.3292 C.3     1  UNL1        0.0764
      9 C          12.1384   39.7323    7.8030 C.3     1  UNL1        0.0105
     10 C          10.7676   39.0807    7.8578 C.3     1  UNL1        0.0197
     11 C          10.0983   39.1519    6.4833 C.3     1  UNL1        0.0969
     12 C          11.3095   41.2037    5.9582 C.3     1  UNL1        0.1044
     13 N          10.0058   40.5243    5.9601 N.3     1  UNL1       -0.1449
     14 S           8.8054   41.4720    6.8072 S.O2    1  UNL1        0.1021
     15 O           9.4492   42.3109    7.8773 O.2     1  UNL1       -0.1408
     16 O           8.1253   42.3883    5.8277 O.2     1  UNL1       -0.1408
     17 C           6.5882   40.1566    6.5204 C.3     1  UNL1        0.1161
     18 C           6.9472   41.1956    8.5811 C.3     1  UNL1        0.1161
     19 N           7.5998   40.4450    7.5225 N.3     1  UNL1       -0.1424
     20 N          16.6348   41.3684    8.7679 N.pl3   1  UNL1       -0.2679
     21 H          17.5108   41.8141    8.7112 H       1  UNL1        0.1565
     22 C          18.8329   37.4871   10.7242 C.3     1  UNL1        0.0522
     23 C          17.6241   38.3401   10.5854 C.ar    1  UNL1        0.0634
     24 C          16.4620   38.0208   11.2849 C.ar    1  UNL1        0.0296
     25 C          15.3493   38.8449   11.1278 C.ar    1  UNL1        0.0634
     26 C          16.5586   40.2264    9.6319 C.ar    1  UNL1        0.2211
     27 C          14.0900   38.5408   11.8554 C.3     1  UNL1        0.0522
     28 N          15.4164   39.9270   10.3096 N.ar    1  UNL1       -0.2179
     29 N          17.6517   39.4311    9.7758 N.ar    1  UNL1       -0.2179
@<TRIPOS>BOND
     1    22    23    1
     2    23    29   ar
     3    24    25   ar
     4    26    28   ar
     5    26    20    1
     6     2     6   ar
     7     3     7   ar
     8     4     1   ar
     9     5     3    1
    10     8     2    1
    11     8     9    1
    12     9    10    1
    13    10    11    1
    14    11    13    1
    15    12    13    1
    16    12     8    1
    17    17    19    1
    18    18    19    1
    19    27    25    1
    20    20     1    1
    21    14    13    1
    22    14    19    1
    23    23    24   ar
    24    25    28   ar
    25    26    29   ar
    26     1     6   ar
    27     2     7   ar
    28     3     4   ar
    29    14    15    2
    30    14    16    2
    31    20    21    1
@<TRIPOS>MOLECULE
MolPort-020-278-649 MCULE-1929153330 PubChem-110255521
 29 31 0 0 0
SMALL
GASTEIGER

@<TRIPOS>ATOM
      1 C          16.2381   41.8544    8.4076 C.ar    1  UNL1        0.1368
      2 C          13.9399   41.8271    7.8271 C.ar    1  UNL1        0.1411
      3 C          15.3517   43.4466    6.8416 C.ar    1  UNL1        0.0635
      4 C          16.4396   42.9409    7.5498 C.ar    1  UNL1        0.0492
      5 C          15.5344   44.5997    5.9223 C.3     1  UNL1        0.0522
      6 N          14.9918   41.3241    8.5255 N.ar    1  UNL1       -0.2158
      7 N          14.1251   42.8844    6.9903 N.ar    1  UNL1       -0.2349
      8 C          12.5898   41.2118    7.9877 C.3     1  UNL1        0.0764
      9 C          12.6698   39.6983    7.8569 C.3     1  UNL1        0.0105
     10 C          11.2820   39.1073    8.0339 C.3     1  UNL1        0.0197
     11 C          10.3213   39.7087    7.0055 C.3     1  UNL1        0.0969
     12 C          11.6142   41.7771    6.9518 C.3     1  UNL1        0.1044
     13 N          10.2752   41.1789    7.0538 N.3     1  UNL1       -0.1449
     14 S           9.4322   41.7646    8.4692 S.O2    1  UNL1        0.1021
     15 O           8.7049   43.0453    8.1621 O.2     1  UNL1       -0.1408
     16 O           8.4239   40.7349    8.8988 O.2     1  UNL1       -0.1408
     17 C          10.1867   41.1272   10.8677 C.3     1  UNL1        0.1161
     18 C          10.3376   43.3802   10.2708 C.3     1  UNL1        0.1161
     19 N          10.5391   42.0270    9.7828 N.3     1  UNL1       -0.1424
     20 N          17.3098   41.2799    9.1691 N.pl3   1  UNL1       -0.2679
     21 H          18.1248   41.8255    9.2545 H       1  UNL1        0.1565
     22 C          14.9892   37.9586   11.8723 C.3     1  UNL1        0.0522
     23 C          16.2052   38.3855   11.1326 C.ar    1  UNL1        0.0634
     24 C          17.3207   37.5517   11.0854 C.ar    1  UNL1        0.0296
     25 C          18.4418   37.9880   10.3821 C.ar    1  UNL1        0.0634
     26 C          17.3304   40.0022    9.8201 C.ar    1  UNL1        0.2211
     27 C          19.6526   37.1300   10.3065 C.3     1  UNL1        0.0522
     28 N          18.4274   39.1978    9.7650 N.ar    1  UNL1       -0.2179
     29 N          16.2296   39.5892   10.5026 N.ar    1  UNL1       -0.2179
@<TRIPOS>BOND
     1    22    23    1
     2    23    29   ar
     3    24    25   ar
     4    26    28   ar
     5    26    20    1
     6     2     6   ar
     7     3     7   ar
     8     4     1   ar
     9     5     3    1
    10     8     2    1
    11     8     9    1
    12     9    10    1
    13    10    11    1
    14    11    13    1
    15    12    13    1
    16    12     8    1
    17    17    19    1
    18    18    19    1
    19    27    25    1
    20    20     1    1
    21    14    13    1
    22    14    19    1
    23    23    24   ar
    24    25    28   ar
    25    26    29   ar
    26     1     6   ar
    27     2     7   ar
    28     3     4   ar
    29    14    15    2
    30    14    16    2
    31    20    21    1
@<TRIPOS>MOLECULE
MolPort-020-278-649 MCULE-1929153330 PubChem-110255521
 29 31 0 0 0
SMALL
GASTEIGER

@<TRIPOS>ATOM
      1 C          12.4244   40.9310    7.7558 C.ar    1  UNL1        0.1368
      2 C          10.1678   41.0120    8.4773 C.ar    1  UNL1        0.1411
      3 C          11.4021   39.0214    8.7956 C.ar    1  UNL1        0.0635
      4 C          12.5195   39.6108    8.2085 C.ar    1  UNL1        0.0492
      5 C          11.4723   37.6207    9.2866 C.3     1  UNL1        0.0522
      6 N          11.2496   41.5995    7.9011 N.ar    1  UNL1       -0.2158
      7 N          10.2495   39.7278    8.9205 N.ar    1  UNL1       -0.2349
      8 C           8.8989   41.7852    8.6165 C.3     1  UNL1        0.0764
      9 C           9.1830   43.2786    8.6735 C.3     1  UNL1        0.0105
     10 C           7.8710   44.0321    8.8064 C.3     1  UNL1        0.0197
     11 C           7.1177   43.5569   10.0511 C.3     1  UNL1        0.0969
     12 C           8.1372   41.3477    9.8706 C.3     1  UNL1        0.1044
     13 N           6.8909   42.1029   10.0647 N.3     1  UNL1       -0.1449
     14 S           5.6748   41.6157    8.9068 S.O2    1  UNL1        0.1021
     15 O           5.1253   42.8120    8.1786 O.2     1  UNL1       -0.1408
     16 O           6.3010   40.6907    7.9000 O.2     1  UNL1       -0.1408
     17 C           3.1323   41.4569    9.3960 C.3     1  UNL1        0.1161
     18 C           4.5854   40.8695   11.1277 C.3     1  UNL1        0.1161
     19 N           4.3770   40.7692    9.6936 N.3     1  UNL1       -0.1424
     20 N          13.5325   41.6041    7.1413 N.pl3   1  UNL1       -0.2679
     21 H          13.3684   41.9893    6.2503 H       1  UNL1        0.1565
     22 C          17.0351   40.0553   10.1507 C.3     1  UNL1        0.0522
     23 C          16.5563   41.0298    9.1362 C.ar    1  UNL1        0.0634
     24 C          17.3827   42.0757    8.7303 C.ar    1  UNL1        0.0296
     25 C          16.8973   42.9690    7.7774 C.ar    1  UNL1        0.0634
     26 C          14.8516   41.7804    7.6757 C.ar    1  UNL1        0.2211
     27 C          17.7458   44.0984    7.3165 C.3     1  UNL1        0.0522
     28 N          15.6482   42.8069    7.2692 N.ar    1  UNL1       -0.2179
     29 N          15.3124   40.9013    8.6048 N.ar    1  UNL1       -0.2179
@<TRIPOS>BOND
     1    22    23    1
     2    23    29   ar
     3    24    25   ar
     4    26    28   ar
     5    26    20    1
     6     2     6   ar
     7     3     7   ar
     8     4     1   ar
     9     5     3    1
    10     8     2    1
    11     8     9    1
    12     9    10    1
    13    10    11    1
    14    11    13    1
    15    12    13    1
    16    12     8    1
    17    17    19    1
    18    18    19    1
    19    27    25    1
    20    20     1    1
    21    14    13    1
    22    14    19    1
    23    23    24   ar
    24    25    28   ar
    25    26    29   ar
    26     1     6   ar
    27     2     7   ar
    28     3     4   ar
    29    14    15    2
    30    14    16    2
    31    20    21    1
@<TRIPOS>MOLECULE
MolPort-020-278-649 MCULE-1929153330 PubChem-110255521
 29 31 0 0 0
SMALL
GASTEIGER

@<TRIPOS>ATOM
      1 C          13.7459   39.9529    9.4166 C.ar    1  UNL1        0.1368
      2 C          11.4487   40.4591    9.7106 C.ar    1  UNL1        0.1411
      3 C          12.1722   38.2240    9.9713 C.ar    1  UNL1        0.0635
      4 C          13.4819   38.6066    9.6901 C.ar    1  UNL1        0.0492
      5 C          11.8606   36.8013   10.2661 C.3     1  UNL1        0.0522
      6 N          12.7216   40.8467    9.4332 N.ar    1  UNL1       -0.2158
      7 N          11.1811   39.1516    9.9774 N.ar    1  UNL1       -0.2349
      8 C          10.3563   41.4759    9.7184 C.3     1  UNL1        0.0764
      9 C          10.9218   42.8707    9.9395 C.3     1  UNL1        0.0105
     10 C           9.7849   43.8777    9.9330 C.3     1  UNL1        0.0197
     11 C           8.7562   43.5134   11.0060 C.3     1  UNL1        0.0969
     12 C           9.3255   41.1497   10.8026 C.3     1  UNL1        0.1044
     13 N           8.2422   42.1415   10.8665 N.3     1  UNL1       -0.1449
     14 S           7.1614   41.9793    9.5017 S.O2    1  UNL1        0.1021
     15 O           7.8372   41.2500    8.3727 O.2     1  UNL1       -0.1408
     16 O           5.9543   41.1887    9.9252 O.2     1  UNL1       -0.1408
     17 C           5.1746   43.5514    8.9449 C.3     1  UNL1        0.1161
     18 C           7.0569   43.6910    7.5691 C.3     1  UNL1        0.1161
     19 N           6.6274   43.5376    8.9483 N.3     1  UNL1       -0.1424
     20 N          15.0688   40.4215    9.1188 N.pl3   1  UNL1       -0.2679
     21 H          15.8118   39.8991    9.4986 H       1  UNL1        0.1565
     22 C          13.9001   43.5906    5.6096 C.3     1  UNL1        0.0522
     23 C          14.8681   43.1058    6.6274 C.ar    1  UNL1        0.0634
     24 C          16.0880   43.7581    6.7951 C.ar    1  UNL1        0.0296
     25 C          16.9691   43.2729    7.7595 C.ar    1  UNL1        0.0634
     26 C          15.4334   41.5633    8.3315 C.ar    1  UNL1        0.2211
     27 C          18.2804   43.9389    7.9710 C.3     1  UNL1        0.0522
     28 N          16.6287   42.1910    8.5068 N.ar    1  UNL1       -0.2179
     29 N          14.5641   42.0261    7.3942 N.ar    1  UNL1       -0.2179
@<TRIPOS>BOND
     1    22    23    1
     2    23    29   ar
     3    24    25   ar
     4    26    28   ar
     5    26    20    1
     6     2     6   ar
     7     3     7   ar
     8     4     1   ar
     9     5     3    1
    10     8     2    1
    11     8     9    1
    12     9    10    1
    13    10    11    1
    14    11    13    1
    15    12    13    1
    16    12     8    1
    17    17    19    1
    18    18    19    1
    19    27    25    1
    20    20     1    1
    21    14    13    1
    22    14    19    1
    23    23    24   ar
    24    25    28   ar
    25    26    29   ar
    26     1     6   ar
    27     2     7   ar
    28     3     4   ar
    29    14    15    2
    30    14    16    2
    31    20    21    1
@<TRIPOS>MOLECULE
MolPort-020-278-649 MCULE-1929153330 PubChem-110255521
 29 31 0 0 0
SMALL
GASTEIGER

@<TRIPOS>ATOM
      1 C          15.8589   41.9702    8.0492 C.ar    1  UNL1        0.1368
      2 C          13.6788   42.1132    7.1292 C.ar    1  UNL1        0.1411
      3 C          15.2366   43.8273    6.6574 C.ar    1  UNL1        0.0635
      4 C          16.1980   43.1767    7.4276 C.ar    1  UNL1        0.0492
      5 C          15.5670   45.1102    5.9844 C.3     1  UNL1        0.0522
      6 N          14.6063   41.4680    7.8848 N.ar    1  UNL1       -0.2158
      7 N          13.9983   43.2879    6.5206 N.ar    1  UNL1       -0.2349
      8 C          12.3165   41.5235    6.9763 C.3     1  UNL1        0.0764
      9 C          11.9964   41.2832    5.5086 C.3     1  UNL1        0.0105
     10 C          10.6090   40.6762    5.3926 C.3     1  UNL1        0.0197
     11 C           9.5775   41.5977    6.0477 C.3     1  UNL1        0.0969
     12 C          11.2604   42.4399    7.6004 C.3     1  UNL1        0.1044
     13 N           9.8966   41.9121    7.4495 N.3     1  UNL1       -0.1449
     14 S           9.6318   40.5454    8.5072 S.O2    1  UNL1        0.1021
     15 O          10.2767   40.7774    9.8465 O.2     1  UNL1       -0.1408
     16 O           8.1531   40.3668    8.7145 O.2     1  UNL1       -0.1408
     17 C           9.1553   38.1929    7.5236 C.3     1  UNL1        0.1161
     18 C          11.0951   38.4363    8.8014 C.3     1  UNL1        0.1161
     19 N          10.2649   39.0881    7.8034 N.3     1  UNL1       -0.1424
     20 N          16.7956   41.2434    8.8571 N.pl3   1  UNL1       -0.2679
     21 H          17.7298   41.5525    8.8257 H       1  UNL1        0.1565
     22 C          13.6728   38.8711   11.7457 C.3     1  UNL1        0.0522
     23 C          15.0122   38.9624   11.1087 C.ar    1  UNL1        0.0634
     24 C          15.9638   37.9717   11.3421 C.ar    1  UNL1        0.0296
     25 C          17.2082   38.0934   10.7270 C.ar    1  UNL1        0.0634
     26 C          16.5277   40.1185    9.7053 C.ar    1  UNL1        0.2211
     27 C          18.2518   37.0591   10.9489 C.3     1  UNL1        0.0522
     28 N          17.4671   39.1577    9.9239 N.ar    1  UNL1       -0.2179
     29 N          15.3093   40.0124   10.2990 N.ar    1  UNL1       -0.2179
@<TRIPOS>BOND
     1    22    23    1
     2    23    29   ar
     3    24    25   ar
     4    26    28   ar
     5    26    20    1
     6     2     6   ar
     7     3     7   ar
     8     4     1   ar
     9     5     3    1
    10     8     2    1
    11     8     9    1
    12     9    10    1
    13    10    11    1
    14    11    13    1
    15    12    13    1
    16    12     8    1
    17    17    19    1
    18    18    19    1
    19    27    25    1
    20    20     1    1
    21    14    13    1
    22    14    19    1
    23    23    24   ar
    24    25    28   ar
    25    26    29   ar
    26     1     6   ar
    27     2     7   ar
    28     3     4   ar
    29    14    15    2
    30    14    16    2
    31    20    21    1
@<TRIPOS>MOLECULE
MolPort-020-278-649 MCULE-1929153330 PubChem-110255521
 29 31 0 0 0
SMALL
GASTEIGER

@<TRIPOS>ATOM
      1 C          15.4580   41.9382    7.9293 C.ar    1  UNL1        0.1368
      2 C          13.1738   41.9467    7.2952 C.ar    1  UNL1        0.1411
      3 C          14.6057   43.6238    6.4442 C.ar    1  UNL1        0.0635
      4 C          15.6777   43.0755    7.1449 C.ar    1  UNL1        0.0492
      5 C          14.8079   44.8313    5.6022 C.3     1  UNL1        0.0522
      6 N          14.2101   41.4017    7.9855 N.ar    1  UNL1       -0.2158
      7 N          13.3767   43.0535    6.5296 N.ar    1  UNL1       -0.2349
      8 C          11.8212   41.3227    7.3865 C.3     1  UNL1        0.0764
      9 C          11.5332   40.8695    8.8098 C.3     1  UNL1        0.0105
     10 C          10.1483   40.2486    8.8660 C.3     1  UNL1        0.0197
     11 C          10.0558   39.0839    7.8774 C.3     1  UNL1        0.0969
     12 C          11.7103   40.1359    6.4253 C.3     1  UNL1        0.1044
     13 N          10.4013   39.4709    6.5002 N.3     1  UNL1       -0.1449
     14 S           9.1565   40.4502    5.7598 S.O2    1  UNL1        0.1021
     15 O           9.6827   41.8217    5.4349 O.2     1  UNL1       -0.1408
     16 O           8.7139   39.7939    4.4812 O.2     1  UNL1       -0.1408
     17 C           6.7277   39.7211    6.3058 C.3     1  UNL1        0.1161
     18 C           7.2822   41.9537    6.7098 C.3     1  UNL1        0.1161
     19 N           7.7772   40.5915    6.8075 N.3     1  UNL1       -0.1424
     20 N          16.5126   41.3178    8.6785 N.pl3   1  UNL1       -0.2679
     21 H          17.4136   41.6959    8.5575 H       1  UNL1        0.1565
     22 C          13.8004   38.7708   11.8217 C.3     1  UNL1        0.0522
     23 C          15.0899   38.9696   11.1104 C.ar    1  UNL1        0.0634
     24 C          16.1498   38.0923   11.3310 C.ar    1  UNL1        0.0296
     25 C          17.3428   38.3126   10.6455 C.ar    1  UNL1        0.0634
     26 C          16.4055   40.2104    9.5833 C.ar    1  UNL1        0.2211
     27 C          18.4980   37.4010   10.8512 C.3     1  UNL1        0.0522
     28 N          17.4494   39.3609    9.7884 N.ar    1  UNL1       -0.2179
     29 N          15.2356   40.0073   10.2454 N.ar    1  UNL1       -0.2179
@<TRIPOS>BOND
     1    22    23    1
     2    23    29   ar
     3    24    25   ar
     4    26    28   ar
     5    26    20    1
     6     2     6   ar
     7     3     7   ar
     8     4     1   ar
     9     5     3    1
    10     8     2    1
    11     8     9    1
    12     9    10    1
    13    10    11    1
    14    11    13    1
    15    12    13    1
    16    12     8    1
    17    17    19    1
    18    18    19    1
    19    27    25    1
    20    20     1    1
    21    14    13    1
    22    14    19    1
    23    23    24   ar
    24    25    28   ar
    25    26    29   ar
    26     1     6   ar
    27     2     7   ar
    28     3     4   ar
    29    14    15    2
    30    14    16    2
    31    20    21    1
@<TRIPOS>MOLECULE
MolPort-020-278-649 MCULE-1929153330 PubChem-110255521
 29 31 0 0 0
SMALL
GASTEIGER

@<TRIPOS>ATOM
      1 C          13.7854   40.0326    9.1699 C.ar    1  UNL1        0.1368
      2 C          11.5049   40.5490    9.5601 C.ar    1  UNL1        0.1411
      3 C          12.2109   38.2976    9.7027 C.ar    1  UNL1        0.0635
      4 C          13.5151   38.6786    9.3950 C.ar    1  UNL1        0.0492
      5 C          11.8927   36.8670    9.9475 C.3     1  UNL1        0.0522
      6 N          12.7725   40.9351    9.2576 N.ar    1  UNL1       -0.2158
      7 N          11.2311   39.2341    9.7803 N.ar    1  UNL1       -0.2349
      8 C          10.4251   41.5755    9.6465 C.3     1  UNL1        0.0764
      9 C          11.0110   42.9488    9.9380 C.3     1  UNL1        0.0105
     10 C           9.8862   43.9668   10.0103 C.3     1  UNL1        0.0197
     11 C           8.8719   43.5519   11.0787 C.3     1  UNL1        0.0969
     12 C           9.4093   41.1980   10.7282 C.3     1  UNL1        0.1044
     13 N           8.3392   42.1962   10.8690 N.3     1  UNL1       -0.1449
     14 S           7.2332   42.1256    9.5167 S.O2    1  UNL1        0.1021
     15 O           7.3614   43.3563    8.6609 O.2     1  UNL1       -0.1408
     16 O           7.5646   40.9235    8.6761 O.2     1  UNL1       -0.1408
     17 C           5.5918   41.1982   11.2985 C.3     1  UNL1        0.1161
     18 C           4.8619   41.1970    9.0799 C.3     1  UNL1        0.1161
     19 N           5.5925   41.9712   10.0683 N.3     1  UNL1       -0.1424
     20 N          15.1033   40.5000    8.8487 N.pl3   1  UNL1       -0.2679
     21 H          15.8517   39.9416    9.1607 H       1  UNL1        0.1565
     22 C          18.3662   44.0048    7.9578 C.3     1  UNL1        0.0522
     23 C          17.0398   43.3912    7.6892 C.ar    1  UNL1        0.0634
     24 C          16.1806   43.9691    6.7568 C.ar    1  UNL1        0.0296
     25 C          14.9453   43.3642    6.5334 C.ar    1  UNL1        0.0634
     26 C          15.4559   41.6871    8.1255 C.ar    1  UNL1        0.2211
     27 C          13.9991   43.9476    5.5474 C.3     1  UNL1        0.0522
     28 N          14.6064   42.2405    7.2168 N.ar    1  UNL1       -0.2179
     29 N          16.6644   42.2667    8.3534 N.ar    1  UNL1       -0.2179
@<TRIPOS>BOND
     1    22    23    1
     2    23    29   ar
     3    24    25   ar
     4    26    28   ar
     5    26    20    1
     6     2     6   ar
     7     3     7   ar
     8     4     1   ar
     9     5     3    1
    10     8     2    1
    11     8     9    1
    12     9    10    1
    13    10    11    1
    14    11    13    1
    15    12    13    1
    16    12     8    1
    17    17    19    1
    18    18    19    1
    19    27    25    1
    20    20     1    1
    21    14    13    1
    22    14    19    1
    23    23    24   ar
    24    25    28   ar
    25    26    29   ar
    26     1     6   ar
    27     2     7   ar
    28     3     4   ar
    29    14    15    2
    30    14    16    2
    31    20    21    1
@<TRIPOS>MOLECULE
MolPort-020-278-649 MCULE-1929153330 PubChem-110255521
 29 31 0 0 0
SMALL
GASTEIGER

@<TRIPOS>ATOM
      1 C          12.7435   42.1384    6.4539 C.ar    1  UNL1        0.1368
      2 C          13.9630   40.9735    8.1199 C.ar    1  UNL1        0.1411
      3 C          14.9989   42.7716    6.9881 C.ar    1  UNL1        0.0635
      4 C          13.8444   42.9734    6.2351 C.ar    1  UNL1        0.0492
      5 C          16.1844   43.6427    6.7789 C.3     1  UNL1        0.0522
      6 N          12.8304   41.1578    7.3916 N.ar    1  UNL1       -0.2158
      7 N          15.0399   41.7800    7.9144 N.ar    1  UNL1       -0.2349
      8 C          14.0120   39.8845    9.1391 C.3     1  UNL1        0.0764
      9 C          13.2369   40.2807   10.3867 C.3     1  UNL1        0.0105
     10 C          13.3016   39.1476   11.3960 C.3     1  UNL1        0.0197
     11 C          14.7603   38.8197   11.7229 C.3     1  UNL1        0.0969
     12 C          15.4618   39.5546    9.5047 C.3     1  UNL1        0.1044
     13 N          15.5595   38.5038   10.5282 N.3     1  UNL1       -0.1449
     14 S          15.1560   36.9387    9.8615 S.O2    1  UNL1        0.1021
     15 O          14.2899   36.1622   10.8156 O.2     1  UNL1       -0.1408
     16 O          14.3956   37.1349    8.5790 O.2     1  UNL1       -0.1408
     17 C          17.7482   36.8432    9.8465 C.3     1  UNL1        0.1161
     18 C          16.6370   35.8000    8.0766 C.3     1  UNL1        0.1161
     19 N          16.5936   36.0277    9.5106 N.3     1  UNL1       -0.1424
     20 N          11.5211   42.2858    5.7174 N.pl3   1  UNL1       -0.2679
     21 H          11.3922   43.1452    5.2547 H       1  UNL1        0.1565
     22 C           9.6944   38.4371    3.3564 C.3     1  UNL1        0.0522
     23 C           9.5754   39.4542    4.4332 C.ar    1  UNL1        0.0634
     24 C           8.4623   39.4546    5.2713 C.ar    1  UNL1        0.0296
     25 C           8.3871   40.4248    6.2687 C.ar    1  UNL1        0.0634
     26 C          10.4655   41.3252    5.5775 C.ar    1  UNL1        0.2211
     27 C           7.2174   40.4609    7.1844 C.3     1  UNL1        0.0522
     28 N           9.3839   41.3374    6.4043 N.ar    1  UNL1       -0.2179
     29 N          10.5519   40.3842    4.6002 N.ar    1  UNL1       -0.2179
@<TRIPOS>BOND
     1    22    23    1
     2    23    29   ar
     3    24    25   ar
     4    26    28   ar
     5    26    20    1
     6     2     6   ar
     7     3     7   ar
     8     4     1   ar
     9     5     3    1
    10     8     2    1
    11     8     9    1
    12     9    10    1
    13    10    11    1
    14    11    13    1
    15    12    13    1
    16    12     8    1
    17    17    19    1
    18    18    19    1
    19    27    25    1
    20    20     1    1
    21    14    13    1
    22    14    19    1
    23    23    24   ar
    24    25    28   ar
    25    26    29   ar
    26     1     6   ar
    27     2     7   ar
    28     3     4   ar
    29    14    15    2
    30    14    16    2
    31    20    21    1
@<TRIPOS>MOLECULE
MolPort-020-278-649 MCULE-1929153330 PubChem-110255521
 29 31 0 0 0
SMALL
GASTEIGER

@<TRIPOS>ATOM
      1 C          12.3947   42.0227    6.5737 C.ar    1  UNL1        0.1368
      2 C          14.0067   41.0451    8.0109 C.ar    1  UNL1        0.1411
      3 C          14.6219   42.9149    6.7023 C.ar    1  UNL1        0.0635
      4 C          13.3397   42.9677    6.1602 C.ar    1  UNL1        0.0492
      5 C          15.6472   43.9054    6.2832 C.3     1  UNL1        0.0522
      6 N          12.7521   41.0835    7.4894 N.ar    1  UNL1       -0.2158
      7 N          14.9337   41.9595    7.6149 N.ar    1  UNL1       -0.2349
      8 C          14.3534   39.9963    9.0144 C.3     1  UNL1        0.0764
      9 C          13.2565   39.8701   10.0609 C.3     1  UNL1        0.0105
     10 C          13.6390   38.7903   11.0581 C.3     1  UNL1        0.0197
     11 C          14.9889   39.1228   11.6982 C.3     1  UNL1        0.0969
     12 C          15.6889   40.3190    9.6903 C.3     1  UNL1        0.1044
     13 N          16.0592   39.3256   10.7088 N.3     1  UNL1       -0.1449
     14 S          16.5631   37.8245    9.9674 S.O2    1  UNL1        0.1021
     15 O          16.4256   36.6814   10.9358 O.2     1  UNL1       -0.1408
     16 O          15.6868   37.5488    8.7768 O.2     1  UNL1       -0.1408
     17 C          18.7834   36.5926    9.4366 C.3     1  UNL1        0.1161
     18 C          18.9503   38.7186   10.3893 C.3     1  UNL1        0.1161
     19 N          18.2098   37.9274    9.4219 N.3     1  UNL1       -0.1424
     20 N          11.0551   42.0142    6.0601 N.pl3   1  UNL1       -0.2679
     21 H          10.9476   42.2832    5.1192 H       1  UNL1        0.1565
     22 C           8.3148   42.4026   10.0680 C.3     1  UNL1        0.0522
     23 C           8.5198   41.8466    8.7054 C.ar    1  UNL1        0.0634
     24 C           7.5596   41.0076    8.1434 C.ar    1  UNL1        0.0296
     25 C           7.7887   40.5060    6.8637 C.ar    1  UNL1        0.0634
     26 C           9.8546   41.6591    6.7596 C.ar    1  UNL1        0.2211
     27 C           6.7905   39.6081    6.2272 C.3     1  UNL1        0.0522
     28 N           8.9248   40.8386    6.1977 N.ar    1  UNL1       -0.2179
     29 N           9.6440   42.1558    8.0075 N.ar    1  UNL1       -0.2179
@<TRIPOS>BOND
     1    22    23    1
     2    23    29   ar
     3    24    25   ar
     4    26    28   ar
     5    26    20    1
     6     2     6   ar
     7     3     7   ar
     8     4     1   ar
     9     5     3    1
    10     8     2    1
    11     8     9    1
    12     9    10    1
    13    10    11    1
    14    11    13    1
    15    12    13    1
    16    12     8    1
    17    17    19    1
    18    18    19    1
    19    27    25    1
    20    20     1    1
    21    14    13    1
    22    14    19    1
    23    23    24   ar
    24    25    28   ar
    25    26    29   ar
    26     1     6   ar
    27     2     7   ar
    28     3     4   ar
    29    14    15    2
    30    14    16    2
    31    20    21    1
