@<TRIPOS>MOLECULE
MolPort-046-971-810 MCULE-8808227310 PubChem-110111796
 28 31 0 0 0
SMALL
GASTEIGER

@<TRIPOS>ATOM
      1 C          14.2524   40.7465    9.0996 C.ar    1  UNL1        0.1329
      2 C          13.5714   39.4047   10.9422 C.ar    1  UNL1        0.1000
      3 C          12.3152   40.0126   10.9501 C.ar    1  UNL1        0.0165
      4 C          12.0297   41.0093   10.0079 C.ar    1  UNL1       -0.0168
      5 C          13.0054   41.3764    9.0784 C.ar    1  UNL1        0.0302
      6 N          14.5042   39.7803   10.0268 N.ar    1  UNL1       -0.2291
      7 C          10.6983   41.6900    9.9744 C.3     1  UNL1        0.0385
      8 C          10.8570   43.2038    9.9096 C.3     1  UNL1        0.0072
      9 C           9.4838   43.8537    9.8765 C.3     1  UNL1        0.0177
     10 C           8.6746   43.4180   11.1017 C.3     1  UNL1        0.0724
     11 C           9.8464   41.2943   11.1883 C.3     1  UNL1        0.0767
     12 N           8.5345   41.9563   11.1954 N.3     1  UNL1       -0.2674
     13 C           7.7199   41.4531   10.0901 C.3     1  UNL1        0.1183
     14 C           6.2703   41.7981   10.2724 C.ar    1  UNL1        0.0734
     15 C           5.4404   41.3686   11.2936 C.ar    1  UNL1        0.0382
     16 C           4.2182   41.9621   11.0001 C.ar    1  UNL1        0.1214
     17 C           6.0700   43.2434    8.2448 C.3     1  UNL1        0.1534
     18 N           4.3299   42.6944    9.8725 N.ar    1  UNL1       -0.1679
     19 N           5.5722   42.5877    9.4424 N.ar    1  UNL1       -0.2515
     20 N          15.2431   41.1336    8.1399 N.pl3   1  UNL1       -0.2836
     21 H          15.9904   40.5088    7.9971 H       1  UNL1        0.1550
     22 C          17.3772   43.0525    8.5348 C.3     1  UNL1        0.0340
     23 C          16.2833   43.2805    7.5486 C.ar    1  UNL1        0.0099
     24 C          15.2537   42.3424    7.3659 C.ar    1  UNL1        0.1291
     25 C          14.2598   43.7313    5.7055 C.ar    1  UNL1        0.1003
     26 C          15.2672   44.6835    5.8620 C.ar    1  UNL1        0.0204
     27 C          16.2826   44.4525    6.7900 C.ar    1  UNL1        0.0001
     28 N          14.2743   42.5946    6.4519 N.ar    1  UNL1       -0.2294
@<TRIPOS>BOND
     1    22    23    1
     2    24    28   ar
     3    24    20    1
     4    25    26   ar
     5    27    23   ar
     6     2     6   ar
     7     3     4   ar
     8     5     1   ar
     9     7     4    1
    10     7     8    1
    11     8     9    1
    12     9    10    1
    13    10    12    1
    14    11    12    1
    15    11     7    1
    16    13    12    1
    17    13    14    1
    18    15    16   ar
    19    17    19    1
    20    20     1    1
    21    19    18   ar
    22    19    14   ar
    23    23    24   ar
    24    25    28   ar
    25    26    27   ar
    26     1     6   ar
    27     2     3   ar
    28     4     5   ar
    29    14    15   ar
    30    16    18   ar
    31    20    21    1
@<TRIPOS>MOLECULE
MolPort-046-971-810 MCULE-8808227310 PubChem-110111796
 28 31 0 0 0
SMALL
GASTEIGER

@<TRIPOS>ATOM
      1 C          13.4494   41.2473    8.4285 C.ar    1  UNL1        0.1329
      2 C          13.3063   39.8214   10.3273 C.ar    1  UNL1        0.1000
      3 C          12.0398   40.3205   10.6353 C.ar    1  UNL1        0.0165
      4 C          11.4730   41.3054    9.8159 C.ar    1  UNL1       -0.0168
      5 C          12.1837   41.7696    8.7068 C.ar    1  UNL1        0.0302
      6 N          13.9778   40.2902    9.2417 N.ar    1  UNL1       -0.2291
      7 C          10.1186   41.8713   10.1027 C.3     1  UNL1        0.0385
      8 C           9.8266   41.8660   11.5978 C.3     1  UNL1        0.0072
      9 C           8.4447   42.4484   11.8438 C.3     1  UNL1        0.0177
     10 C           7.3994   41.6523   11.0567 C.3     1  UNL1        0.0724
     11 C           9.0281   41.1029    9.3434 C.3     1  UNL1        0.0767
     12 N           7.6808   41.6237    9.6128 N.3     1  UNL1       -0.2674
     13 C           7.5447   42.9636    9.0431 C.3     1  UNL1        0.1183
     14 C           6.1049   43.3210    8.8132 C.ar    1  UNL1        0.0734
     15 C           5.5907   44.5895    8.6070 C.ar    1  UNL1        0.0382
     16 C           4.2263   44.3736    8.4521 C.ar    1  UNL1        0.1214
     17 C           5.2133   40.9917    8.9532 C.3     1  UNL1        0.1534
     18 N           3.9614   43.0553    8.5624 N.ar    1  UNL1       -0.1679
     19 N           5.1022   42.4303    8.7804 N.ar    1  UNL1       -0.2515
     20 N          14.1663   41.7332    7.2873 N.pl3   1  UNL1       -0.2836
     21 H          13.7931   41.5147    6.4029 H       1  UNL1        0.1550
     22 C          14.3751   44.0789    5.6001 C.3     1  UNL1        0.0340
     23 C          15.4881   43.6467    6.4921 C.ar    1  UNL1        0.0099
     24 C          15.3750   42.5074    7.3060 C.ar    1  UNL1        0.1291
     25 C          17.5761   42.8658    8.1429 C.ar    1  UNL1        0.1003
     26 C          17.7212   44.0026    7.3475 C.ar    1  UNL1        0.0204
     27 C          16.6687   44.3914    6.5189 C.ar    1  UNL1        0.0001
     28 N          16.4198   42.1509    8.1057 N.ar    1  UNL1       -0.2294
@<TRIPOS>BOND
     1    22    23    1
     2    24    28   ar
     3    24    20    1
     4    25    26   ar
     5    27    23   ar
     6     2     6   ar
     7     3     4   ar
     8     5     1   ar
     9     7     4    1
    10     7     8    1
    11     8     9    1
    12     9    10    1
    13    10    12    1
    14    11    12    1
    15    11     7    1
    16    13    12    1
    17    13    14    1
    18    15    16   ar
    19    17    19    1
    20    20     1    1
    21    19    18   ar
    22    19    14   ar
    23    23    24   ar
    24    25    28   ar
    25    26    27   ar
    26     1     6   ar
    27     2     3   ar
    28     4     5   ar
    29    14    15   ar
    30    16    18   ar
    31    20    21    1
@<TRIPOS>MOLECULE
MolPort-046-971-810 MCULE-8808227310 PubChem-110111796
 28 31 0 0 0
SMALL
GASTEIGER

@<TRIPOS>ATOM
      1 C          12.9935   40.7913    8.7410 C.ar    1  UNL1        0.1329
      2 C          12.2314   40.2761   10.9349 C.ar    1  UNL1        0.1000
      3 C          10.9058   40.4738   10.5457 C.ar    1  UNL1        0.0165
      4 C          10.6269   40.8386    9.2221 C.ar    1  UNL1       -0.0168
      5 C          11.6783   40.9974    8.3166 C.ar    1  UNL1        0.0302
      6 N          13.2372   40.4372   10.0340 N.ar    1  UNL1       -0.2291
      7 C           9.2233   41.0609    8.7555 C.3     1  UNL1        0.0385
      8 C           8.8266   40.0362    7.7003 C.3     1  UNL1        0.0072
      9 C           7.3972   40.2975    7.2559 C.3     1  UNL1        0.0177
     10 C           7.2712   41.7315    6.7327 C.3     1  UNL1        0.0724
     11 C           9.0424   42.4846    8.2112 C.3     1  UNL1        0.0767
     12 N           7.6766   42.7343    7.7302 N.3     1  UNL1       -0.2674
     13 C           6.7461   42.7322    8.8583 C.3     1  UNL1        0.1183
     14 C           5.5172   43.5413    8.5604 C.ar    1  UNL1        0.0734
     15 C           5.4008   44.5534    7.6234 C.ar    1  UNL1        0.0382
     16 C           4.0804   44.9700    7.7468 C.ar    1  UNL1        0.1214
     17 C           4.0369   42.4283   10.2368 C.3     1  UNL1        0.1534
     18 N           3.4637   44.2427    8.7012 N.ar    1  UNL1       -0.1679
     19 N           4.3404   43.3842    9.1852 N.ar    1  UNL1       -0.2515
     20 N          14.0614   40.9579    7.8008 N.pl3   1  UNL1       -0.2836
     21 H          14.5118   40.1389    7.4914 H       1  UNL1        0.1550
     22 C          16.6923   41.9085    8.5539 C.3     1  UNL1        0.0340
     23 C          15.8137   42.6722    7.6233 C.ar    1  UNL1        0.0099
     24 C          14.5397   42.2009    7.2653 C.ar    1  UNL1        0.1291
     25 C          14.1998   44.1147    5.8886 C.ar    1  UNL1        0.1003
     26 C          15.4597   44.6113    6.2234 C.ar    1  UNL1        0.0204
     27 C          16.2678   43.8825    7.0960 C.ar    1  UNL1        0.0001
     28 N          13.7717   42.9342    6.4105 N.ar    1  UNL1       -0.2294
@<TRIPOS>BOND
     1    22    23    1
     2    24    28   ar
     3    24    20    1
     4    25    26   ar
     5    27    23   ar
     6     2     6   ar
     7     3     4   ar
     8     5     1   ar
     9     7     4    1
    10     7     8    1
    11     8     9    1
    12     9    10    1
    13    10    12    1
    14    11    12    1
    15    11     7    1
    16    13    12    1
    17    13    14    1
    18    15    16   ar
    19    17    19    1
    20    20     1    1
    21    19    18   ar
    22    19    14   ar
    23    23    24   ar
    24    25    28   ar
    25    26    27   ar
    26     1     6   ar
    27     2     3   ar
    28     4     5   ar
    29    14    15   ar
    30    16    18   ar
    31    20    21    1
@<TRIPOS>MOLECULE
MolPort-046-971-810 MCULE-8808227310 PubChem-110111796
 28 31 0 0 0
SMALL
GASTEIGER

@<TRIPOS>ATOM
      1 C           8.2251   42.2355   10.7243 C.ar    1  UNL1        0.1329
      2 C           9.9572   41.0459   11.8396 C.ar    1  UNL1        0.1000
      3 C          10.8206   41.2467   10.7616 C.ar    1  UNL1        0.0165
      4 C          10.3675   41.9591    9.6436 C.ar    1  UNL1       -0.0168
      5 C           9.0621   42.4554    9.6273 C.ar    1  UNL1        0.0302
      6 N           8.6907   41.5392   11.7990 N.ar    1  UNL1       -0.2291
      7 C          11.2543   42.2020    8.4639 C.3     1  UNL1        0.0385
      8 C          10.6181   41.6800    7.1819 C.3     1  UNL1        0.0072
      9 C          11.5497   41.9473    6.0115 C.3     1  UNL1        0.0177
     10 C          12.9123   41.2996    6.2755 C.3     1  UNL1        0.0724
     11 C          12.6352   41.5647    8.6720 C.3     1  UNL1        0.0767
     12 N          13.5297   41.7719    7.5248 N.3     1  UNL1       -0.2674
     13 C          13.8751   43.1887    7.4156 C.3     1  UNL1        0.1183
     14 C          15.2528   43.3780    6.8505 C.ar    1  UNL1        0.0734
     15 C          15.5914   44.1089    5.7248 C.ar    1  UNL1        0.0382
     16 C          16.9710   43.9636    5.6371 C.ar    1  UNL1        0.1214
     17 C          16.4480   42.0080    8.5635 C.3     1  UNL1        0.1534
     18 N          17.4103   43.1920    6.6529 N.ar    1  UNL1       -0.1679
     19 N          16.3649   42.8444    7.3781 N.ar    1  UNL1       -0.2515
     20 N           6.8887   42.7507   10.6932 N.pl3   1  UNL1       -0.2836
     21 H           6.7886   43.7281   10.7553 H       1  UNL1        0.1550
     22 C           5.0236   43.3449    8.5575 C.3     1  UNL1        0.0340
     23 C           4.7692   42.2616    9.5489 C.ar    1  UNL1        0.0099
     24 C           5.6813   41.9826   10.5803 C.ar    1  UNL1        0.1291
     25 C           4.2696   40.2389   11.3803 C.ar    1  UNL1        0.1003
     26 C           3.3429   40.4897   10.3682 C.ar    1  UNL1        0.0204
     27 C           3.5983   41.5077    9.4496 C.ar    1  UNL1        0.0001
     28 N           5.4055   40.9819   11.4638 N.ar    1  UNL1       -0.2294
@<TRIPOS>BOND
     1    22    23    1
     2    24    28   ar
     3    24    20    1
     4    25    26   ar
     5    27    23   ar
     6     2     6   ar
     7     3     4   ar
     8     5     1   ar
     9     7     4    1
    10     7     8    1
    11     8     9    1
    12     9    10    1
    13    10    12    1
    14    11    12    1
    15    11     7    1
    16    13    12    1
    17    13    14    1
    18    15    16   ar
    19    17    19    1
    20    20     1    1
    21    19    18   ar
    22    19    14   ar
    23    23    24   ar
    24    25    28   ar
    25    26    27   ar
    26     1     6   ar
    27     2     3   ar
    28     4     5   ar
    29    14    15   ar
    30    16    18   ar
    31    20    21    1
@<TRIPOS>MOLECULE
MolPort-046-971-810 MCULE-8808227310 PubChem-110111796
 28 31 0 0 0
SMALL
GASTEIGER

@<TRIPOS>ATOM
      1 C          14.1087   42.3540    7.1446 C.ar    1  UNL1        0.1329
      2 C          16.3757   43.0068    7.4514 C.ar    1  UNL1        0.1000
      3 C          16.5654   41.9906    8.3890 C.ar    1  UNL1        0.0165
      4 C          15.4970   41.1416    8.7057 C.ar    1  UNL1       -0.0168
      5 C          14.2628   41.3263    8.0785 C.ar    1  UNL1        0.0302
      6 N          15.1641   43.1658    6.8549 N.ar    1  UNL1       -0.2291
      7 C          15.6499   40.0372    9.7028 C.3     1  UNL1        0.0385
      8 C          17.0720   39.9808   10.2461 C.3     1  UNL1        0.0072
      9 C          17.1825   38.8484   11.2534 C.3     1  UNL1        0.0177
     10 C          16.7717   37.5278   10.5953 C.3     1  UNL1        0.0724
     11 C          15.2584   38.6847    9.0914 C.3     1  UNL1        0.0767
     12 N          15.4098   37.5729   10.0402 N.3     1  UNL1       -0.2674
     13 C          14.4278   37.7026   11.1160 C.3     1  UNL1        0.1183
     14 C          13.0233   37.6625   10.5878 C.ar    1  UNL1        0.0734
     15 C          12.3746   36.5659   10.0466 C.ar    1  UNL1        0.0382
     16 C          11.1163   37.0547    9.7151 C.ar    1  UNL1        0.1214
     17 C          12.4845   40.0586   11.0444 C.3     1  UNL1        0.1534
     18 N          11.0371   38.3608   10.0438 N.ar    1  UNL1       -0.1679
     19 N          12.1935   38.7165   10.5691 N.ar    1  UNL1       -0.2515
     20 N          12.8370   42.5311    6.5094 N.pl3   1  UNL1       -0.2836
     21 H          12.6873   43.3873    6.0472 H       1  UNL1        0.1550
     22 C          10.9336   42.4797    8.6929 C.3     1  UNL1        0.0340
     23 C          10.8301   41.5488    7.5335 C.ar    1  UNL1        0.0099
     24 C          11.7592   41.5834    6.4804 C.ar    1  UNL1        0.1291
     25 C          10.6127   39.8041    5.3880 C.ar    1  UNL1        0.1003
     26 C           9.6730   39.7432    6.4172 C.ar    1  UNL1        0.0204
     27 C           9.7863   40.6225    7.4940 C.ar    1  UNL1        0.0001
     28 N          11.6238   40.7120    5.4409 N.ar    1  UNL1       -0.2294
@<TRIPOS>BOND
     1    22    23    1
     2    24    28   ar
     3    24    20    1
     4    25    26   ar
     5    27    23   ar
     6     2     6   ar
     7     3     4   ar
     8     5     1   ar
     9     7     4    1
    10     7     8    1
    11     8     9    1
    12     9    10    1
    13    10    12    1
    14    11    12    1
    15    11     7    1
    16    13    12    1
    17    13    14    1
    18    15    16   ar
    19    17    19    1
    20    20     1    1
    21    19    18   ar
    22    19    14   ar
    23    23    24   ar
    24    25    28   ar
    25    26    27   ar
    26     1     6   ar
    27     2     3   ar
    28     4     5   ar
    29    14    15   ar
    30    16    18   ar
    31    20    21    1
@<TRIPOS>MOLECULE
MolPort-046-971-810 MCULE-8808227310 PubChem-110111796
 28 31 0 0 0
SMALL
GASTEIGER

@<TRIPOS>ATOM
      1 C          12.6273   42.2504    6.4463 C.ar    1  UNL1        0.1329
      2 C          14.8334   43.0735    6.7858 C.ar    1  UNL1        0.1000
      3 C          15.0909   42.0656    7.7162 C.ar    1  UNL1        0.0165
      4 C          14.0880   41.1334    8.0125 C.ar    1  UNL1       -0.0168
      5 C          12.8502   41.2283    7.3725 C.ar    1  UNL1        0.0302
      6 N          13.6197   43.1443    6.1765 N.ar    1  UNL1       -0.2291
      7 C          14.3149   40.0342    9.0011 C.3     1  UNL1        0.0385
      8 C          13.4085   40.1918   10.2153 C.3     1  UNL1        0.0072
      9 C          13.6706   39.0568   11.1912 C.3     1  UNL1        0.0177
     10 C          15.1510   39.0428   11.5839 C.3     1  UNL1        0.0724
     11 C          15.7858   39.9799    9.4369 C.3     1  UNL1        0.0767
     12 N          16.0429   38.9186   10.4202 N.3     1  UNL1       -0.2674
     13 C          15.8760   37.6092    9.7908 C.3     1  UNL1        0.1183
     14 C          17.1947   36.9183    9.5984 C.ar    1  UNL1        0.0734
     15 C          17.4180   35.7418    8.9041 C.ar    1  UNL1        0.0382
     16 C          18.7874   35.5378    9.0282 C.ar    1  UNL1        0.1214
     17 C          18.5637   38.5667   10.8823 C.3     1  UNL1        0.1534
     18 N          19.3300   36.5376    9.7535 N.ar    1  UNL1       -0.1679
     19 N          18.3596   37.3643   10.0922 N.ar    1  UNL1       -0.2515
     20 N          11.3528   42.3349    5.7978 N.pl3   1  UNL1       -0.2836
     21 H          11.0248   43.2373    5.5800 H       1  UNL1        0.1550
     22 C           8.8632   41.9281    7.2224 C.3     1  UNL1        0.0340
     23 C           9.2970   41.0263    6.1179 C.ar    1  UNL1        0.0099
     24 C          10.5065   41.2338    5.4343 C.ar    1  UNL1        0.1291
     25 C          10.0791   39.3317    4.0658 C.ar    1  UNL1        0.1003
     26 C           8.8717   39.0972    4.7240 C.ar    1  UNL1        0.0204
     27 C           8.4825   39.9519    5.7553 C.ar    1  UNL1        0.0001
     28 N          10.8615   40.3825    4.4306 N.ar    1  UNL1       -0.2294
@<TRIPOS>BOND
     1    22    23    1
     2    24    28   ar
     3    24    20    1
     4    25    26   ar
     5    27    23   ar
     6     2     6   ar
     7     3     4   ar
     8     5     1   ar
     9     7     4    1
    10     7     8    1
    11     8     9    1
    12     9    10    1
    13    10    12    1
    14    11    12    1
    15    11     7    1
    16    13    12    1
    17    13    14    1
    18    15    16   ar
    19    17    19    1
    20    20     1    1
    21    19    18   ar
    22    19    14   ar
    23    23    24   ar
    24    25    28   ar
    25    26    27   ar
    26     1     6   ar
    27     2     3   ar
    28     4     5   ar
    29    14    15   ar
    30    16    18   ar
    31    20    21    1
@<TRIPOS>MOLECULE
MolPort-046-971-810 MCULE-8808227310 PubChem-110111796
 28 31 0 0 0
SMALL
GASTEIGER

@<TRIPOS>ATOM
      1 C           8.1851   40.1796    6.2279 C.ar    1  UNL1        0.1329
      2 C           9.3385   39.3089    4.3382 C.ar    1  UNL1        0.1000
      3 C          10.5628   39.4441    4.9945 C.ar    1  UNL1        0.0165
      4 C          10.5895   39.9599    6.2968 C.ar    1  UNL1       -0.0168
      5 C           9.3926   40.3287    6.9148 C.ar    1  UNL1        0.0302
      6 N           8.1872   39.6756    4.9619 N.ar    1  UNL1       -0.2291
      7 C          11.8756   40.1231    7.0428 C.3     1  UNL1        0.0385
      8 C          11.9759   39.1249    8.1892 C.3     1  UNL1        0.0072
      9 C          13.2944   39.3246    8.9179 C.3     1  UNL1        0.0177
     10 C          13.3997   40.7708    9.4113 C.3     1  UNL1        0.0724
     11 C          12.0293   41.5569    7.5688 C.3     1  UNL1        0.0767
     12 N          13.2773   41.7503    8.3201 N.3     1  UNL1       -0.2674
     13 C          14.4213   41.6466    7.4151 C.3     1  UNL1        0.1183
     14 C          14.7982   42.9845    6.8481 C.ar    1  UNL1        0.0734
     15 C          14.0509   43.7505    5.9701 C.ar    1  UNL1        0.0382
     16 C          14.8380   44.8767    5.7592 C.ar    1  UNL1        0.1214
     17 C          17.0056   43.1658    8.0034 C.3     1  UNL1        0.1534
     18 N          15.9781   44.7720    6.4728 N.ar    1  UNL1       -0.1679
     19 N          15.9431   43.6264    7.1255 N.ar    1  UNL1       -0.2515
     20 N           6.9655   40.5622    6.8749 N.pl3   1  UNL1       -0.2836
     21 H           6.3245   39.8422    7.0746 H       1  UNL1        0.1550
     22 C           5.4265   40.9513    9.2982 C.3     1  UNL1        0.0340
     23 C           5.8394   42.0929    8.4337 C.ar    1  UNL1        0.0099
     24 C           6.5859   41.8917    7.2608 C.ar    1  UNL1        0.1291
     25 C           6.5944   44.2368    6.8435 C.ar    1  UNL1        0.1003
     26 C           5.8535   44.4717    8.0019 C.ar    1  UNL1        0.0204
     27 C           5.4761   43.3906    8.7984 C.ar    1  UNL1        0.0001
     28 N           6.9407   42.9669    6.5017 N.ar    1  UNL1       -0.2294
@<TRIPOS>BOND
     1    22    23    1
     2    24    28   ar
     3    24    20    1
     4    25    26   ar
     5    27    23   ar
     6     2     6   ar
     7     3     4   ar
     8     5     1   ar
     9     7     4    1
    10     7     8    1
    11     8     9    1
    12     9    10    1
    13    10    12    1
    14    11    12    1
    15    11     7    1
    16    13    12    1
    17    13    14    1
    18    15    16   ar
    19    17    19    1
    20    20     1    1
    21    19    18   ar
    22    19    14   ar
    23    23    24   ar
    24    25    28   ar
    25    26    27   ar
    26     1     6   ar
    27     2     3   ar
    28     4     5   ar
    29    14    15   ar
    30    16    18   ar
    31    20    21    1
@<TRIPOS>MOLECULE
MolPort-046-971-810 MCULE-8808227310 PubChem-110111796
 28 31 0 0 0
SMALL
GASTEIGER

@<TRIPOS>ATOM
      1 C          13.4982   40.7746    8.7690 C.ar    1  UNL1        0.1329
      2 C          13.5996   39.7062   10.8922 C.ar    1  UNL1        0.1000
      3 C          12.3374   40.1993   11.2262 C.ar    1  UNL1        0.0165
      4 C          11.6472   40.9977   10.3048 C.ar    1  UNL1       -0.0168
      5 C          12.2329   41.2853    9.0699 C.ar    1  UNL1        0.0302
      6 N          14.1480   40.0009    9.6833 N.ar    1  UNL1       -0.2291
      7 C          10.2918   41.5490   10.6148 C.3     1  UNL1        0.0385
      8 C           9.9190   41.3035   12.0713 C.3     1  UNL1        0.0072
      9 C           8.5389   41.8787   12.3425 C.3     1  UNL1        0.0177
     10 C           7.5207   41.2574   11.3817 C.3     1  UNL1        0.0724
     11 C           9.2277   40.9517    9.6837 C.3     1  UNL1        0.0767
     12 N           7.8794   41.4613    9.9693 N.3     1  UNL1       -0.2674
     13 C           7.8037   42.8810    9.6268 C.3     1  UNL1        0.1183
     14 C           7.2826   43.0847    8.2338 C.ar    1  UNL1        0.0734
     15 C           7.9808   42.8942    7.0539 C.ar    1  UNL1        0.0382
     16 C           7.0580   43.2177    6.0660 C.ar    1  UNL1        0.1214
     17 C           4.9845   43.8044    8.8978 C.3     1  UNL1        0.1534
     18 N           5.8899   43.5766    6.6380 N.ar    1  UNL1       -0.1679
     19 N           6.0375   43.4928    7.9460 N.ar    1  UNL1       -0.2515
     20 N          14.0860   41.0781    7.4984 N.pl3   1  UNL1       -0.2836
     21 H          14.1513   40.3386    6.8518 H       1  UNL1        0.1550
     22 C          16.7014   41.9411    8.3971 C.3     1  UNL1        0.0340
     23 C          15.8561   42.7833    7.5041 C.ar    1  UNL1        0.0099
     24 C          14.5893   42.3540    7.0748 C.ar    1  UNL1        0.1291
     25 C          14.3042   44.3720    5.8420 C.ar    1  UNL1        0.1003
     26 C          15.5578   44.8285    6.2497 C.ar    1  UNL1        0.0204
     27 C          16.3346   44.0263    7.0855 C.ar    1  UNL1        0.0001
     28 N          13.8521   43.1590    6.2583 N.ar    1  UNL1       -0.2294
@<TRIPOS>BOND
     1    22    23    1
     2    24    28   ar
     3    24    20    1
     4    25    26   ar
     5    27    23   ar
     6     2     6   ar
     7     3     4   ar
     8     5     1   ar
     9     7     4    1
    10     7     8    1
    11     8     9    1
    12     9    10    1
    13    10    12    1
    14    11    12    1
    15    11     7    1
    16    13    12    1
    17    13    14    1
    18    15    16   ar
    19    17    19    1
    20    20     1    1
    21    19    18   ar
    22    19    14   ar
    23    23    24   ar
    24    25    28   ar
    25    26    27   ar
    26     1     6   ar
    27     2     3   ar
    28     4     5   ar
    29    14    15   ar
    30    16    18   ar
    31    20    21    1
@<TRIPOS>MOLECULE
MolPort-046-971-810 MCULE-8808227310 PubChem-110111796
 28 31 0 0 0
SMALL
GASTEIGER

@<TRIPOS>ATOM
      1 C          14.1823   40.5648    9.3278 C.ar    1  UNL1        0.1329
      2 C          13.1841   39.6865   11.3005 C.ar    1  UNL1        0.1000
      3 C          11.9699   40.2989   10.9863 C.ar    1  UNL1        0.0165
      4 C          11.8687   41.0599    9.8144 C.ar    1  UNL1       -0.0168
      5 C          12.9825   41.1919    8.9821 C.ar    1  UNL1        0.0302
      6 N          14.2538   39.8306   10.4734 N.ar    1  UNL1       -0.2291
      7 C          10.5897   41.7348    9.4330 C.3     1  UNL1        0.0385
      8 C          10.1447   42.7167   10.5094 C.3     1  UNL1        0.0072
      9 C           8.8454   43.3788   10.0820 C.3     1  UNL1        0.0177
     10 C           7.7828   42.3089    9.8129 C.3     1  UNL1        0.0724
     11 C           9.4839   40.7059    9.1593 C.3     1  UNL1        0.0767
     12 N           8.2070   41.3351    8.7947 N.3     1  UNL1       -0.2674
     13 C           8.3300   41.9858    7.4909 C.3     1  UNL1        0.1183
     14 C           8.6385   40.9940    6.4070 C.ar    1  UNL1        0.0734
     15 C           9.8291   40.8734    5.7113 C.ar    1  UNL1        0.0382
     16 C           9.5952   39.8219    4.8327 C.ar    1  UNL1        0.1214
     17 C           6.4122   39.8613    6.4230 C.3     1  UNL1        0.1534
     18 N           8.3405   39.3575    5.0066 N.ar    1  UNL1       -0.1679
     19 N           7.7729   40.0724    5.9586 N.ar    1  UNL1       -0.2515
     20 N          15.3160   40.7092    8.4641 N.pl3   1  UNL1       -0.2836
     21 H          15.6567   39.8894    8.0384 H       1  UNL1        0.1550
     22 C          14.2250   42.4873    6.4539 C.3     1  UNL1        0.0340
     23 C          15.4853   42.8012    7.1850 C.ar    1  UNL1        0.0099
     24 C          16.0045   41.9310    8.1580 C.ar    1  UNL1        0.1291
     25 C          17.8332   43.4112    8.5304 C.ar    1  UNL1        0.1003
     26 C          17.3449   44.2974    7.5700 C.ar    1  UNL1        0.0204
     27 C          16.1640   43.9865    6.8960 C.ar    1  UNL1        0.0001
     28 N          17.1606   42.2606    8.8007 N.ar    1  UNL1       -0.2294
@<TRIPOS>BOND
     1    22    23    1
     2    24    28   ar
     3    24    20    1
     4    25    26   ar
     5    27    23   ar
     6     2     6   ar
     7     3     4   ar
     8     5     1   ar
     9     7     4    1
    10     7     8    1
    11     8     9    1
    12     9    10    1
    13    10    12    1
    14    11    12    1
    15    11     7    1
    16    13    12    1
    17    13    14    1
    18    15    16   ar
    19    17    19    1
    20    20     1    1
    21    19    18   ar
    22    19    14   ar
    23    23    24   ar
    24    25    28   ar
    25    26    27   ar
    26     1     6   ar
    27     2     3   ar
    28     4     5   ar
    29    14    15   ar
    30    16    18   ar
    31    20    21    1
@<TRIPOS>MOLECULE
MolPort-046-971-810 MCULE-8808227310 PubChem-110111796
 28 31 0 0 0
SMALL
GASTEIGER

@<TRIPOS>ATOM
      1 C          13.2982   41.3228    7.8957 C.ar    1  UNL1        0.1329
      2 C          12.8059   40.4212   10.0415 C.ar    1  UNL1        0.1000
      3 C          11.5002   40.1290    9.6445 C.ar    1  UNL1        0.0165
      4 C          11.0927   40.4445    8.3418 C.ar    1  UNL1       -0.0168
      5 C          11.9986   41.0445    7.4643 C.ar    1  UNL1        0.0302
      6 N          13.6688   41.0059    9.1680 N.ar    1  UNL1       -0.2291
      7 C           9.7048   40.1504    7.8680 C.3     1  UNL1        0.0385
      8 C           9.6280   38.7780    7.2112 C.3     1  UNL1        0.0072
      9 C           8.2044   38.5203    6.7465 C.3     1  UNL1        0.0177
     10 C           7.7613   39.6336    5.7925 C.3     1  UNL1        0.0724
     11 C           9.2122   41.2340    6.8988 C.3     1  UNL1        0.0767
     12 N           7.8550   40.9698    6.4014 N.3     1  UNL1       -0.2674
     13 C           6.8931   41.0970    7.4955 C.3     1  UNL1        0.1183
     14 C           6.5992   42.5359    7.8062 C.ar    1  UNL1        0.0734
     15 C           5.9796   43.4517    6.9735 C.ar    1  UNL1        0.0382
     16 C           5.9538   44.6203    7.7258 C.ar    1  UNL1        0.1214
     17 C           7.5726   42.5292   10.1068 C.3     1  UNL1        0.1534
     18 N           6.5260   44.3978    8.9272 N.ar    1  UNL1       -0.1679
     19 N           6.9118   43.1371    8.9642 N.ar    1  UNL1       -0.2515
     20 N          14.2162   41.9383    6.9843 N.pl3   1  UNL1       -0.2836
     21 H          13.9657   41.9346    6.0322 H       1  UNL1        0.1550
     22 C          14.9803   44.3990    5.6600 C.3     1  UNL1        0.0340
     23 C          15.8465   43.7533    6.6866 C.ar    1  UNL1        0.0099
     24 C          15.4652   42.5600    7.3222 C.ar    1  UNL1        0.1291
     25 C          17.4790   42.5737    8.5941 C.ar    1  UNL1        0.1003
     26 C          17.8878   43.7588    7.9822 C.ar    1  UNL1        0.0204
     27 C          17.0637   44.3484    7.0236 C.ar    1  UNL1        0.0001
     28 N          16.2906   42.0063    8.2551 N.ar    1  UNL1       -0.2294
@<TRIPOS>BOND
     1    22    23    1
     2    24    28   ar
     3    24    20    1
     4    25    26   ar
     5    27    23   ar
     6     2     6   ar
     7     3     4   ar
     8     5     1   ar
     9     7     4    1
    10     7     8    1
    11     8     9    1
    12     9    10    1
    13    10    12    1
    14    11    12    1
    15    11     7    1
    16    13    12    1
    17    13    14    1
    18    15    16   ar
    19    17    19    1
    20    20     1    1
    21    19    18   ar
    22    19    14   ar
    23    23    24   ar
    24    25    28   ar
    25    26    27   ar
    26     1     6   ar
    27     2     3   ar
    28     4     5   ar
    29    14    15   ar
    30    16    18   ar
    31    20    21    1
