@<TRIPOS>MOLECULE
MolPort-006-727-805 38540493 MCULE-8992860453 PubChem-11237328 ZINC000038540493
 37 40 0 0 0
SMALL
GASTEIGER

@<TRIPOS>ATOM
      1 C           7.1834   43.5793    6.9463 C.2     1  UNL1        0.4370
      2 C           9.9990   42.0440    8.4324 C.ar    1  UNL1        0.1534
      3 C           9.2817   42.3284    9.5823 C.ar    1  UNL1        0.0467
      4 C           8.1819   42.9904    9.1488 C.ar    1  UNL1        0.0872
      5 C           7.0031   42.7045   10.0011 C.3     1  UNL1        0.1429
      6 C           8.9738   41.4864   10.7623 C.3     1  UNL1        0.1279
      7 C           6.7895   41.2128   12.0537 C.2     1  UNL1        0.4052
      8 O           6.1338   44.0780    7.4388 O.2     1  UNL1       -0.2211
      9 O           7.3367   40.4215   12.8698 O.2     1  UNL1       -0.2262
     10 N           8.2224   43.0975    7.8057 N.ar    1  UNL1       -0.1651
     11 N           9.3348   42.5278    7.3603 N.ar    1  UNL1       -0.1454
     12 N           7.5581   41.7816   10.9914 N.am    1  UNL1       -0.2361
     13 C          12.0873   40.8976    9.3334 C.2     1  UNL1        0.2506
     14 O          12.1329   41.6219   10.3650 O.2     1  UNL1       -0.2698
     15 N          11.1126   41.1516    8.3134 N.am    1  UNL1       -0.2646
     16 H          11.2176   40.6726    7.4598 H       1  UNL1        0.1566
     17 C          13.0611   39.8055    9.1609 C.ar    1  UNL1        0.0538
     18 C          14.3951   39.9745    9.5553 C.ar    1  UNL1        0.0058
     19 C          15.3166   38.9365    9.3948 C.ar    1  UNL1        0.0147
     20 C          14.9221   37.7108    8.8344 C.ar    1  UNL1        0.0479
     21 C          13.5840   37.5455    8.4425 C.ar    1  UNL1        0.0147
     22 C          12.6623   38.5832    8.6039 C.ar    1  UNL1        0.0058
     23 C          15.5324   35.4517    7.8888 C.3     1  UNL1        0.1081
     24 C          16.1147   34.2104    8.5609 C.3     1  UNL1        0.0938
     25 C          18.0250   33.1794    9.4259 C.3     1  UNL1        0.0897
     26 C          17.7431   35.4786    9.7287 C.3     1  UNL1        0.0938
     27 C          17.2552   36.7907    9.1202 C.3     1  UNL1        0.1081
     28 N          15.8694   36.6376    8.6771 N.pl3   1  UNL1       -0.3046
     29 N          17.5496   34.3868    8.7768 N.3     1  UNL1       -0.2686
     30 O           7.3427   43.4951    5.5594 O.3     1  UNL1       -0.4315
     31 C           6.7693   41.1555    5.7378 C.3     1  UNL1        0.0513
     32 C           6.9747   42.3412    4.8126 C.3     1  UNL1        0.2105
     33 O           5.4310   41.5412   12.1773 O.3     1  UNL1       -0.4418
     34 C           4.3926   41.0316   11.3375 C.3     1  UNL1        0.1378
     35 C           3.8460   39.7266   11.8907 C.3     1  UNL1        0.0437
     36 C           4.9013   40.8180    9.9222 C.3     1  UNL1        0.0437
     37 C           3.2660   42.0422   11.2935 C.3     1  UNL1        0.0437
@<TRIPOS>BOND
     1    31    32    1
     2    32    30    1
     3     1    30    1
     4     1    10   am
     5     2    15    1
     6     2     3   ar
     7    13    17    1
     8    18    19   ar
     9    20    21   ar
    10    20    28    1
    11    22    17   ar
    12    23    28    1
    13    23    24    1
    14    24    29    1
    15    25    29    1
    16    26    29    1
    17    26    27    1
    18    27    28    1
    19     4    10   ar
    20     5     4    1
    21     5    12    1
    22     6    12    1
    23     6     3    1
    24     7    33    1
    25    34    33    1
    26    34    35    1
    27    34    36    1
    28    34    37    1
    29    10    11   ar
    30    15    13   am
    31    12     7   am
    32     1     8    2
    33     2    11   ar
    34    13    14    2
    35    17    18   ar
    36    19    20   ar
    37    21    22   ar
    38     3     4   ar
    39     7     9    2
    40    15    16    1
@<TRIPOS>MOLECULE
MolPort-006-727-805 38540493 MCULE-8992860453 PubChem-11237328 ZINC000038540493
 37 40 0 0 0
SMALL
GASTEIGER

@<TRIPOS>ATOM
      1 C          -1.6394   42.0241   15.7378 C.2     1  UNL1        0.4370
      2 C           0.9819   43.1235   13.6369 C.ar    1  UNL1        0.1534
      3 C           0.5761   44.3524   14.1296 C.ar    1  UNL1        0.0467
      4 C          -0.4895   44.0738   14.9186 C.ar    1  UNL1        0.0872
      5 C          -0.5727   45.0042   16.0697 C.3     1  UNL1        0.1429
      6 C           1.3645   45.4855   14.6687 C.3     1  UNL1        0.1279
      7 C           0.9432   46.9440   16.7204 C.2     1  UNL1        0.4052
      8 O          -2.4365   42.6473   16.4920 O.2     1  UNL1       -0.2211
      9 O           1.9636   47.6424   16.4701 O.2     1  UNL1       -0.2262
     10 N          -0.7169   42.7452   14.9136 N.ar    1  UNL1       -0.1651
     11 N           0.1742   42.1574   14.1256 N.ar    1  UNL1       -0.1454
     12 N           0.5907   45.8645   15.8526 N.am    1  UNL1       -0.2361
     13 C           2.3108   42.3064   11.6236 C.2     1  UNL1        0.2506
     14 O           1.2884   41.8654   11.0312 O.2     1  UNL1       -0.2698
     15 N           2.2059   42.8343   12.9523 N.am    1  UNL1       -0.2646
     16 H           3.0455   43.0129   13.4344 H       1  UNL1        0.1566
     17 C           3.6247   42.2493   10.9594 C.ar    1  UNL1        0.0538
     18 C           4.6462   41.4397   11.4741 C.ar    1  UNL1        0.0058
     19 C           5.8904   41.3835   10.8408 C.ar    1  UNL1        0.0147
     20 C           6.1376   42.1378    9.6824 C.ar    1  UNL1        0.0479
     21 C           5.1104   42.9460    9.1694 C.ar    1  UNL1        0.0147
     22 C           3.8659   43.0015    9.8022 C.ar    1  UNL1        0.0058
     23 C           7.7549   40.9456    8.1550 C.3     1  UNL1        0.1081
     24 C           9.2245   40.5774    8.3459 C.3     1  UNL1        0.0938
     25 C          11.4364   41.3308    8.3472 C.3     1  UNL1        0.0897
     26 C           9.7628   42.7294    9.1842 C.3     1  UNL1        0.0938
     27 C           8.3249   43.2201    9.0376 C.3     1  UNL1        0.1081
     28 N           7.4168   42.0732    9.0243 N.pl3   1  UNL1       -0.3046
     29 N          10.0649   41.7552    8.1377 N.3     1  UNL1       -0.2686
     30 O          -1.6509   40.6261   15.6978 O.3     1  UNL1       -0.4315
     31 C          -2.4487   40.7467   13.4212 C.3     1  UNL1        0.0513
     32 C          -2.3021   39.8924   14.6673 C.3     1  UNL1        0.2105
     33 O           0.1488   47.2156   17.8445 O.3     1  UNL1       -0.4418
     34 C           0.4324   46.7590   19.1691 C.3     1  UNL1        0.1378
     35 C           1.8174   46.1387   19.2386 C.3     1  UNL1        0.0437
     36 C          -0.6074   45.7496   19.6244 C.3     1  UNL1        0.0437
     37 C           0.3914   47.9452   20.1091 C.3     1  UNL1        0.0437
@<TRIPOS>BOND
     1    31    32    1
     2    32    30    1
     3     1    30    1
     4     1    10   am
     5     2    15    1
     6     2     3   ar
     7    13    17    1
     8    18    19   ar
     9    20    21   ar
    10    20    28    1
    11    22    17   ar
    12    23    28    1
    13    23    24    1
    14    24    29    1
    15    25    29    1
    16    26    29    1
    17    26    27    1
    18    27    28    1
    19     4    10   ar
    20     5     4    1
    21     5    12    1
    22     6    12    1
    23     6     3    1
    24     7    33    1
    25    34    33    1
    26    34    35    1
    27    34    36    1
    28    34    37    1
    29    10    11   ar
    30    15    13   am
    31    12     7   am
    32     1     8    2
    33     2    11   ar
    34    13    14    2
    35    17    18   ar
    36    19    20   ar
    37    21    22   ar
    38     3     4   ar
    39     7     9    2
    40    15    16    1
@<TRIPOS>MOLECULE
MolPort-006-727-805 38540493 MCULE-8992860453 PubChem-11237328 ZINC000038540493
 37 40 0 0 0
SMALL
GASTEIGER

@<TRIPOS>ATOM
      1 C           5.4309   41.4163   11.0937 C.2     1  UNL1        0.4370
      2 C           8.3020   40.4100    9.2944 C.ar    1  UNL1        0.1534
      3 C           7.5238   40.8347    8.2306 C.ar    1  UNL1        0.0467
      4 C           6.3432   41.1962    8.7885 C.ar    1  UNL1        0.0872
      5 C           5.7176   42.3233    8.0565 C.3     1  UNL1        0.1429
      6 C           7.8583   41.6955    7.0716 C.3     1  UNL1        0.1279
      7 C           6.5300   43.5969    6.0067 C.2     1  UNL1        0.4052
      8 O           4.3291   41.9070   10.7222 O.2     1  UNL1       -0.2211
      9 O           7.4151   43.7596    5.1225 O.2     1  UNL1       -0.2262
     10 N           6.4008   41.0092   10.1222 N.ar    1  UNL1       -0.1651
     11 N           7.5932   40.5210   10.4388 N.ar    1  UNL1       -0.1454
     12 N           6.6923   42.5779    6.9956 N.am    1  UNL1       -0.2361
     13 C          10.7132   40.9858    9.8787 C.2     1  UNL1        0.2506
     14 O          10.4167   42.1369   10.3006 O.2     1  UNL1       -0.2698
     15 N           9.7109   40.1543    9.2797 N.am    1  UNL1       -0.2646
     16 H          10.0167   39.3393    8.8198 H       1  UNL1        0.1566
     17 C          12.1031   40.5061    9.9728 C.ar    1  UNL1        0.0538
     18 C          12.5018   39.6891   11.0393 C.ar    1  UNL1        0.0058
     19 C          13.8193   39.2316   11.1250 C.ar    1  UNL1        0.0147
     20 C          14.7637   39.5849   10.1476 C.ar    1  UNL1        0.0479
     21 C          14.3590   40.4022    9.0800 C.ar    1  UNL1        0.0147
     22 C          13.0413   40.8588    8.9937 C.ar    1  UNL1        0.0058
     23 C          17.2170   39.8581    9.6215 C.3     1  UNL1        0.1081
     24 C          18.2228   38.8859    9.0094 C.3     1  UNL1        0.0938
     25 C          19.5960   37.0279    9.3593 C.3     1  UNL1        0.0897
     26 C          17.5070   37.1051   10.4022 C.3     1  UNL1        0.0938
     27 C          16.4633   37.9772   11.0951 C.3     1  UNL1        0.1081
     28 N          16.1193   39.1062   10.2308 N.pl3   1  UNL1       -0.3046
     29 N          18.6576   37.9188   10.0157 N.3     1  UNL1       -0.2686
     30 O           5.7137   41.2633   12.4548 O.3     1  UNL1       -0.4315
     31 C           7.8840   42.3131   12.6035 C.3     1  UNL1        0.0513
     32 C           7.0374   41.1020   12.9510 C.3     1  UNL1        0.2105
     33 O           5.3852   44.4078    6.0305 O.3     1  UNL1       -0.4418
     34 C           4.9132   45.1131    7.1807 C.3     1  UNL1        0.1378
     35 C           5.9425   45.0703    8.2971 C.3     1  UNL1        0.0437
     36 C           3.5992   44.5279    7.6690 C.3     1  UNL1        0.0437
     37 C           4.6803   46.5598    6.7995 C.3     1  UNL1        0.0437
@<TRIPOS>BOND
     1    31    32    1
     2    32    30    1
     3     1    30    1
     4     1    10   am
     5     2    15    1
     6     2     3   ar
     7    13    17    1
     8    18    19   ar
     9    20    21   ar
    10    20    28    1
    11    22    17   ar
    12    23    28    1
    13    23    24    1
    14    24    29    1
    15    25    29    1
    16    26    29    1
    17    26    27    1
    18    27    28    1
    19     4    10   ar
    20     5     4    1
    21     5    12    1
    22     6    12    1
    23     6     3    1
    24     7    33    1
    25    34    33    1
    26    34    35    1
    27    34    36    1
    28    34    37    1
    29    10    11   ar
    30    15    13   am
    31    12     7   am
    32     1     8    2
    33     2    11   ar
    34    13    14    2
    35    17    18   ar
    36    19    20   ar
    37    21    22   ar
    38     3     4   ar
    39     7     9    2
    40    15    16    1
@<TRIPOS>MOLECULE
MolPort-006-727-805 38540493 MCULE-8992860453 PubChem-11237328 ZINC000038540493
 37 40 0 0 0
SMALL
GASTEIGER

@<TRIPOS>ATOM
      1 C           4.2086   41.1855   11.3824 C.2     1  UNL1        0.4370
      2 C           7.2297   40.5969    9.6446 C.ar    1  UNL1        0.1534
      3 C           6.4517   41.0186    8.5794 C.ar    1  UNL1        0.0467
      4 C           5.2213   41.2218    9.1092 C.ar    1  UNL1        0.0872
      5 C           4.5123   42.3319    8.4289 C.3     1  UNL1        0.1429
      6 C           6.7396   41.9889    7.4970 C.3     1  UNL1        0.1279
      7 C           5.2660   43.8227    6.5071 C.2     1  UNL1        0.4052
      8 O           3.0772   41.5915   10.9979 O.2     1  UNL1       -0.2211
      9 O           6.1617   44.1343    5.6751 O.2     1  UNL1       -0.2262
     10 N           5.2490   40.9461   10.4283 N.ar    1  UNL1       -0.1651
     11 N           6.4723   40.5556   10.7623 N.ar    1  UNL1       -0.1454
     12 N           5.4942   42.7562    7.4308 N.am    1  UNL1       -0.2361
     13 C           9.4565   40.3489   10.8556 C.2     1  UNL1        0.2506
     14 O           8.9447   40.5292   11.9942 O.2     1  UNL1       -0.2698
     15 N           8.6567   40.4820    9.6734 N.am    1  UNL1       -0.2646
     16 H           9.1280   40.4956    8.8092 H       1  UNL1        0.1566
     17 C          10.8905   40.0316   10.7385 C.ar    1  UNL1        0.0538
     18 C          11.5309   40.0877    9.4933 C.ar    1  UNL1        0.0058
     19 C          12.8919   39.7904    9.3844 C.ar    1  UNL1        0.0147
     20 C          13.6374   39.4286   10.5180 C.ar    1  UNL1        0.0479
     21 C          12.9918   39.3755   11.7637 C.ar    1  UNL1        0.0147
     22 C          11.6311   39.6738   11.8728 C.ar    1  UNL1        0.0058
     23 C          15.5809   37.8670   10.9114 C.3     1  UNL1        0.1081
     24 C          16.9484   38.1122   11.5448 C.3     1  UNL1        0.0938
     25 C          19.0932   38.9969   11.2661 C.3     1  UNL1        0.0897
     26 C          17.2747   40.1142   10.3163 C.3     1  UNL1        0.0938
     27 C          15.9275   39.9805    9.6111 C.3     1  UNL1        0.1081
     28 N          15.0420   39.1309   10.4077 N.pl3   1  UNL1       -0.3046
     29 N          17.8257   38.7890   10.5913 N.3     1  UNL1       -0.2686
     30 O           4.4559   40.9637   12.7410 O.3     1  UNL1       -0.4315
     31 C           2.2556   41.3399   13.6637 C.3     1  UNL1        0.0513
     32 C           3.4737   40.4350   13.6242 C.3     1  UNL1        0.2105
     33 O           4.0453   44.5138    6.5364 O.3     1  UNL1       -0.4418
     34 C           3.6337   45.3913    7.5872 C.3     1  UNL1        0.1378
     35 C           2.1939   45.1150    7.9848 C.3     1  UNL1        0.0437
     36 C           3.7819   46.8429    7.1649 C.3     1  UNL1        0.0437
     37 C           4.5179   45.1510    8.7926 C.3     1  UNL1        0.0437
@<TRIPOS>BOND
     1    31    32    1
     2    32    30    1
     3     1    30    1
     4     1    10   am
     5     2    15    1
     6     2     3   ar
     7    13    17    1
     8    18    19   ar
     9    20    21   ar
    10    20    28    1
    11    22    17   ar
    12    23    28    1
    13    23    24    1
    14    24    29    1
    15    25    29    1
    16    26    29    1
    17    26    27    1
    18    27    28    1
    19     4    10   ar
    20     5     4    1
    21     5    12    1
    22     6    12    1
    23     6     3    1
    24     7    33    1
    25    34    33    1
    26    34    35    1
    27    34    36    1
    28    34    37    1
    29    10    11   ar
    30    15    13   am
    31    12     7   am
    32     1     8    2
    33     2    11   ar
    34    13    14    2
    35    17    18   ar
    36    19    20   ar
    37    21    22   ar
    38     3     4   ar
    39     7     9    2
    40    15    16    1
@<TRIPOS>MOLECULE
MolPort-006-727-805 38540493 MCULE-8992860453 PubChem-11237328 ZINC000038540493
 37 40 0 0 0
SMALL
GASTEIGER

@<TRIPOS>ATOM
      1 C          12.4841   31.5278    0.7666 C.2     1  UNL1        0.4370
      2 C          11.8762   33.7311    3.4627 C.ar    1  UNL1        0.1534
      3 C          12.8293   32.9235    4.0603 C.ar    1  UNL1        0.0467
      4 C          13.1091   31.9753    3.1337 C.ar    1  UNL1        0.0872
      5 C          14.5247   31.5418    3.2089 C.3     1  UNL1        0.1429
      6 C          14.0307   33.2722    4.8547 C.3     1  UNL1        0.1279
      7 C          16.3917   32.3073    4.7620 C.2     1  UNL1        0.4052
      8 O          13.2575   30.5384    0.6409 O.2     1  UNL1       -0.2211
      9 O          16.7650   33.0518    5.7097 O.2     1  UNL1       -0.2262
     10 N          12.3718   32.1971    2.0273 N.ar    1  UNL1       -0.1651
     11 N          11.6091   33.2649    2.2234 N.ar    1  UNL1       -0.1454
     12 N          15.0398   32.3665    4.3021 N.am    1  UNL1       -0.2361
     13 C          10.4975   35.8603    3.2335 C.2     1  UNL1        0.2506
     14 O          10.1626   35.6068    2.0443 O.2     1  UNL1       -0.2698
     15 N          11.4251   35.0106    3.9209 N.am    1  UNL1       -0.2646
     16 H          11.7818   35.3336    4.7797 H       1  UNL1        0.1566
     17 C           9.9577   37.0535    3.9085 C.ar    1  UNL1        0.0538
     18 C           9.4055   36.9541    5.1926 C.ar    1  UNL1        0.0058
     19 C           8.8975   38.0873    5.8332 C.ar    1  UNL1        0.0147
     20 C           8.9296   39.3406    5.2007 C.ar    1  UNL1        0.0479
     21 C           9.4856   39.4355    3.9149 C.ar    1  UNL1        0.0147
     22 C           9.9945   38.3025    3.2747 C.ar    1  UNL1        0.0058
     23 C           9.2890   41.6429    6.1705 C.3     1  UNL1        0.1081
     24 C           8.9114   42.2253    7.5306 C.3     1  UNL1        0.0938
     25 C           7.2051   43.0888    8.8734 C.3     1  UNL1        0.0897
     26 C           6.7231   41.3174    7.4287 C.3     1  UNL1        0.0938
     27 C           6.9757   40.6868    6.0618 C.3     1  UNL1        0.1081
     28 N           8.4144   40.5104    5.8642 N.pl3   1  UNL1       -0.3046
     29 N           7.4878   42.5564    7.5537 N.3     1  UNL1       -0.2686
     30 O          11.7290   31.9775   -0.3214 O.3     1  UNL1       -0.4315
     31 C          13.3958   31.0468   -1.8012 C.3     1  UNL1        0.0513
     32 C          12.2433   32.0227   -1.6472 C.3     1  UNL1        0.2105
     33 O          17.2916   31.4200    4.1525 O.3     1  UNL1       -0.4418
     34 C          18.3155   31.8058    3.2328 C.3     1  UNL1        0.1378
     35 C          19.0831   33.0076    3.7563 C.3     1  UNL1        0.0437
     36 C          17.7229   32.1264    1.8713 C.3     1  UNL1        0.0437
     37 C          19.2831   30.6520    3.0737 C.3     1  UNL1        0.0437
@<TRIPOS>BOND
     1    31    32    1
     2    32    30    1
     3     1    30    1
     4     1    10   am
     5     2    15    1
     6     2     3   ar
     7    13    17    1
     8    18    19   ar
     9    20    21   ar
    10    20    28    1
    11    22    17   ar
    12    23    28    1
    13    23    24    1
    14    24    29    1
    15    25    29    1
    16    26    29    1
    17    26    27    1
    18    27    28    1
    19     4    10   ar
    20     5     4    1
    21     5    12    1
    22     6    12    1
    23     6     3    1
    24     7    33    1
    25    34    33    1
    26    34    35    1
    27    34    36    1
    28    34    37    1
    29    10    11   ar
    30    15    13   am
    31    12     7   am
    32     1     8    2
    33     2    11   ar
    34    13    14    2
    35    17    18   ar
    36    19    20   ar
    37    21    22   ar
    38     3     4   ar
    39     7     9    2
    40    15    16    1
@<TRIPOS>MOLECULE
MolPort-006-727-805 38540493 MCULE-8992860453 PubChem-11237328 ZINC000038540493
 37 40 0 0 0
SMALL
GASTEIGER

@<TRIPOS>ATOM
      1 C           7.5434   40.1835   13.1238 C.2     1  UNL1        0.4370
      2 C           9.3931   40.9714   10.2167 C.ar    1  UNL1        0.1534
      3 C           8.1200   41.0042    9.6727 C.ar    1  UNL1        0.0467
      4 C           7.2997   40.6496   10.6911 C.ar    1  UNL1        0.0872
      5 C           5.9876   41.3331   10.5965 C.3     1  UNL1        0.1429
      6 C           7.4751   41.9974    8.7818 C.3     1  UNL1        0.1279
      7 C           5.1273   42.9945    8.8692 C.2     1  UNL1        0.4052
      8 O           6.3052   40.0503   13.3279 O.2     1  UNL1       -0.2211
      9 O           5.3403   43.6634    7.8210 O.2     1  UNL1       -0.2262
     10 N           8.0324   40.4202   11.7990 N.ar    1  UNL1       -0.1651
     11 N           9.3149   40.6073   11.5150 N.ar    1  UNL1       -0.1454
     12 N           6.1495   42.1404    9.3871 N.am    1  UNL1       -0.2361
     13 C          11.8996   40.9252    9.7670 C.2     1  UNL1        0.2506
     14 O          12.1102   40.0052   10.6037 O.2     1  UNL1       -0.2698
     15 N          10.5909   41.4942    9.6314 N.am    1  UNL1       -0.2646
     16 H          10.5087   42.3129    9.0908 H       1  UNL1        0.1566
     17 C          13.0109   41.4395    8.9476 C.ar    1  UNL1        0.0538
     18 C          12.7831   42.4314    7.9843 C.ar    1  UNL1        0.0058
     19 C          13.8388   42.9210    7.2108 C.ar    1  UNL1        0.0147
     20 C          15.1415   42.4261    7.3840 C.ar    1  UNL1        0.0479
     21 C          15.3650   41.4336    8.3518 C.ar    1  UNL1        0.0147
     22 C          14.3095   40.9447    9.1260 C.ar    1  UNL1        0.0058
     23 C          17.6157   42.5861    6.9121 C.3     1  UNL1        0.1081
     24 C          18.5142   43.7997    6.6860 C.3     1  UNL1        0.0938
     25 C          19.2044   45.4608    5.1943 C.3     1  UNL1        0.0897
     26 C          16.9631   44.8017    5.1981 C.3     1  UNL1        0.0938
     27 C          15.9787   43.6435    5.3375 C.3     1  UNL1        0.1081
     28 N          16.2313   42.9369    6.5933 N.pl3   1  UNL1       -0.3046
     29 N          18.3326   44.3086    5.3277 N.3     1  UNL1       -0.2686
     30 O           8.4484   40.0990   14.1868 O.3     1  UNL1       -0.4315
     31 C          10.3549   41.4299   13.5327 C.3     1  UNL1        0.0513
     32 C           9.2798   41.1860   14.5762 C.3     1  UNL1        0.2105
     33 O           3.8949   43.0803    9.5343 O.3     1  UNL1       -0.4418
     34 C           3.1620   41.9595   10.0344 C.3     1  UNL1        0.1378
     35 C           2.5953   42.2592   11.4116 C.3     1  UNL1        0.0437
     36 C           4.0445   40.7248   10.0982 C.3     1  UNL1        0.0437
     37 C           2.0098   41.6760    9.0938 C.3     1  UNL1        0.0437
@<TRIPOS>BOND
     1    31    32    1
     2    32    30    1
     3     1    30    1
     4     1    10   am
     5     2    15    1
     6     2     3   ar
     7    13    17    1
     8    18    19   ar
     9    20    21   ar
    10    20    28    1
    11    22    17   ar
    12    23    28    1
    13    23    24    1
    14    24    29    1
    15    25    29    1
    16    26    29    1
    17    26    27    1
    18    27    28    1
    19     4    10   ar
    20     5     4    1
    21     5    12    1
    22     6    12    1
    23     6     3    1
    24     7    33    1
    25    34    33    1
    26    34    35    1
    27    34    36    1
    28    34    37    1
    29    10    11   ar
    30    15    13   am
    31    12     7   am
    32     1     8    2
    33     2    11   ar
    34    13    14    2
    35    17    18   ar
    36    19    20   ar
    37    21    22   ar
    38     3     4   ar
    39     7     9    2
    40    15    16    1
@<TRIPOS>MOLECULE
MolPort-006-727-805 38540493 MCULE-8992860453 PubChem-11237328 ZINC000038540493
 37 40 0 0 0
SMALL
GASTEIGER

@<TRIPOS>ATOM
      1 C           8.0951   40.6360    6.2419 C.2     1  UNL1        0.4370
      2 C           6.5349   42.4565    8.8390 C.ar    1  UNL1        0.1534
      3 C           7.0837   43.5169    8.1375 C.ar    1  UNL1        0.0467
      4 C           7.7788   42.9404    7.1275 C.ar    1  UNL1        0.0872
      5 C           7.7689   43.7843    5.9087 C.3     1  UNL1        0.1429
      6 C           6.4896   44.8072    7.7153 C.3     1  UNL1        0.1279
      7 C           6.6741   46.0451    5.4910 C.2     1  UNL1        0.4052
      8 O           8.7797   41.0010    5.2465 O.2     1  UNL1       -0.2211
      9 O           5.9762   46.9997    5.9306 O.2     1  UNL1       -0.2262
     10 N           7.6544   41.6004    7.2042 N.ar    1  UNL1       -0.1651
     11 N           6.9013   41.2959    8.2532 N.ar    1  UNL1       -0.1454
     12 N           6.9704   44.9326    6.3380 N.am    1  UNL1       -0.2361
     13 C           4.1491   42.1452    9.6745 C.2     1  UNL1        0.2506
     14 O           3.6964   41.9002    8.5230 O.2     1  UNL1       -0.2698
     15 N           5.5200   42.5268    9.8468 N.am    1  UNL1       -0.2646
     16 H           5.7861   42.8656   10.7321 H       1  UNL1        0.1566
     17 C           3.2566   42.0700   10.8443 C.ar    1  UNL1        0.0538
     18 C           2.6017   40.8726   11.1623 C.ar    1  UNL1        0.0058
     19 C           1.7587   40.8018   12.2744 C.ar    1  UNL1        0.0147
     20 C           1.5524   41.9277   13.0878 C.ar    1  UNL1        0.0479
     21 C           2.2122   43.1247   12.7663 C.ar    1  UNL1        0.0147
     22 C           3.0559   43.1952   11.6548 C.ar    1  UNL1        0.0058
     23 C          -0.6113   41.1899   14.1575 C.3     1  UNL1        0.1081
     24 C          -1.6308   41.9647   14.9893 C.3     1  UNL1        0.0938
     25 C          -2.1490   42.8808   17.0756 C.3     1  UNL1        0.0897
     26 C           0.0589   42.9675   16.3171 C.3     1  UNL1        0.0938
     27 C           1.1733   42.2471   15.5628 C.3     1  UNL1        0.1081
     28 N           0.6908   41.8526   14.2393 N.pl3   1  UNL1       -0.3046
     29 N          -1.1378   42.1297   16.3555 N.3     1  UNL1       -0.2686
     30 O           7.7630   39.2886    6.4158 O.3     1  UNL1       -0.4315
     31 C           8.9779   37.5605    7.5870 C.3     1  UNL1        0.0513
     32 C           8.7085   38.2375    6.2554 C.3     1  UNL1        0.2105
     33 O           7.1635   46.0630    4.1762 O.3     1  UNL1       -0.4418
     34 C           7.9491   45.0239    3.5877 C.3     1  UNL1        0.1378
     35 C           7.4230   44.6687    2.2076 C.3     1  UNL1        0.0437
     36 C           7.9544   43.7878    4.4706 C.3     1  UNL1        0.0437
     37 C           9.3738   45.5160    3.4449 C.3     1  UNL1        0.0437
@<TRIPOS>BOND
     1    31    32    1
     2    32    30    1
     3     1    30    1
     4     1    10   am
     5     2    15    1
     6     2     3   ar
     7    13    17    1
     8    18    19   ar
     9    20    21   ar
    10    20    28    1
    11    22    17   ar
    12    23    28    1
    13    23    24    1
    14    24    29    1
    15    25    29    1
    16    26    29    1
    17    26    27    1
    18    27    28    1
    19     4    10   ar
    20     5     4    1
    21     5    12    1
    22     6    12    1
    23     6     3    1
    24     7    33    1
    25    34    33    1
    26    34    35    1
    27    34    36    1
    28    34    37    1
    29    10    11   ar
    30    15    13   am
    31    12     7   am
    32     1     8    2
    33     2    11   ar
    34    13    14    2
    35    17    18   ar
    36    19    20   ar
    37    21    22   ar
    38     3     4   ar
    39     7     9    2
    40    15    16    1
@<TRIPOS>MOLECULE
MolPort-006-727-805 38540493 MCULE-8992860453 PubChem-11237328 ZINC000038540493
 37 40 0 0 0
SMALL
GASTEIGER

@<TRIPOS>ATOM
      1 C           4.5523   40.7112   10.3372 C.2     1  UNL1        0.4370
      2 C           7.7667   40.7756    8.8687 C.ar    1  UNL1        0.1534
      3 C           7.1300   41.6685    8.0231 C.ar    1  UNL1        0.0467
      4 C           5.8432   41.6882    8.4468 C.ar    1  UNL1        0.0872
      5 C           5.2280   43.0236    8.2574 C.3     1  UNL1        0.1429
      6 C           7.5541   42.9984    7.5256 C.3     1  UNL1        0.1279
      7 C           6.2211   45.1630    7.2979 C.2     1  UNL1        0.4052
      8 O           3.4792   41.3101   10.0499 O.2     1  UNL1       -0.2211
      9 O           7.2151   45.7572    6.7974 O.2     1  UNL1       -0.2262
     10 N           5.7040   40.8574    9.4992 N.ar    1  UNL1       -0.1651
     11 N           6.8746   40.2893    9.7587 N.ar    1  UNL1       -0.1454
     12 N           6.3287   43.7870    7.6691 N.am    1  UNL1       -0.2361
     13 C          10.0283   41.2533    9.9383 C.2     1  UNL1        0.2506
     14 O           9.5969   42.2433   10.5899 O.2     1  UNL1       -0.2698
     15 N           9.1785   40.5771    9.0026 N.am    1  UNL1       -0.2646
     16 H           9.6009   39.9214    8.4018 H       1  UNL1        0.1566
     17 C          11.4220   40.8097   10.1161 C.ar    1  UNL1        0.0538
     18 C          12.3951   41.1243    9.1582 C.ar    1  UNL1        0.0058
     19 C          13.7173   40.7063    9.3301 C.ar    1  UNL1        0.0147
     20 C          14.0907   39.9634   10.4617 C.ar    1  UNL1        0.0479
     21 C          13.1124   39.6522   11.4198 C.ar    1  UNL1        0.0147
     22 C          11.7905   40.0711   11.2483 C.ar    1  UNL1        0.0058
     23 C          16.5537   40.2572    9.9956 C.3     1  UNL1        0.1081
     24 C          17.6092   39.2578    9.5282 C.3     1  UNL1        0.0938
     25 C          19.0197   37.4930   10.1253 C.3     1  UNL1        0.0897
     26 C          16.8908   37.6145   11.0797 C.3     1  UNL1        0.0938
     27 C          15.7972   38.5219   11.6369 C.3     1  UNL1        0.1081
     28 N          15.4551   39.5402   10.6438 N.pl3   1  UNL1       -0.3046
     29 N          18.0321   38.4186   10.6479 N.3     1  UNL1       -0.2686
     30 O           4.6261   39.8986   11.4731 O.3     1  UNL1       -0.4315
     31 C           2.9054   41.2126   12.5440 C.3     1  UNL1        0.0513
     32 C           3.6048   39.8678   12.4633 C.3     1  UNL1        0.2105
     33 O           5.0081   45.8398    7.4952 O.3     1  UNL1       -0.4418
     34 C           3.7155   45.2404    7.3801 C.3     1  UNL1        0.1378
     35 C           2.6346   46.3050    7.3016 C.3     1  UNL1        0.0437
     36 C           3.4442   44.3168    8.5552 C.3     1  UNL1        0.0437
     37 C           3.6735   44.4208    6.1077 C.3     1  UNL1        0.0437
@<TRIPOS>BOND
     1    31    32    1
     2    32    30    1
     3     1    30    1
     4     1    10   am
     5     2    15    1
     6     2     3   ar
     7    13    17    1
     8    18    19   ar
     9    20    21   ar
    10    20    28    1
    11    22    17   ar
    12    23    28    1
    13    23    24    1
    14    24    29    1
    15    25    29    1
    16    26    29    1
    17    26    27    1
    18    27    28    1
    19     4    10   ar
    20     5     4    1
    21     5    12    1
    22     6    12    1
    23     6     3    1
    24     7    33    1
    25    34    33    1
    26    34    35    1
    27    34    36    1
    28    34    37    1
    29    10    11   ar
    30    15    13   am
    31    12     7   am
    32     1     8    2
    33     2    11   ar
    34    13    14    2
    35    17    18   ar
    36    19    20   ar
    37    21    22   ar
    38     3     4   ar
    39     7     9    2
    40    15    16    1
@<TRIPOS>MOLECULE
MolPort-006-727-805 38540493 MCULE-8992860453 PubChem-11237328 ZINC000038540493
 37 40 0 0 0
SMALL
GASTEIGER

@<TRIPOS>ATOM
      1 C           5.1007   42.8435    9.2761 C.2     1  UNL1        0.4370
      2 C           7.9236   40.8456    8.5464 C.ar    1  UNL1        0.1534
      3 C           7.6785   41.3376    7.2754 C.ar    1  UNL1        0.0467
      4 C           6.5570   42.0867    7.4050 C.ar    1  UNL1        0.0872
      5 C           6.5657   43.2445    6.4792 C.3     1  UNL1        0.1429
      6 C           8.5996   41.9158    6.2687 C.3     1  UNL1        0.1279
      7 C           8.3167   43.9678    4.7778 C.2     1  UNL1        0.4052
      8 O           4.3735   43.5770    8.5507 O.2     1  UNL1       -0.2211
      9 O           9.4338   43.7602    4.2295 O.2     1  UNL1       -0.2262
     10 N           6.1443   42.0593    8.6879 N.ar    1  UNL1       -0.1651
     11 N           6.9707   41.2957    9.3912 N.ar    1  UNL1       -0.1454
     12 N           7.8459   43.0767    5.7911 N.am    1  UNL1       -0.2361
     13 C           9.7032   39.0278    8.4201 C.2     1  UNL1        0.2506
     14 O           9.0675   38.3582    7.5609 O.2     1  UNL1       -0.2698
     15 N           9.1178   40.1999    9.0020 N.am    1  UNL1       -0.2646
     16 H           9.5751   40.5939    9.7797 H       1  UNL1        0.1566
     17 C          11.0407   38.5853    8.8515 C.ar    1  UNL1        0.0538
     18 C          12.1484   39.4321    8.7113 C.ar    1  UNL1        0.0058
     19 C          13.4156   39.0125    9.1246 C.ar    1  UNL1        0.0147
     20 C          13.5994   37.7373    9.6832 C.ar    1  UNL1        0.0479
     21 C          12.4861   36.8932    9.8233 C.ar    1  UNL1        0.0147
     22 C          11.2189   37.3131    9.4110 C.ar    1  UNL1        0.0058
     23 C          15.4448   37.7448   11.4050 C.3     1  UNL1        0.1081
     24 C          16.9420   38.0098   11.2651 C.3     1  UNL1        0.0938
     25 C          19.0159   37.1624   10.6009 C.3     1  UNL1        0.0897
     26 C          17.1168   36.6142    9.3558 C.3     1  UNL1        0.0938
     27 C          15.6306   36.2677    9.3897 C.3     1  UNL1        0.1081
     28 N          14.9035   37.3079   10.1175 N.pl3   1  UNL1       -0.3046
     29 N          17.6080   36.8306   10.7149 N.3     1  UNL1       -0.2686
     30 O           4.8930   42.7878   10.6581 O.3     1  UNL1       -0.4315
     31 C           3.7448   40.6967   11.0360 C.3     1  UNL1        0.0513
     32 C           4.9341   41.5699   11.3925 C.3     1  UNL1        0.2105
     33 O           7.5294   45.0672    4.4032 O.3     1  UNL1       -0.4418
     34 C           7.9109   46.0472    3.4351 C.3     1  UNL1        0.1378
     35 C           6.8531   46.1731    2.3522 C.3     1  UNL1        0.0437
     36 C           9.2489   45.6928    2.8093 C.3     1  UNL1        0.0437
     37 C           8.0471   47.3859    4.1293 C.3     1  UNL1        0.0437
@<TRIPOS>BOND
     1    31    32    1
     2    32    30    1
     3     1    30    1
     4     1    10   am
     5     2    15    1
     6     2     3   ar
     7    13    17    1
     8    18    19   ar
     9    20    21   ar
    10    20    28    1
    11    22    17   ar
    12    23    28    1
    13    23    24    1
    14    24    29    1
    15    25    29    1
    16    26    29    1
    17    26    27    1
    18    27    28    1
    19     4    10   ar
    20     5     4    1
    21     5    12    1
    22     6    12    1
    23     6     3    1
    24     7    33    1
    25    34    33    1
    26    34    35    1
    27    34    36    1
    28    34    37    1
    29    10    11   ar
    30    15    13   am
    31    12     7   am
    32     1     8    2
    33     2    11   ar
    34    13    14    2
    35    17    18   ar
    36    19    20   ar
    37    21    22   ar
    38     3     4   ar
    39     7     9    2
    40    15    16    1
@<TRIPOS>MOLECULE
MolPort-006-727-805 38540493 MCULE-8992860453 PubChem-11237328 ZINC000038540493
 37 40 0 0 0
SMALL
GASTEIGER

@<TRIPOS>ATOM
      1 C          15.5558   37.8076   11.7300 C.2     1  UNL1        0.4370
      2 C          14.4409   36.5723    8.6116 C.ar    1  UNL1        0.1534
      3 C          13.3414   37.3489    8.9368 C.ar    1  UNL1        0.0467
      4 C          13.6182   37.8415   10.1683 C.ar    1  UNL1        0.0872
      5 C          13.0429   39.1949   10.3551 C.3     1  UNL1        0.1429
      6 C          12.5728   38.3231    8.1267 C.3     1  UNL1        0.1279
      7 C          11.6838   40.6324    8.7518 C.2     1  UNL1        0.4052
      8 O          15.0244   38.5846   12.5707 O.2     1  UNL1       -0.2211
      9 O          11.1515   40.7675    7.6161 O.2     1  UNL1       -0.2262
     10 N          14.8252   37.3954   10.5697 N.ar    1  UNL1       -0.1651
     11 N          15.3317   36.6120    9.6262 N.ar    1  UNL1       -0.1454
     12 N          12.3945   39.4326    9.0654 N.am    1  UNL1       -0.2361
     13 C          16.0713   35.6719    6.8744 C.2     1  UNL1        0.2506
     14 O          17.0874   36.0129    7.5393 O.2     1  UNL1       -0.2698
     15 N          14.7582   36.0284    7.3255 N.am    1  UNL1       -0.2646
     16 H          14.0122   35.8876    6.6988 H       1  UNL1        0.1566
     17 C          16.2364   34.9313    5.6114 C.ar    1  UNL1        0.0538
     18 C          15.9996   33.5510    5.5613 C.ar    1  UNL1        0.0058
     19 C          16.1527   32.8508    4.3618 C.ar    1  UNL1        0.0147
     20 C          16.5483   33.5170    3.1907 C.ar    1  UNL1        0.0479
     21 C          16.7826   34.9003    3.2455 C.ar    1  UNL1        0.0147
     22 C          16.6285   35.6007    4.4447 C.ar    1  UNL1        0.0058
     23 C          17.7070   33.1972    0.9713 C.3     1  UNL1        0.1081
     24 C          17.1416   33.0339   -0.4376 C.3     1  UNL1        0.0938
     25 C          16.1186   31.5977   -1.9710 C.3     1  UNL1        0.0897
     26 C          15.5195   31.4612    0.2828 C.3     1  UNL1        0.0938
     27 C          15.9952   31.5330    1.7314 C.3     1  UNL1        0.1081
     28 N          16.6975   32.7973    1.9523 N.pl3   1  UNL1       -0.3046
     29 N          16.6478   31.6705   -0.6220 N.3     1  UNL1       -0.2686
     30 O          16.8597   37.3407   11.9245 O.3     1  UNL1       -0.4315
     31 C          18.0690   39.1023   10.7982 C.3     1  UNL1        0.0513
     32 C          17.9156   37.6068   11.0086 C.3     1  UNL1        0.2105
     33 O          11.5862   41.6498    9.7131 O.3     1  UNL1       -0.4418
     34 C          10.3991   41.9654   10.4441 C.3     1  UNL1        0.1378
     35 C          10.2465   43.4689   10.5979 C.3     1  UNL1        0.0437
     36 C          10.4192   41.3071   11.8130 C.3     1  UNL1        0.0437
     37 C           9.2042   41.4387    9.6776 C.3     1  UNL1        0.0437
@<TRIPOS>BOND
     1    31    32    1
     2    32    30    1
     3     1    30    1
     4     1    10   am
     5     2    15    1
     6     2     3   ar
     7    13    17    1
     8    18    19   ar
     9    20    21   ar
    10    20    28    1
    11    22    17   ar
    12    23    28    1
    13    23    24    1
    14    24    29    1
    15    25    29    1
    16    26    29    1
    17    26    27    1
    18    27    28    1
    19     4    10   ar
    20     5     4    1
    21     5    12    1
    22     6    12    1
    23     6     3    1
    24     7    33    1
    25    34    33    1
    26    34    35    1
    27    34    36    1
    28    34    37    1
    29    10    11   ar
    30    15    13   am
    31    12     7   am
    32     1     8    2
    33     2    11   ar
    34    13    14    2
    35    17    18   ar
    36    19    20   ar
    37    21    22   ar
    38     3     4   ar
    39     7     9    2
    40    15    16    1
