@<TRIPOS>MOLECULE
MolPort-039-054-753 252496875 MCULE-1315327226 PubChem-119056290 ZINC000252496875
 21 22 0 0 0
SMALL
GASTEIGER

@<TRIPOS>ATOM
      1 C          10.0357   40.1579    6.2307 C.ar    1  UNL1        0.1562
      2 C          11.4070   40.0073    6.3607 C.ar    1  UNL1        0.0615
      3 C          11.7806   41.1921    6.9715 C.ar    1  UNL1        0.1559
      4 C           8.3168   41.9036    6.7981 C.3     1  UNL1        0.1540
      5 N          10.7209   41.9931    7.1922 N.ar    1  UNL1       -0.1538
      6 N           9.6608   41.3529    6.7364 N.ar    1  UNL1       -0.2413
      7 C          13.8724   42.6213    6.7867 C.2     1  UNL1        0.2567
      8 O          13.3540   43.3944    5.9367 O.2     1  UNL1       -0.2692
      9 N          13.1282   41.5208    7.3229 N.am    1  UNL1       -0.2640
     10 H          13.5785   40.9466    7.9839 H       1  UNL1        0.1566
     11 C          15.2517   42.8510    7.2313 C.ar    1  UNL1        0.0852
     12 C          15.9822   42.0021    8.0570 C.ar    1  UNL1        0.0139
     13 C          17.2764   42.4733    8.3185 C.ar    1  UNL1        0.0371
     14 C          17.5404   43.6835    7.6941 C.ar    1  UNL1        0.1700
     15 F          18.7098   44.3621    7.7766 F       1  UNL1       -0.1971
     16 S          16.1965   44.1820    6.8216 S.2     1  UNL1       -0.0532
     17 C           9.1417   39.1530    5.6277 C.2     1  UNL1        0.3589
     18 O           8.7784   38.1422    6.2887 O.2     1  UNL1       -0.2432
     19 O           8.6996   39.3317    4.3150 O.3     1  UNL1       -0.4444
     20 C           9.9495   37.6345    3.1736 C.3     1  UNL1        0.0513
     21 C           9.5440   39.0934    3.1988 C.3     1  UNL1        0.2089
@<TRIPOS>BOND
     1    20    21    1
     2    21    19    1
     3    17    19    1
     4    17     1    1
     5     2     3   ar
     6     3     9    1
     7     7    11    1
     8    11    16   ar
     9    12    13   ar
    10    14    15    1
    11    14    16   ar
    12     4     6    1
    13     9     7   am
    14     6     5   ar
    15     6     1   ar
    16    17    18    2
    17     1     2   ar
    18     3     5   ar
    19     7     8    2
    20    11    12   ar
    21    13    14   ar
    22     9    10    1
@<TRIPOS>MOLECULE
MolPort-039-054-753 252496875 MCULE-1315327226 PubChem-119056290 ZINC000252496875
 21 22 0 0 0
SMALL
GASTEIGER

@<TRIPOS>ATOM
      1 C          14.3260   42.7499    6.9665 C.ar    1  UNL1        0.1562
      2 C          13.0107   42.8551    6.5436 C.ar    1  UNL1        0.0615
      3 C          12.3917   41.8287    7.2363 C.ar    1  UNL1        0.1559
      4 C          15.6439   41.2780    8.5223 C.3     1  UNL1        0.1540
      5 N          13.2627   41.1582    8.0141 N.ar    1  UNL1       -0.1538
      6 N          14.4405   41.7281    7.8423 N.ar    1  UNL1       -0.2413
      7 C          10.0331   41.7271    8.1740 C.2     1  UNL1        0.2567
      8 O          10.3787   42.2121    9.2850 O.2     1  UNL1       -0.2692
      9 N          10.9978   41.5218    7.1348 N.am    1  UNL1       -0.2640
     10 H          10.6770   41.1403    6.2858 H       1  UNL1        0.1566
     11 C           8.6290   41.3696    7.9429 C.ar    1  UNL1        0.0852
     12 C           8.1209   40.8256    6.7673 C.ar    1  UNL1        0.0139
     13 C           6.7414   40.5835    6.8280 C.ar    1  UNL1        0.0371
     14 C           6.1897   40.9409    8.0495 C.ar    1  UNL1        0.1700
     15 F           4.8819   40.8143    8.3788 F       1  UNL1       -0.1971
     16 S           7.3825   41.5531    9.0586 S.2     1  UNL1       -0.0532
     17 C          15.4182   43.6307    6.5148 C.2     1  UNL1        0.3589
     18 O          15.7834   43.6282    5.3076 O.2     1  UNL1       -0.2432
     19 O          16.0455   44.4699    7.4382 O.3     1  UNL1       -0.4444
     20 C          18.3885   43.9650    7.4046 C.3     1  UNL1        0.0513
     21 C          17.1283   44.0263    8.2422 C.3     1  UNL1        0.2089
@<TRIPOS>BOND
     1    20    21    1
     2    21    19    1
     3    17    19    1
     4    17     1    1
     5     2     3   ar
     6     3     9    1
     7     7    11    1
     8    11    16   ar
     9    12    13   ar
    10    14    15    1
    11    14    16   ar
    12     4     6    1
    13     9     7   am
    14     6     5   ar
    15     6     1   ar
    16    17    18    2
    17     1     2   ar
    18     3     5   ar
    19     7     8    2
    20    11    12   ar
    21    13    14   ar
    22     9    10    1
@<TRIPOS>MOLECULE
MolPort-039-054-753 252496875 MCULE-1315327226 PubChem-119056290 ZINC000252496875
 21 22 0 0 0
SMALL
GASTEIGER

@<TRIPOS>ATOM
      1 C          14.9026   42.4823    7.2817 C.ar    1  UNL1        0.1562
      2 C          13.8137   41.6342    7.4042 C.ar    1  UNL1        0.0615
      3 C          12.8311   42.3066    6.6980 C.ar    1  UNL1        0.1559
      4 C          15.3963   44.6929    6.1892 C.3     1  UNL1        0.1540
      5 N          13.2894   43.4665    6.1904 N.ar    1  UNL1       -0.1538
      6 N          14.5547   43.5645    6.5524 N.ar    1  UNL1       -0.2413
      7 C          10.4706   41.8761    7.5319 C.2     1  UNL1        0.2567
      8 O          10.7056   42.3729    8.6663 O.2     1  UNL1       -0.2692
      9 N          11.4942   41.8244    6.5308 N.am    1  UNL1       -0.2640
     10 H          11.2599   41.4267    5.6613 H       1  UNL1        0.1566
     11 C           9.1354   41.3458    7.2338 C.ar    1  UNL1        0.0852
     12 C           7.9343   41.9114    7.6502 C.ar    1  UNL1        0.0139
     13 C           6.8117   41.1909    7.2190 C.ar    1  UNL1        0.0371
     14 C           7.1498   40.0724    6.4715 C.ar    1  UNL1        0.1700
     15 F           6.2641   39.2009    5.9322 F       1  UNL1       -0.1971
     16 S           8.8184   39.9592    6.3345 S.2     1  UNL1       -0.0532
     17 C          16.2298   42.2223    7.8678 C.2     1  UNL1        0.3589
     18 O          17.2019   42.9839    7.6115 O.2     1  UNL1       -0.2432
     19 O          16.4007   41.1227    8.7117 O.3     1  UNL1       -0.4444
     20 C          15.6322   39.1164    9.7746 C.3     1  UNL1        0.0513
     21 C          15.3201   40.5602    9.4409 C.3     1  UNL1        0.2089
@<TRIPOS>BOND
     1    20    21    1
     2    21    19    1
     3    17    19    1
     4    17     1    1
     5     2     3   ar
     6     3     9    1
     7     7    11    1
     8    11    16   ar
     9    12    13   ar
    10    14    15    1
    11    14    16   ar
    12     4     6    1
    13     9     7   am
    14     6     5   ar
    15     6     1   ar
    16    17    18    2
    17     1     2   ar
    18     3     5   ar
    19     7     8    2
    20    11    12   ar
    21    13    14   ar
    22     9    10    1
@<TRIPOS>MOLECULE
MolPort-039-054-753 252496875 MCULE-1315327226 PubChem-119056290 ZINC000252496875
 21 22 0 0 0
SMALL
GASTEIGER

@<TRIPOS>ATOM
      1 C          10.0080   41.5962    8.7578 C.ar    1  UNL1        0.1562
      2 C          11.1564   42.3500    8.9396 C.ar    1  UNL1        0.0615
      3 C          12.0406   41.7659    8.0489 C.ar    1  UNL1        0.1559
      4 C           9.2941   39.6487    7.3360 C.3     1  UNL1        0.1540
      5 N          11.4722   40.7425    7.3834 N.ar    1  UNL1       -0.1538
      6 N          10.2317   40.6470    7.8233 N.ar    1  UNL1       -0.2413
      7 C          13.8323   43.0955    6.8347 C.2     1  UNL1        0.2567
      8 O          13.0141   43.5713    6.0021 O.2     1  UNL1       -0.2692
      9 N          13.3913   42.1996    7.8620 N.am    1  UNL1       -0.2640
     10 H          14.0697   41.8559    8.4873 H       1  UNL1        0.1566
     11 C          15.2503   43.4633    6.7508 C.ar    1  UNL1        0.0852
     12 C          15.9057   43.8809    5.5966 C.ar    1  UNL1        0.0139
     13 C          17.2612   44.1673    5.8104 C.ar    1  UNL1        0.0371
     14 C          17.6473   43.9702    7.1281 C.ar    1  UNL1        0.1700
     15 F          18.8971   44.1711    7.6103 F       1  UNL1       -0.1971
     16 S          16.3369   43.4461    8.0357 S.2     1  UNL1       -0.0532
     17 C           8.7451   41.8151    9.4857 C.2     1  UNL1        0.3589
     18 O           8.6345   41.4662   10.6927 O.2     1  UNL1       -0.2432
     19 O           7.6705   42.4142    8.8250 O.3     1  UNL1       -0.4444
     20 C           5.3946   43.1401    8.6278 C.3     1  UNL1        0.0513
     21 C           6.3262   42.0349    9.0795 C.3     1  UNL1        0.2089
@<TRIPOS>BOND
     1    20    21    1
     2    21    19    1
     3    17    19    1
     4    17     1    1
     5     2     3   ar
     6     3     9    1
     7     7    11    1
     8    11    16   ar
     9    12    13   ar
    10    14    15    1
    11    14    16   ar
    12     4     6    1
    13     9     7   am
    14     6     5   ar
    15     6     1   ar
    16    17    18    2
    17     1     2   ar
    18     3     5   ar
    19     7     8    2
    20    11    12   ar
    21    13    14   ar
    22     9    10    1
@<TRIPOS>MOLECULE
MolPort-039-054-753 252496875 MCULE-1315327226 PubChem-119056290 ZINC000252496875
 21 22 0 0 0
SMALL
GASTEIGER

@<TRIPOS>ATOM
      1 C          13.8538   40.4268    9.6080 C.ar    1  UNL1        0.1562
      2 C          12.8851   41.1106    8.8910 C.ar    1  UNL1        0.0615
      3 C          11.7674   40.9764    9.6967 C.ar    1  UNL1        0.1559
      4 C          13.9838   39.1623   11.7778 C.3     1  UNL1        0.1540
      5 N          12.0392   40.2689   10.8097 N.ar    1  UNL1       -0.1538
      6 N          13.3151   39.9380   10.7460 N.ar    1  UNL1       -0.2413
      7 C          10.0977   42.8877    9.5896 C.2     1  UNL1        0.2567
      8 O          10.9081   43.7164   10.0851 O.2     1  UNL1       -0.2692
      9 N          10.4835   41.5237    9.3814 N.am    1  UNL1       -0.2640
     10 H           9.8139   40.9165    8.9914 H       1  UNL1        0.1566
     11 C           8.7460   43.3246    9.2223 C.ar    1  UNL1        0.0852
     12 C           8.3012   44.6430    9.2157 C.ar    1  UNL1        0.0139
     13 C           6.9616   44.7665    8.8214 C.ar    1  UNL1        0.0371
     14 C           6.3773   43.5439    8.5251 C.ar    1  UNL1        0.1700
     15 F           5.0962   43.3723    8.1197 F       1  UNL1       -0.1971
     16 S           7.4925   42.3092    8.7430 S.2     1  UNL1       -0.0532
     17 C          15.2537   40.2691    9.1743 C.2     1  UNL1        0.3589
     18 O          15.8569   39.1751    9.3473 O.2     1  UNL1       -0.2432
     19 O          15.9066   41.3447    8.5682 O.3     1  UNL1       -0.4444
     20 C          17.4562   43.1679    8.7106 C.3     1  UNL1        0.0513
     21 C          17.2525   41.6763    8.8752 C.3     1  UNL1        0.2089
@<TRIPOS>BOND
     1    20    21    1
     2    21    19    1
     3    17    19    1
     4    17     1    1
     5     2     3   ar
     6     3     9    1
     7     7    11    1
     8    11    16   ar
     9    12    13   ar
    10    14    15    1
    11    14    16   ar
    12     4     6    1
    13     9     7   am
    14     6     5   ar
    15     6     1   ar
    16    17    18    2
    17     1     2   ar
    18     3     5   ar
    19     7     8    2
    20    11    12   ar
    21    13    14   ar
    22     9    10    1
@<TRIPOS>MOLECULE
MolPort-039-054-753 252496875 MCULE-1315327226 PubChem-119056290 ZINC000252496875
 21 22 0 0 0
SMALL
GASTEIGER

@<TRIPOS>ATOM
      1 C           9.9279   40.1129    5.8568 C.ar    1  UNL1        0.1562
      2 C          10.8117   41.0872    5.4212 C.ar    1  UNL1        0.0615
      3 C          11.7858   41.0674    6.4047 C.ar    1  UNL1        0.1559
      4 C           9.7512   38.5297    7.8027 C.3     1  UNL1        0.1540
      5 N          11.5123   40.1554    7.3568 N.ar    1  UNL1       -0.1538
      6 N          10.3763   39.5783    7.0133 N.ar    1  UNL1       -0.2413
      7 C          14.0748   41.7556    7.2644 C.2     1  UNL1        0.2567
      8 O          14.1189   40.8172    8.1049 O.2     1  UNL1       -0.2692
      9 N          12.9394   41.9140    6.4052 N.am    1  UNL1       -0.2640
     10 H          12.9540   42.6627    5.7661 H       1  UNL1        0.1566
     11 C          15.1978   42.6947    7.1651 C.ar    1  UNL1        0.0852
     12 C          15.2411   43.8113    6.3361 C.ar    1  UNL1        0.0139
     13 C          16.4400   44.5294    6.4476 C.ar    1  UNL1        0.0371
     14 C          17.3174   43.9651    7.3619 C.ar    1  UNL1        0.1700
     15 F          18.5443   44.4527    7.6649 F       1  UNL1       -0.1971
     16 S          16.6336   42.5892    8.0365 S.2     1  UNL1       -0.0532
     17 C           8.6915   39.7347    5.1491 C.2     1  UNL1        0.3589
     18 O           8.7109   38.8354    4.2650 O.2     1  UNL1       -0.2432
     19 O           7.4961   40.3825    5.4680 O.3     1  UNL1       -0.4444
     20 C           7.1898   42.6737    6.1025 C.3     1  UNL1        0.0513
     21 C           7.3876   41.2519    6.5852 C.3     1  UNL1        0.2089
@<TRIPOS>BOND
     1    20    21    1
     2    21    19    1
     3    17    19    1
     4    17     1    1
     5     2     3   ar
     6     3     9    1
     7     7    11    1
     8    11    16   ar
     9    12    13   ar
    10    14    15    1
    11    14    16   ar
    12     4     6    1
    13     9     7   am
    14     6     5   ar
    15     6     1   ar
    16    17    18    2
    17     1     2   ar
    18     3     5   ar
    19     7     8    2
    20    11    12   ar
    21    13    14   ar
    22     9    10    1
@<TRIPOS>MOLECULE
MolPort-039-054-753 252496875 MCULE-1315327226 PubChem-119056290 ZINC000252496875
 21 22 0 0 0
SMALL
GASTEIGER

@<TRIPOS>ATOM
      1 C          13.2818   42.0269    7.7106 C.ar    1  UNL1        0.1562
      2 C          11.9092   42.2150    7.6836 C.ar    1  UNL1        0.0615
      3 C          11.4667   41.3205    8.6430 C.ar    1  UNL1        0.1559
      4 C          14.9152   40.5899    8.9719 C.3     1  UNL1        0.1540
      5 N          12.4891   40.6470    9.2036 N.ar    1  UNL1       -0.1538
      6 N          13.5925   41.0853    8.6276 N.ar    1  UNL1       -0.2413
      7 C           9.3194   42.0407    9.7932 C.2     1  UNL1        0.2567
      8 O           9.8366   43.0939   10.2537 O.2     1  UNL1       -0.2692
      9 N          10.0912   41.1376    8.9923 N.am    1  UNL1       -0.2640
     10 H           9.6406   40.3292    8.6566 H       1  UNL1        0.1566
     11 C           7.9129   41.7368   10.0801 C.ar    1  UNL1        0.0852
     12 C           7.3562   41.6311   11.3509 C.ar    1  UNL1        0.0139
     13 C           5.9869   41.3316   11.3252 C.ar    1  UNL1        0.0371
     14 C           5.4915   41.2075   10.0355 C.ar    1  UNL1        0.1700
     15 F           4.2052   40.9226    9.7208 F       1  UNL1       -0.1971
     16 S           6.7218   41.4625    8.9233 S.2     1  UNL1       -0.0532
     17 C          14.2383   42.7552    6.8578 C.2     1  UNL1        0.3589
     18 O          13.9840   42.9552    5.6387 O.2     1  UNL1       -0.2432
     19 O          15.4309   43.2230    7.4139 O.3     1  UNL1       -0.4444
     20 C          17.7115   43.9611    7.4137 C.3     1  UNL1        0.0513
     21 C          16.4162   43.8826    6.6329 C.3     1  UNL1        0.2089
@<TRIPOS>BOND
     1    20    21    1
     2    21    19    1
     3    17    19    1
     4    17     1    1
     5     2     3   ar
     6     3     9    1
     7     7    11    1
     8    11    16   ar
     9    12    13   ar
    10    14    15    1
    11    14    16   ar
    12     4     6    1
    13     9     7   am
    14     6     5   ar
    15     6     1   ar
    16    17    18    2
    17     1     2   ar
    18     3     5   ar
    19     7     8    2
    20    11    12   ar
    21    13    14   ar
    22     9    10    1
@<TRIPOS>MOLECULE
MolPort-039-054-753 252496875 MCULE-1315327226 PubChem-119056290 ZINC000252496875
 21 22 0 0 0
SMALL
GASTEIGER

@<TRIPOS>ATOM
      1 C          13.2228   38.0942   10.7568 C.ar    1  UNL1        0.1562
      2 C          12.6422   39.3517   10.7205 C.ar    1  UNL1        0.0615
      3 C          11.4317   39.1035   10.0965 C.ar    1  UNL1        0.1559
      4 C          12.6143   35.7673   10.0221 C.3     1  UNL1        0.1540
      5 N          11.2928   37.8017    9.7815 N.ar    1  UNL1       -0.1538
      6 N          12.3913   37.1942   10.1885 N.ar    1  UNL1       -0.2413
      7 C          10.7442   41.4676    9.4713 C.2     1  UNL1        0.2567
      8 O          11.9369   41.8659    9.3821 O.2     1  UNL1       -0.2692
      9 N          10.4519   40.1096    9.8219 N.am    1  UNL1       -0.2640
     10 H           9.5043   39.8486    9.8783 H       1  UNL1        0.1566
     11 C           9.6446   42.4042    9.2133 C.ar    1  UNL1        0.0852
     12 C           8.5929   42.1853    8.3290 C.ar    1  UNL1        0.0139
     13 C           7.6848   43.2524    8.2841 C.ar    1  UNL1        0.0371
     14 C           8.0383   44.2906    9.1335 C.ar    1  UNL1        0.1700
     15 F           7.3399   45.4409    9.2877 F       1  UNL1       -0.1971
     16 S           9.4589   43.9100    9.9413 S.2     1  UNL1       -0.0532
     17 C          14.5486   37.8061   11.3329 C.2     1  UNL1        0.3589
     18 O          14.8183   36.6548   11.7716 O.2     1  UNL1       -0.2432
     19 O          15.5052   38.8222   11.3877 O.3     1  UNL1       -0.4444
     20 C          16.0248   40.3337    9.6014 C.3     1  UNL1        0.0513
     21 C          16.4120   39.0588   10.3212 C.3     1  UNL1        0.2089
@<TRIPOS>BOND
     1    20    21    1
     2    21    19    1
     3    17    19    1
     4    17     1    1
     5     2     3   ar
     6     3     9    1
     7     7    11    1
     8    11    16   ar
     9    12    13   ar
    10    14    15    1
    11    14    16   ar
    12     4     6    1
    13     9     7   am
    14     6     5   ar
    15     6     1   ar
    16    17    18    2
    17     1     2   ar
    18     3     5   ar
    19     7     8    2
    20    11    12   ar
    21    13    14   ar
    22     9    10    1
@<TRIPOS>MOLECULE
MolPort-039-054-753 252496875 MCULE-1315327226 PubChem-119056290 ZINC000252496875
 21 22 0 0 0
SMALL
GASTEIGER

@<TRIPOS>ATOM
      1 C           9.5258   41.6735    7.6189 C.ar    1  UNL1        0.1562
      2 C          10.7720   41.7346    7.0161 C.ar    1  UNL1        0.0615
      3 C          11.5998   42.0647    8.0754 C.ar    1  UNL1        0.1559
      4 C           8.5839   41.9953    9.9283 C.3     1  UNL1        0.1540
      5 N          10.9096   42.1926    9.2245 N.ar    1  UNL1       -0.1538
      6 N           9.6446   41.9520    8.9352 N.ar    1  UNL1       -0.2413
      7 C          13.6597   43.0609    6.9723 C.2     1  UNL1        0.2567
      8 O          12.9827   43.6897    6.1149 O.2     1  UNL1       -0.2692
      9 N          13.0143   42.2466    7.9587 N.am    1  UNL1       -0.2640
     10 H          13.5880   41.7762    8.6059 H       1  UNL1        0.1566
     11 C          15.1233   43.1644    6.9601 C.ar    1  UNL1        0.0852
     12 C          15.8680   43.9260    6.0650 C.ar    1  UNL1        0.0139
     13 C          17.2492   43.8369    6.2877 C.ar    1  UNL1        0.0371
     14 C          17.5658   43.0074    7.3535 C.ar    1  UNL1        0.1700
     15 F          18.8218   42.7428    7.7863 F       1  UNL1       -0.1971
     16 S          16.1624   42.3806    8.0269 S.2     1  UNL1       -0.0532
     17 C           8.2738   41.3519    6.9107 C.2     1  UNL1        0.3589
     18 O           7.6304   40.3046    7.1936 O.2     1  UNL1       -0.2432
     19 O           7.8056   42.2201    5.9220 O.3     1  UNL1       -0.4444
     20 C           6.8707   43.9408    7.3042 C.3     1  UNL1        0.0513
     21 C           6.6543   43.0281    6.1153 C.3     1  UNL1        0.2089
@<TRIPOS>BOND
     1    20    21    1
     2    21    19    1
     3    17    19    1
     4    17     1    1
     5     2     3   ar
     6     3     9    1
     7     7    11    1
     8    11    16   ar
     9    12    13   ar
    10    14    15    1
    11    14    16   ar
    12     4     6    1
    13     9     7   am
    14     6     5   ar
    15     6     1   ar
    16    17    18    2
    17     1     2   ar
    18     3     5   ar
    19     7     8    2
    20    11    12   ar
    21    13    14   ar
    22     9    10    1
@<TRIPOS>MOLECULE
MolPort-039-054-753 252496875 MCULE-1315327226 PubChem-119056290 ZINC000252496875
 21 22 0 0 0
SMALL
GASTEIGER

@<TRIPOS>ATOM
      1 C           9.1361   40.5390    5.7367 C.ar    1  UNL1        0.1562
      2 C           9.9555   41.5339    6.2453 C.ar    1  UNL1        0.0615
      3 C          11.1211   41.3606    5.5188 C.ar    1  UNL1        0.1559
      4 C           9.3057   38.7273    4.0008 C.3     1  UNL1        0.1540
      5 N          11.0141   40.3436    4.6427 N.ar    1  UNL1       -0.1538
      6 N           9.7989   39.8486    4.7836 N.ar    1  UNL1       -0.2413
      7 C          13.3121   41.9436    6.6644 C.2     1  UNL1        0.2567
      8 O          13.2256   40.9816    7.4743 O.2     1  UNL1       -0.2692
      9 N          12.2928   42.1655    5.6822 N.am    1  UNL1       -0.2640
     10 H          12.4074   42.9304    5.0731 H       1  UNL1        0.1566
     11 C          14.4682   42.8448    6.7280 C.ar    1  UNL1        0.0852
     12 C          14.5936   44.0422    6.0305 C.ar    1  UNL1        0.0139
     13 C          15.8066   44.6981    6.2830 C.ar    1  UNL1        0.0371
     14 C          16.6129   44.0052    7.1742 C.ar    1  UNL1        0.1700
     15 F          17.8357   44.4103    7.5929 F       1  UNL1       -0.1971
     16 S          15.8488   42.5913    7.6564 S.2     1  UNL1       -0.0532
     17 C           7.7538   40.2900    6.1839 C.2     1  UNL1        0.3589
     18 O           7.1506   39.2373    5.8396 O.2     1  UNL1       -0.2432
     19 O           7.1177   41.2326    6.9946 O.3     1  UNL1       -0.4444
     20 C           5.6676   41.3053    8.9019 C.3     1  UNL1        0.0513
     21 C           7.0858   41.1082    8.4086 C.3     1  UNL1        0.2089
@<TRIPOS>BOND
     1    20    21    1
     2    21    19    1
     3    17    19    1
     4    17     1    1
     5     2     3   ar
     6     3     9    1
     7     7    11    1
     8    11    16   ar
     9    12    13   ar
    10    14    15    1
    11    14    16   ar
    12     4     6    1
    13     9     7   am
    14     6     5   ar
    15     6     1   ar
    16    17    18    2
    17     1     2   ar
    18     3     5   ar
    19     7     8    2
    20    11    12   ar
    21    13    14   ar
    22     9    10    1
