@<TRIPOS>MOLECULE
MolPort-001-943-897 2304980 CSSS00161035153 ChemDiv-8010-2152 MCULE-5016758089 PubChem-1923393 ZINC000002304980 ZINC02304980
 22 23 0 0 0
SMALL
GASTEIGER

@<TRIPOS>ATOM
      1 C           4.5477   40.9656   10.6857 C.ar    1  UNL1        0.1123
      2 C           2.6645   42.0754   11.6522 C.ar    1  UNL1        0.1880
      3 N           3.4424   40.1889   10.7360 N.ar    1  UNL1       -0.1440
      4 N           2.3921   40.8071   11.2729 N.ar    1  UNL1       -0.1256
      5 S           4.2615   42.4950   11.3305 S.2     1  UNL1       -0.0347
      6 C           1.3382   42.9414   13.6398 C.2     1  UNL1        0.2509
      7 N           1.7149   42.9583   12.2565 N.am    1  UNL1       -0.2592
      8 O           1.8525   42.1040   14.4306 O.2     1  UNL1       -0.2698
      9 H           1.2867   43.6297   11.6775 H       1  UNL1        0.1571
     10 C           0.3445   43.9077   14.1404 C.ar    1  UNL1        0.0539
     11 C          -0.9013   43.4662   14.6110 C.ar    1  UNL1        0.0068
     12 C          -1.8433   44.3836   15.0857 C.ar    1  UNL1        0.0298
     13 C          -1.5464   45.7492   15.0935 C.ar    1  UNL1        0.1401
     14 C          -0.3080   46.1975   14.6266 C.ar    1  UNL1        0.0298
     15 C           0.6340   45.2800   14.1518 C.ar    1  UNL1        0.0068
     16 F          -2.4590   46.6380   15.5533 F       1  UNL1       -0.2042
     17 C           5.8569   40.5100   10.1444 C.3     1  UNL1        0.0545
     18 C           5.9902   40.9179    8.6887 C.3     1  UNL1        0.0069
     19 C           7.1102   41.9319    8.5317 C.3     1  UNL1        0.0004
     20 C           7.1637   42.4885    7.1149 C.3     1  UNL1        0.0000
     21 C           6.7383   44.4742    5.6762 C.3     1  UNL1        0.0000
     22 C           6.9550   43.9936    7.0976 C.3     1  UNL1        0.0000
@<TRIPOS>BOND
     1    21    22    1
     2    22    20    1
     3    20    19    1
     4    19    18    1
     5    18    17    1
     6    17     1    1
     7     1     5   ar
     8     2     7    1
     9     2     5   ar
    10     6    10    1
    11    11    12   ar
    12    13    16    1
    13    13    14   ar
    14    15    10   ar
    15     3     4   ar
    16     7     6   am
    17     1     3   ar
    18     2     4   ar
    19     6     8    2
    20    10    11   ar
    21    12    13   ar
    22    14    15   ar
    23     7     9    1
@<TRIPOS>MOLECULE
MolPort-001-943-897 2304980 CSSS00161035153 ChemDiv-8010-2152 MCULE-5016758089 PubChem-1923393 ZINC000002304980 ZINC02304980
 22 23 0 0 0
SMALL
GASTEIGER

@<TRIPOS>ATOM
      1 C          16.0741   37.5863    9.6178 C.ar    1  UNL1        0.1123
      2 C          14.1704   39.0091    9.3660 C.ar    1  UNL1        0.1880
      3 N          15.9030   38.0243    8.3504 N.ar    1  UNL1       -0.1440
      4 N          14.8434   38.8185    8.2096 N.ar    1  UNL1       -0.1256
      5 S          14.8785   38.1783   10.6459 S.2     1  UNL1       -0.0347
      6 C          11.7423   39.3695   10.0251 C.2     1  UNL1        0.2509
      7 N          12.9962   39.8166    9.4925 N.am    1  UNL1       -0.2592
      8 O          11.6077   38.1819   10.4283 O.2     1  UNL1       -0.2698
      9 H          13.0536   40.7518    9.1903 H       1  UNL1        0.1571
     10 C          10.6046   40.3029   10.1020 C.ar    1  UNL1        0.0539
     11 C          10.3107   40.9674   11.3022 C.ar    1  UNL1        0.0068
     12 C           9.2311   41.8528   11.3742 C.ar    1  UNL1        0.0298
     13 C           8.4378   42.0803   10.2465 C.ar    1  UNL1        0.1401
     14 C           8.7234   41.4227    9.0471 C.ar    1  UNL1        0.0298
     15 C           9.8029   40.5372    8.9752 C.ar    1  UNL1        0.0068
     16 F           7.3919   42.9380   10.3162 F       1  UNL1       -0.2042
     17 C          17.1743   36.6770   10.0391 C.3     1  UNL1        0.0545
     18 C          18.1024   37.3926   11.0033 C.3     1  UNL1        0.0069
     19 C          18.1241   36.6702   12.3394 C.3     1  UNL1        0.0004
     20 C          18.6891   35.2624   12.2028 C.3     1  UNL1        0.0000
     21 C          18.8933   34.2796   14.4801 C.3     1  UNL1        0.0000
     22 C          19.6453   34.9315   13.3366 C.3     1  UNL1        0.0000
@<TRIPOS>BOND
     1    21    22    1
     2    22    20    1
     3    20    19    1
     4    19    18    1
     5    18    17    1
     6    17     1    1
     7     1     5   ar
     8     2     7    1
     9     2     5   ar
    10     6    10    1
    11    11    12   ar
    12    13    16    1
    13    13    14   ar
    14    15    10   ar
    15     3     4   ar
    16     7     6   am
    17     1     3   ar
    18     2     4   ar
    19     6     8    2
    20    10    11   ar
    21    12    13   ar
    22    14    15   ar
    23     7     9    1
@<TRIPOS>MOLECULE
MolPort-001-943-897 2304980 CSSS00161035153 ChemDiv-8010-2152 MCULE-5016758089 PubChem-1923393 ZINC000002304980 ZINC02304980
 22 23 0 0 0
SMALL
GASTEIGER

@<TRIPOS>ATOM
      1 C          11.1339   41.5838    6.5285 C.ar    1  UNL1        0.1123
      2 C           8.8337   41.6639    7.1724 C.ar    1  UNL1        0.1880
      3 N          10.2858   41.4854    5.4804 N.ar    1  UNL1       -0.1440
      4 N           9.0039   41.5316    5.8382 N.ar    1  UNL1       -0.1256
      5 S          10.3041   41.7298    7.9869 S.2     1  UNL1       -0.0347
      6 C           7.3560   42.0592    9.2021 C.2     1  UNL1        0.2509
      7 N           7.5602   41.7373    7.8199 N.am    1  UNL1       -0.2592
      8 O           8.3401   42.3057    9.9517 O.2     1  UNL1       -0.2698
      9 H           6.7620   41.5524    7.2741 H       1  UNL1        0.1571
     10 C           5.9886   42.1024    9.7499 C.ar    1  UNL1        0.0539
     11 C           5.6652   41.3833   10.9105 C.ar    1  UNL1        0.0068
     12 C           4.3678   41.4249   11.4295 C.ar    1  UNL1        0.0298
     13 C           3.3844   42.1860   10.7920 C.ar    1  UNL1        0.1401
     14 C           3.6978   42.9053    9.6357 C.ar    1  UNL1        0.0298
     15 C           4.9952   42.8636    9.1166 C.ar    1  UNL1        0.0068
     16 F           2.1274   42.2262   11.2948 F       1  UNL1       -0.2042
     17 C          12.6162   41.5460    6.4016 C.3     1  UNL1        0.0545
     18 C          13.1966   42.9257    6.6518 C.3     1  UNL1        0.0069
     19 C          14.7141   42.8671    6.6183 C.3     1  UNL1        0.0004
     20 C          15.2979   44.0062    5.7928 C.3     1  UNL1        0.0000
     21 C          16.8746   43.9555    7.7177 C.3     1  UNL1        0.0000
     22 C          16.6836   44.3961    6.2798 C.3     1  UNL1        0.0000
@<TRIPOS>BOND
     1    21    22    1
     2    22    20    1
     3    20    19    1
     4    19    18    1
     5    18    17    1
     6    17     1    1
     7     1     5   ar
     8     2     7    1
     9     2     5   ar
    10     6    10    1
    11    11    12   ar
    12    13    16    1
    13    13    14   ar
    14    15    10   ar
    15     3     4   ar
    16     7     6   am
    17     1     3   ar
    18     2     4   ar
    19     6     8    2
    20    10    11   ar
    21    12    13   ar
    22    14    15   ar
    23     7     9    1
@<TRIPOS>MOLECULE
MolPort-001-943-897 2304980 CSSS00161035153 ChemDiv-8010-2152 MCULE-5016758089 PubChem-1923393 ZINC000002304980 ZINC02304980
 22 23 0 0 0
SMALL
GASTEIGER

@<TRIPOS>ATOM
      1 C          17.5426   36.4901    9.3963 C.ar    1  UNL1        0.1123
      2 C          18.2076   35.2142    7.4879 C.ar    1  UNL1        0.1880
      3 N          18.5508   35.6287    9.6589 N.ar    1  UNL1       -0.1440
      4 N          18.9230   34.9186    8.5957 N.ar    1  UNL1       -0.1256
      5 S          17.0517   36.3992    7.7876 S.2     1  UNL1       -0.0347
      6 C          17.8506   33.3345    5.8149 C.2     1  UNL1        0.2509
      7 N          18.4032   34.5965    6.2125 N.am    1  UNL1       -0.2592
      8 O          17.1286   32.6750    6.6116 O.2     1  UNL1       -0.2698
      9 H          18.9604   35.0749    5.5569 H       1  UNL1        0.1571
     10 C          18.1277   32.8053    4.4677 C.ar    1  UNL1        0.0539
     11 C          17.2069   31.9571    3.8344 C.ar    1  UNL1        0.0068
     12 C          17.4706   31.4556    2.5564 C.ar    1  UNL1        0.0298
     13 C          18.6569   31.7987    1.9023 C.ar    1  UNL1        0.1401
     14 C          19.5795   32.6429    2.5257 C.ar    1  UNL1        0.0298
     15 C          19.3158   33.1443    3.8038 C.ar    1  UNL1        0.0068
     16 F          18.9125   31.3128    0.6642 F       1  UNL1       -0.2042
     17 C          16.9340   37.3891   10.4142 C.3     1  UNL1        0.0545
     18 C          16.9541   38.8244    9.9215 C.3     1  UNL1        0.0069
     19 C          15.5357   39.3155    9.6882 C.3     1  UNL1        0.0004
     20 C          14.5079   38.2896   10.1477 C.3     1  UNL1        0.0000
     21 C          13.3311   39.4269   12.0227 C.3     1  UNL1        0.0000
     22 C          14.3118   38.3312   11.6541 C.3     1  UNL1        0.0000
@<TRIPOS>BOND
     1    21    22    1
     2    22    20    1
     3    20    19    1
     4    19    18    1
     5    18    17    1
     6    17     1    1
     7     1     5   ar
     8     2     7    1
     9     2     5   ar
    10     6    10    1
    11    11    12   ar
    12    13    16    1
    13    13    14   ar
    14    15    10   ar
    15     3     4   ar
    16     7     6   am
    17     1     3   ar
    18     2     4   ar
    19     6     8    2
    20    10    11   ar
    21    12    13   ar
    22    14    15   ar
    23     7     9    1
@<TRIPOS>MOLECULE
MolPort-001-943-897 2304980 CSSS00161035153 ChemDiv-8010-2152 MCULE-5016758089 PubChem-1923393 ZINC000002304980 ZINC02304980
 22 23 0 0 0
SMALL
GASTEIGER

@<TRIPOS>ATOM
      1 C          12.3001   40.8321    9.7813 C.ar    1  UNL1        0.1123
      2 C           9.9744   41.3480    9.9741 C.ar    1  UNL1        0.1880
      3 N          11.9125   41.8449    8.9742 N.ar    1  UNL1       -0.1440
      4 N          10.6171   42.1341    9.0822 N.ar    1  UNL1       -0.1256
      5 S          11.0120   40.2307   10.6847 S.2     1  UNL1       -0.0347
      6 C           7.5844   42.0050    9.4119 C.2     1  UNL1        0.2509
      7 N           8.5804   41.4474   10.2796 N.am    1  UNL1       -0.2592
      8 O           7.9064   42.4577    8.2794 O.2     1  UNL1       -0.2698
      9 H           8.2817   41.1066   11.1536 H       1  UNL1        0.1571
     10 C           6.1767   42.0492    9.8456 C.ar    1  UNL1        0.0539
     11 C           5.7751   41.3986   11.0221 C.ar    1  UNL1        0.0068
     12 C           4.4394   41.4412   11.4328 C.ar    1  UNL1        0.0298
     13 C           3.4958   42.1347   10.6703 C.ar    1  UNL1        0.1401
     14 C           3.8871   42.7854    9.4973 C.ar    1  UNL1        0.0298
     15 C           5.2228   42.7427    9.0865 C.ar    1  UNL1        0.0068
     16 F           2.2018   42.1759   11.0682 F       1  UNL1       -0.2042
     17 C          13.6910   40.3066    9.8423 C.3     1  UNL1        0.0545
     18 C          13.7767   38.9724    9.1242 C.3     1  UNL1        0.0069
     19 C          14.5357   37.9695    9.9759 C.3     1  UNL1        0.0004
     20 C          13.6707   37.4327   11.1089 C.3     1  UNL1        0.0000
     21 C          13.1476   35.2935    9.9495 C.3     1  UNL1        0.0000
     22 C          12.5596   36.5368   10.5873 C.3     1  UNL1        0.0000
@<TRIPOS>BOND
     1    21    22    1
     2    22    20    1
     3    20    19    1
     4    19    18    1
     5    18    17    1
     6    17     1    1
     7     1     5   ar
     8     2     7    1
     9     2     5   ar
    10     6    10    1
    11    11    12   ar
    12    13    16    1
    13    13    14   ar
    14    15    10   ar
    15     3     4   ar
    16     7     6   am
    17     1     3   ar
    18     2     4   ar
    19     6     8    2
    20    10    11   ar
    21    12    13   ar
    22    14    15   ar
    23     7     9    1
@<TRIPOS>MOLECULE
MolPort-001-943-897 2304980 CSSS00161035153 ChemDiv-8010-2152 MCULE-5016758089 PubChem-1923393 ZINC000002304980 ZINC02304980
 22 23 0 0 0
SMALL
GASTEIGER

@<TRIPOS>ATOM
      1 C           8.5235   41.6399    9.3674 C.ar    1  UNL1        0.1123
      2 C          10.7817   41.9055    8.6312 C.ar    1  UNL1        0.1880
      3 N           8.9527   40.6185    8.5929 N.ar    1  UNL1       -0.1440
      4 N          10.2114   40.7649    8.1837 N.ar    1  UNL1       -0.1256
      5 S           9.7212   42.8054    9.5775 S.2     1  UNL1       -0.0347
      6 C          12.7205   42.2928    7.0341 C.2     1  UNL1        0.2509
      7 N          12.1233   42.3059    8.3376 N.am    1  UNL1       -0.2592
      8 O          12.0573   41.9077    6.0326 O.2     1  UNL1       -0.2698
      9 H          12.6798   42.6143    9.0889 H       1  UNL1        0.1571
     10 C          14.1169   42.7317    6.8637 C.ar    1  UNL1        0.0539
     11 C          14.4583   43.6360    5.8467 C.ar    1  UNL1        0.0068
     12 C          15.7833   44.0519    5.6858 C.ar    1  UNL1        0.0298
     13 C          16.7765   43.5667    6.5407 C.ar    1  UNL1        0.1401
     14 C          16.4453   42.6658    7.5562 C.ar    1  UNL1        0.0298
     15 C          15.1204   42.2498    7.7170 C.ar    1  UNL1        0.0068
     16 F          18.0602   43.9695    6.3848 F       1  UNL1       -0.2042
     17 C           7.1534   41.7255    9.9420 C.3     1  UNL1        0.0545
     18 C           6.1255   41.3151    8.9036 C.3     1  UNL1        0.0069
     19 C           4.9043   42.2138    8.9951 C.3     1  UNL1        0.0004
     20 C           3.6736   41.4379    9.4460 C.3     1  UNL1        0.0000
     21 C           3.9664   40.1621   11.5627 C.3     1  UNL1        0.0000
     22 C           3.5120   41.4752   10.9565 C.3     1  UNL1        0.0000
@<TRIPOS>BOND
     1    21    22    1
     2    22    20    1
     3    20    19    1
     4    19    18    1
     5    18    17    1
     6    17     1    1
     7     1     5   ar
     8     2     7    1
     9     2     5   ar
    10     6    10    1
    11    11    12   ar
    12    13    16    1
    13    13    14   ar
    14    15    10   ar
    15     3     4   ar
    16     7     6   am
    17     1     3   ar
    18     2     4   ar
    19     6     8    2
    20    10    11   ar
    21    12    13   ar
    22    14    15   ar
    23     7     9    1
@<TRIPOS>MOLECULE
MolPort-001-943-897 2304980 CSSS00161035153 ChemDiv-8010-2152 MCULE-5016758089 PubChem-1923393 ZINC000002304980 ZINC02304980
 22 23 0 0 0
SMALL
GASTEIGER

@<TRIPOS>ATOM
      1 C           8.7428   43.6019    9.1736 C.ar    1  UNL1        0.1123
      2 C           9.2894   41.5516    8.0736 C.ar    1  UNL1        0.1880
      3 N           9.3851   42.7239    9.9762 N.ar    1  UNL1       -0.1440
      4 N           9.6915   41.5819    9.3636 N.ar    1  UNL1       -0.1256
      5 S           8.5154   42.9767    7.6262 S.2     1  UNL1       -0.0347
      6 C           9.7823   40.5489    5.7908 C.2     1  UNL1        0.2509
      7 N           9.4923   40.4442    7.1911 N.am    1  UNL1       -0.2592
      8 O           9.8772   41.6807    5.2421 O.2     1  UNL1       -0.2698
      9 H           9.4277   39.5399    7.5750 H       1  UNL1        0.1571
     10 C           9.9706   39.3273    4.9884 C.ar    1  UNL1        0.0539
     11 C          10.9690   39.2706    4.0043 C.ar    1  UNL1        0.0068
     12 C          11.1470   38.1113    3.2435 C.ar    1  UNL1        0.0298
     13 C          10.3280   37.0001    3.4614 C.ar    1  UNL1        0.1401
     14 C           9.3312   37.0479    4.4396 C.ar    1  UNL1        0.0298
     15 C           9.1532   38.2074    5.2002 C.ar    1  UNL1        0.0068
     16 F          10.5003   35.8770    2.7244 F       1  UNL1       -0.2042
     17 C           8.2794   44.9447    9.6172 C.3     1  UNL1        0.0545
     18 C           6.8962   45.2293    9.0613 C.3     1  UNL1        0.0069
     19 C           6.3329   43.9827    8.4010 C.3     1  UNL1        0.0004
     20 C           5.1733   43.4036    9.2010 C.3     1  UNL1        0.0000
     21 C           4.0346   44.8604    7.5352 C.3     1  UNL1        0.0000
     22 C           3.8433   43.9959    8.7658 C.3     1  UNL1        0.0000
@<TRIPOS>BOND
     1    21    22    1
     2    22    20    1
     3    20    19    1
     4    19    18    1
     5    18    17    1
     6    17     1    1
     7     1     5   ar
     8     2     7    1
     9     2     5   ar
    10     6    10    1
    11    11    12   ar
    12    13    16    1
    13    13    14   ar
    14    15    10   ar
    15     3     4   ar
    16     7     6   am
    17     1     3   ar
    18     2     4   ar
    19     6     8    2
    20    10    11   ar
    21    12    13   ar
    22    14    15   ar
    23     7     9    1
@<TRIPOS>MOLECULE
MolPort-001-943-897 2304980 CSSS00161035153 ChemDiv-8010-2152 MCULE-5016758089 PubChem-1923393 ZINC000002304980 ZINC02304980
 22 23 0 0 0
SMALL
GASTEIGER

@<TRIPOS>ATOM
      1 C           8.0273   40.8951    6.0049 C.ar    1  UNL1        0.1123
      2 C          10.2819   41.6424    5.7394 C.ar    1  UNL1        0.1880
      3 N           8.6598   40.3133    4.9613 N.ar    1  UNL1       -0.1440
      4 N           9.9166   40.7280    4.8137 N.ar    1  UNL1       -0.1256
      5 S           9.0286   41.9857    6.8079 S.2     1  UNL1       -0.0347
      6 C          12.6631   41.7849    6.6163 C.2     1  UNL1        0.2509
      7 N          11.5751   42.2502    5.8066 N.am    1  UNL1       -0.2592
      8 O          12.5247   40.7651    7.3456 O.2     1  UNL1       -0.2698
      9 H          11.7301   43.0501    5.2540 H       1  UNL1        0.1571
     10 C          13.9502   42.5024    6.5963 C.ar    1  UNL1        0.0539
     11 C          14.1701   43.5416    5.6796 C.ar    1  UNL1        0.0068
     12 C          15.3914   44.2217    5.6614 C.ar    1  UNL1        0.0298
     13 C          16.4016   43.8677    6.5596 C.ar    1  UNL1        0.1401
     14 C          16.1911   42.8339    7.4760 C.ar    1  UNL1        0.0298
     15 C          14.9698   42.1538    7.4941 C.ar    1  UNL1        0.0068
     16 F          17.5849   44.5265    6.5419 F       1  UNL1       -0.2042
     17 C           6.6140   40.6154    6.3779 C.3     1  UNL1        0.0545
     18 C           6.1507   41.5962    7.4394 C.3     1  UNL1        0.0069
     19 C           6.4043   41.0247    8.8238 C.3     1  UNL1        0.0004
     20 C           6.0743   42.0365    9.9134 C.3     1  UNL1        0.0000
     21 C           7.5526   41.5558   11.8570 C.3     1  UNL1        0.0000
     22 C           6.1512   41.4126   11.2970 C.3     1  UNL1        0.0000
@<TRIPOS>BOND
     1    21    22    1
     2    22    20    1
     3    20    19    1
     4    19    18    1
     5    18    17    1
     6    17     1    1
     7     1     5   ar
     8     2     7    1
     9     2     5   ar
    10     6    10    1
    11    11    12   ar
    12    13    16    1
    13    13    14   ar
    14    15    10   ar
    15     3     4   ar
    16     7     6   am
    17     1     3   ar
    18     2     4   ar
    19     6     8    2
    20    10    11   ar
    21    12    13   ar
    22    14    15   ar
    23     7     9    1
@<TRIPOS>MOLECULE
MolPort-001-943-897 2304980 CSSS00161035153 ChemDiv-8010-2152 MCULE-5016758089 PubChem-1923393 ZINC000002304980 ZINC02304980
 22 23 0 0 0
SMALL
GASTEIGER

@<TRIPOS>ATOM
      1 C           7.8940   40.8822    6.1785 C.ar    1  UNL1        0.1123
      2 C          10.1408   41.5772    5.7528 C.ar    1  UNL1        0.1880
      3 N           8.4356   40.2900    5.0906 N.ar    1  UNL1       -0.1440
      4 N           9.6880   40.6754    4.8537 N.ar    1  UNL1       -0.1256
      5 S           8.9763   41.9456    6.9097 S.2     1  UNL1       -0.0347
      6 C          12.4693   41.9261    6.7100 C.2     1  UNL1        0.2509
      7 N          11.4496   42.1540    5.7280 N.am    1  UNL1       -0.2592
      8 O          12.2495   41.1672    7.6932 O.2     1  UNL1       -0.2698
      9 H          11.6672   42.7541    4.9784 H       1  UNL1        0.1571
     10 C          13.7813   42.5823    6.5696 C.ar    1  UNL1        0.0539
     11 C          14.8537   42.2098    7.3940 C.ar    1  UNL1        0.0068
     12 C          16.0981   42.8327    7.2600 C.ar    1  UNL1        0.0298
     13 C          16.2792   43.8326    6.3007 C.ar    1  UNL1        0.1401
     14 C          15.2165   44.2097    5.4754 C.ar    1  UNL1        0.0298
     15 C          13.9721   43.5868    5.6094 C.ar    1  UNL1        0.0068
     16 F          17.4847   44.4361    6.1709 F       1  UNL1       -0.2042
     17 C           6.5051   40.6345    6.6519 C.3     1  UNL1        0.0545
     18 C           6.3964   40.9416    8.1341 C.3     1  UNL1        0.0069
     19 C           5.9836   42.3891    8.3380 C.3     1  UNL1        0.0004
     20 C           4.6880   42.4927    9.1320 C.3     1  UNL1        0.0000
     21 C           4.7018   44.5856    7.7853 C.3     1  UNL1        0.0000
     22 C           3.9187   43.7561    8.7838 C.3     1  UNL1        0.0000
@<TRIPOS>BOND
     1    21    22    1
     2    22    20    1
     3    20    19    1
     4    19    18    1
     5    18    17    1
     6    17     1    1
     7     1     5   ar
     8     2     7    1
     9     2     5   ar
    10     6    10    1
    11    11    12   ar
    12    13    16    1
    13    13    14   ar
    14    15    10   ar
    15     3     4   ar
    16     7     6   am
    17     1     3   ar
    18     2     4   ar
    19     6     8    2
    20    10    11   ar
    21    12    13   ar
    22    14    15   ar
    23     7     9    1
@<TRIPOS>MOLECULE
MolPort-001-943-897 2304980 CSSS00161035153 ChemDiv-8010-2152 MCULE-5016758089 PubChem-1923393 ZINC000002304980 ZINC02304980
 22 23 0 0 0
SMALL
GASTEIGER

@<TRIPOS>ATOM
      1 C          11.9671   40.8968    8.7388 C.ar    1  UNL1        0.1123
      2 C           9.5968   40.9337    9.0432 C.ar    1  UNL1        0.1880
      3 N          11.2849   40.4978    7.6420 N.ar    1  UNL1       -0.1440
      4 N           9.9641   40.5197    7.8102 N.ar    1  UNL1       -0.1256
      5 S          10.9293   41.2989   10.0030 S.2     1  UNL1       -0.0347
      6 C           7.3862   42.1723    9.2400 C.2     1  UNL1        0.2509
      7 N           8.2411   41.0477    9.4854 N.am    1  UNL1       -0.2592
      8 O           7.8105   43.1659    8.5891 O.2     1  UNL1       -0.2698
      9 H           7.8660   40.2955    9.9981 H       1  UNL1        0.1571
     10 C           6.0040   42.1670    9.7512 C.ar    1  UNL1        0.0539
     11 C           5.7002   41.5443   10.9713 C.ar    1  UNL1        0.0068
     12 C           4.3887   41.5399   11.4555 C.ar    1  UNL1        0.0298
     13 C           3.3716   42.1582   10.7234 C.ar    1  UNL1        0.1401
     14 C           3.6654   42.7808    9.5074 C.ar    1  UNL1        0.0298
     15 C           4.9768   42.7851    9.0231 C.ar    1  UNL1        0.0068
     16 F           2.1010   42.1539   11.1925 F       1  UNL1       -0.2042
     17 C          13.4522   40.9511    8.8170 C.3     1  UNL1        0.0545
     18 C          14.0182   41.5844    7.5593 C.3     1  UNL1        0.0069
     19 C          15.4151   42.1175    7.8270 C.3     1  UNL1        0.0004
     20 C          15.7365   43.3108    6.9368 C.3     1  UNL1        0.0000
     21 C          17.6854   43.3136    8.4845 C.3     1  UNL1        0.0000
     22 C          16.8770   44.1397    7.5036 C.3     1  UNL1        0.0000
@<TRIPOS>BOND
     1    21    22    1
     2    22    20    1
     3    20    19    1
     4    19    18    1
     5    18    17    1
     6    17     1    1
     7     1     5   ar
     8     2     7    1
     9     2     5   ar
    10     6    10    1
    11    11    12   ar
    12    13    16    1
    13    13    14   ar
    14    15    10   ar
    15     3     4   ar
    16     7     6   am
    17     1     3   ar
    18     2     4   ar
    19     6     8    2
    20    10    11   ar
    21    12    13   ar
    22    14    15   ar
    23     7     9    1
