@<TRIPOS>MOLECULE
MolPort-020-275-093 MCULE-9391947668 PubChem-110252777
 24 26 0 0 0
SMALL
GASTEIGER

@<TRIPOS>ATOM
      1 C           8.3760   40.7427    8.0034 C.3     1  UNL1        0.0521
      2 C           9.8430   40.6632    7.7814 C.ar    1  UNL1        0.0602
      3 C          10.4640   41.5502    6.9007 C.ar    1  UNL1        0.0294
      4 C          11.8476   41.4691    6.6968 C.ar    1  UNL1        0.0528
      5 C          12.5800   40.4972    7.3829 C.ar    1  UNL1        0.0294
      6 C          11.9262   39.6250    8.2572 C.ar    1  UNL1        0.0611
      7 N          10.5794   39.7268    8.4364 N.ar    1  UNL1       -0.2538
      8 C          12.7153   38.5900    8.9882 C.3     1  UNL1        0.0602
      9 C          11.8083   37.4516    9.4601 C.3     1  UNL1        0.0094
     10 C          12.6232   36.3957   10.2041 C.3     1  UNL1        0.0219
     11 C          13.3384   37.0314   11.3924 C.3     1  UNL1        0.0934
     12 C          13.4544   39.2147   10.1716 C.3     1  UNL1        0.0992
     13 C          15.5399   38.2342   11.1996 C.2     1  UNL1        0.2261
     14 C          16.3590   39.3840   10.7183 C.3     1  UNL1        0.0948
     15 N          14.1320   38.1673   10.9311 N.am    1  UNL1       -0.2791
     16 O          16.1061   37.3155   11.8499 O.2     1  UNL1       -0.2749
     17 N          12.5415   42.3528    5.8047 N.pl3   1  UNL1       -0.2825
     18 H          12.1516   42.4608    4.9072 H       1  UNL1        0.1551
     19 C          13.7383   43.0969    6.0710 C.ar    1  UNL1        0.2207
     20 C          15.0502   45.0540    5.8329 C.ar    1  UNL1        0.1034
     21 C          16.0577   44.4875    6.6110 C.ar    1  UNL1        0.0414
     22 C          15.8629   43.2006    7.1089 C.ar    1  UNL1        0.1034
     23 N          13.9147   44.3535    5.5777 N.ar    1  UNL1       -0.2120
     24 N          14.7131   42.5318    6.8316 N.ar    1  UNL1       -0.2120
@<TRIPOS>BOND
     1     1     2    1
     2     2     7   ar
     3     3     4   ar
     4     4    17    1
     5     5     6   ar
     6     8     6    1
     7     8     9    1
     8     9    10    1
     9    10    11    1
    10    11    15    1
    11    12    15    1
    12    12     8    1
    13    14    13    1
    14    19    24   ar
    15    20    23   ar
    16    21    22   ar
    17    15    13   am
    18    17    19    1
    19     2     3   ar
    20     4     5   ar
    21     6     7   ar
    22    13    16    2
    23    19    23   ar
    24    20    21   ar
    25    22    24   ar
    26    17    18    1
@<TRIPOS>MOLECULE
MolPort-020-275-093 MCULE-9391947668 PubChem-110252777
 24 26 0 0 0
SMALL
GASTEIGER

@<TRIPOS>ATOM
      1 C          13.8395   38.8686   11.7545 C.3     1  UNL1        0.0521
      2 C          13.2311   39.8354   10.8044 C.ar    1  UNL1        0.0602
      3 C          13.9242   40.2113    9.6526 C.ar    1  UNL1        0.0294
      4 C          13.3439   41.1233    8.7615 C.ar    1  UNL1        0.0528
      5 C          12.0773   41.6395    9.0460 C.ar    1  UNL1        0.0294
      6 C          11.4114   41.2417   10.2083 C.ar    1  UNL1        0.0611
      7 N          11.9997   40.3530   11.0572 N.ar    1  UNL1       -0.2538
      8 C          10.0577   41.7962   10.5052 C.3     1  UNL1        0.0602
      9 C           9.5454   41.2807   11.8517 C.3     1  UNL1        0.0094
     10 C           8.1617   41.8546   12.1495 C.3     1  UNL1        0.0219
     11 C           7.1910   41.4796   11.0339 C.3     1  UNL1        0.0934
     12 C           9.0765   41.4456    9.3865 C.3     1  UNL1        0.0992
     13 C           6.9890   42.7712    8.8841 C.2     1  UNL1        0.2261
     14 C           7.5489   43.2228    7.5776 C.3     1  UNL1        0.0948
     15 N           7.7388   41.9063    9.7491 N.am    1  UNL1       -0.2791
     16 O           5.8398   43.1633    9.2202 O.2     1  UNL1       -0.2749
     17 N          14.0072   41.5470    7.5621 N.pl3   1  UNL1       -0.2825
     18 H          13.6443   41.1974    6.7163 H       1  UNL1        0.1551
     19 C          15.1386   42.4218    7.4543 C.ar    1  UNL1        0.2207
     20 C          16.1583   44.3862    6.6123 C.ar    1  UNL1        0.1034
     21 C          17.3411   44.0719    7.2782 C.ar    1  UNL1        0.0414
     22 C          17.3821   42.9025    8.0351 C.ar    1  UNL1        0.1034
     23 N          15.0838   43.5611    6.7110 N.ar    1  UNL1       -0.2120
     24 N          16.2863   42.1026    8.1093 N.ar    1  UNL1       -0.2120
@<TRIPOS>BOND
     1     1     2    1
     2     2     7   ar
     3     3     4   ar
     4     4    17    1
     5     5     6   ar
     6     8     6    1
     7     8     9    1
     8     9    10    1
     9    10    11    1
    10    11    15    1
    11    12    15    1
    12    12     8    1
    13    14    13    1
    14    19    24   ar
    15    20    23   ar
    16    21    22   ar
    17    15    13   am
    18    17    19    1
    19     2     3   ar
    20     4     5   ar
    21     6     7   ar
    22    13    16    2
    23    19    23   ar
    24    20    21   ar
    25    22    24   ar
    26    17    18    1
@<TRIPOS>MOLECULE
MolPort-020-275-093 MCULE-9391947668 PubChem-110252777
 24 26 0 0 0
SMALL
GASTEIGER

@<TRIPOS>ATOM
      1 C          10.7338   40.8859   11.4284 C.3     1  UNL1        0.0521
      2 C          10.3681   41.2832   10.0442 C.ar    1  UNL1        0.0602
      3 C          11.3436   41.3121    9.0464 C.ar    1  UNL1        0.0294
      4 C          10.9910   41.6876    7.7435 C.ar    1  UNL1        0.0528
      5 C           9.6638   42.0267    7.4696 C.ar    1  UNL1        0.0294
      6 C           8.7126   41.9871    8.4924 C.ar    1  UNL1        0.0611
      7 N           9.0836   41.6180    9.7504 N.ar    1  UNL1       -0.2538
      8 C           7.2959   42.3492    8.1921 C.3     1  UNL1        0.0602
      9 C           7.2210   43.7113    7.4989 C.3     1  UNL1        0.0094
     10 C           5.7691   44.0730    7.1924 C.3     1  UNL1        0.0219
     11 C           4.9528   44.0880    8.4812 C.3     1  UNL1        0.0934
     12 C           6.4590   42.3499    9.4714 C.3     1  UNL1        0.0992
     13 C           3.9576   42.0199    9.5123 C.2     1  UNL1        0.2261
     14 C           4.1079   40.7053   10.2007 C.3     1  UNL1        0.0948
     15 N           5.1059   42.8086    9.1685 N.am    1  UNL1       -0.2791
     16 O           2.7995   42.4309    9.2344 O.2     1  UNL1       -0.2749
     17 N          11.9490   41.7360    6.6767 N.pl3   1  UNL1       -0.2825
     18 H          11.7285   41.2183    5.8689 H       1  UNL1        0.1551
     19 C          13.1912   42.4525    6.6525 C.ar    1  UNL1        0.2207
     20 C          14.4879   44.3171    5.9820 C.ar    1  UNL1        0.1034
     21 C          15.6014   43.7924    6.6348 C.ar    1  UNL1        0.0414
     22 C          15.4655   42.5735    7.2964 C.ar    1  UNL1        0.1034
     23 N          13.3090   43.6426    6.0019 N.ar    1  UNL1       -0.2120
     24 N          14.2695   41.9287    7.2935 N.ar    1  UNL1       -0.2120
@<TRIPOS>BOND
     1     1     2    1
     2     2     7   ar
     3     3     4   ar
     4     4    17    1
     5     5     6   ar
     6     8     6    1
     7     8     9    1
     8     9    10    1
     9    10    11    1
    10    11    15    1
    11    12    15    1
    12    12     8    1
    13    14    13    1
    14    19    24   ar
    15    20    23   ar
    16    21    22   ar
    17    15    13   am
    18    17    19    1
    19     2     3   ar
    20     4     5   ar
    21     6     7   ar
    22    13    16    2
    23    19    23   ar
    24    20    21   ar
    25    22    24   ar
    26    17    18    1
@<TRIPOS>MOLECULE
MolPort-020-275-093 MCULE-9391947668 PubChem-110252777
 24 26 0 0 0
SMALL
GASTEIGER

@<TRIPOS>ATOM
      1 C          15.1567   44.8041    5.7520 C.3     1  UNL1        0.0521
      2 C          14.6418   43.5923    6.4407 C.ar    1  UNL1        0.0602
      3 C          15.4924   42.8338    7.2465 C.ar    1  UNL1        0.0294
      4 C          14.9994   41.6927    7.8927 C.ar    1  UNL1        0.0528
      5 C          13.6601   41.3368    7.7159 C.ar    1  UNL1        0.0294
      6 C          12.8363   42.1187    6.9020 C.ar    1  UNL1        0.0611
      7 N          13.3425   43.2235    6.2858 N.ar    1  UNL1       -0.2538
      8 C          11.4059   41.7332    6.7189 C.3     1  UNL1        0.0602
      9 C          10.6376   41.8638    8.0357 C.3     1  UNL1        0.0094
     10 C           9.1749   41.4707    7.8394 C.3     1  UNL1        0.0219
     11 C           9.0856   40.0417    7.3127 C.3     1  UNL1        0.0934
     12 C          11.2990   40.3094    6.1726 C.3     1  UNL1        0.0992
     13 C           9.3115   39.4485    4.8780 C.2     1  UNL1        0.2261
     14 C          10.1274   39.3347    3.6346 C.3     1  UNL1        0.0948
     15 N           9.8935   39.9185    6.1023 N.am    1  UNL1       -0.2791
     16 O           8.0947   39.1241    4.8375 O.2     1  UNL1       -0.2749
     17 N          15.8250   40.8740    8.7330 N.pl3   1  UNL1       -0.2825
     18 H          16.7888   40.8763    8.5326 H       1  UNL1        0.1551
     19 C          15.4066   40.0525    9.8317 C.ar    1  UNL1        0.2207
     20 C          15.8583   38.3937   11.4602 C.ar    1  UNL1        0.1034
     21 C          14.5548   38.4948   11.9419 C.ar    1  UNL1        0.0414
     22 C          13.6932   39.4030   11.3297 C.ar    1  UNL1        0.1034
     23 N          16.2597   39.1694   10.4199 N.ar    1  UNL1       -0.2120
     24 N          14.1319   40.1615   10.2913 N.ar    1  UNL1       -0.2120
@<TRIPOS>BOND
     1     1     2    1
     2     2     7   ar
     3     3     4   ar
     4     4    17    1
     5     5     6   ar
     6     8     6    1
     7     8     9    1
     8     9    10    1
     9    10    11    1
    10    11    15    1
    11    12    15    1
    12    12     8    1
    13    14    13    1
    14    19    24   ar
    15    20    23   ar
    16    21    22   ar
    17    15    13   am
    18    17    19    1
    19     2     3   ar
    20     4     5   ar
    21     6     7   ar
    22    13    16    2
    23    19    23   ar
    24    20    21   ar
    25    22    24   ar
    26    17    18    1
@<TRIPOS>MOLECULE
MolPort-020-275-093 MCULE-9391947668 PubChem-110252777
 24 26 0 0 0
SMALL
GASTEIGER

@<TRIPOS>ATOM
      1 C          10.9098   38.1744    9.1583 C.3     1  UNL1        0.0521
      2 C          12.1963   38.8997    9.3223 C.ar    1  UNL1        0.0602
      3 C          13.1614   38.4160   10.2071 C.ar    1  UNL1        0.0294
      4 C          14.3719   39.1053   10.3562 C.ar    1  UNL1        0.0528
      5 C          14.5882   40.2678    9.6123 C.ar    1  UNL1        0.0294
      6 C          13.6004   40.7240    8.7357 C.ar    1  UNL1        0.0611
      7 N          12.4325   40.0335    8.6105 N.ar    1  UNL1       -0.2538
      8 C          13.8390   41.9660    7.9427 C.3     1  UNL1        0.0602
      9 C          12.8999   42.0263    6.7362 C.3     1  UNL1        0.0094
     10 C          13.1481   43.3009    5.9321 C.3     1  UNL1        0.0219
     11 C          14.6027   43.3537    5.4752 C.3     1  UNL1        0.0934
     12 C          15.2981   42.0442    7.4932 C.3     1  UNL1        0.0992
     13 C          16.4775   44.2011    6.9237 C.2     1  UNL1        0.2261
     14 C          17.3678   44.0682    8.1129 C.3     1  UNL1        0.0948
     15 N          15.4813   43.2102    6.6329 N.am    1  UNL1       -0.2791
     16 O          16.6132   45.2035    6.1726 O.2     1  UNL1       -0.2749
     17 N          15.4012   38.6572   11.2495 N.pl3   1  UNL1       -0.2825
     18 H          15.1587   38.6035   12.2022 H       1  UNL1        0.1551
     19 C          16.7430   38.2787   10.9133 C.ar    1  UNL1        0.2207
     20 C          19.0363   38.8099   10.6554 C.ar    1  UNL1        0.1034
     21 C          19.3065   37.5024   10.2569 C.ar    1  UNL1        0.0414
     22 C          18.2481   36.5977   10.1986 C.ar    1  UNL1        0.1034
     23 N          17.7672   39.1736   10.9750 N.ar    1  UNL1       -0.2120
     24 N          16.9922   36.9997   10.5260 N.ar    1  UNL1       -0.2120
@<TRIPOS>BOND
     1     1     2    1
     2     2     7   ar
     3     3     4   ar
     4     4    17    1
     5     5     6   ar
     6     8     6    1
     7     8     9    1
     8     9    10    1
     9    10    11    1
    10    11    15    1
    11    12    15    1
    12    12     8    1
    13    14    13    1
    14    19    24   ar
    15    20    23   ar
    16    21    22   ar
    17    15    13   am
    18    17    19    1
    19     2     3   ar
    20     4     5   ar
    21     6     7   ar
    22    13    16    2
    23    19    23   ar
    24    20    21   ar
    25    22    24   ar
    26    17    18    1
@<TRIPOS>MOLECULE
MolPort-020-275-093 MCULE-9391947668 PubChem-110252777
 24 26 0 0 0
SMALL
GASTEIGER

@<TRIPOS>ATOM
      1 C          16.1626   43.4328    6.6307 C.3     1  UNL1        0.0521
      2 C          15.2433   42.4600    7.2760 C.ar    1  UNL1        0.0602
      3 C          15.6915   41.6785    8.3420 C.ar    1  UNL1        0.0294
      4 C          14.8188   40.7636    8.9453 C.ar    1  UNL1        0.0528
      5 C          13.5118   40.6527    8.4647 C.ar    1  UNL1        0.0294
      6 C          13.0960   41.4505    7.3955 C.ar    1  UNL1        0.0611
      7 N          13.9662   42.3320    6.8278 N.ar    1  UNL1       -0.2538
      8 C          11.6976   41.3278    6.8880 C.3     1  UNL1        0.0602
      9 C          10.6965   41.8155    7.9375 C.3     1  UNL1        0.0094
     10 C           9.2688   41.6896    7.4098 C.3     1  UNL1        0.0219
     11 C           8.9785   40.2400    7.0332 C.3     1  UNL1        0.0934
     12 C          11.3963   39.8835    6.4876 C.3     1  UNL1        0.0992
     13 C           9.6192   39.2313    4.8190 C.2     1  UNL1        0.2261
     14 C          10.6521   38.7623    3.8507 C.3     1  UNL1        0.0948
     15 N           9.9941   39.7687    6.0955 N.am    1  UNL1       -0.2791
     16 O           8.4038   39.1488    4.4977 O.2     1  UNL1       -0.2749
     17 N          15.2218   39.9337   10.0439 N.pl3   1  UNL1       -0.2825
     18 H          14.6566   39.9715   10.8492 H       1  UNL1        0.1551
     19 C          16.3539   39.0552   10.1032 C.ar    1  UNL1        0.2207
     20 C          17.3694   36.9616    9.6635 C.ar    1  UNL1        0.1034
     21 C          18.5580   37.4037   10.2407 C.ar    1  UNL1        0.0414
     22 C          18.6039   38.7014   10.7464 C.ar    1  UNL1        0.1034
     23 N          16.2942   37.7896    9.6048 N.ar    1  UNL1       -0.2120
     24 N          17.5071   39.4997   10.6692 N.ar    1  UNL1       -0.2120
@<TRIPOS>BOND
     1     1     2    1
     2     2     7   ar
     3     3     4   ar
     4     4    17    1
     5     5     6   ar
     6     8     6    1
     7     8     9    1
     8     9    10    1
     9    10    11    1
    10    11    15    1
    11    12    15    1
    12    12     8    1
    13    14    13    1
    14    19    24   ar
    15    20    23   ar
    16    21    22   ar
    17    15    13   am
    18    17    19    1
    19     2     3   ar
    20     4     5   ar
    21     6     7   ar
    22    13    16    2
    23    19    23   ar
    24    20    21   ar
    25    22    24   ar
    26    17    18    1
@<TRIPOS>MOLECULE
MolPort-020-275-093 MCULE-9391947668 PubChem-110252777
 24 26 0 0 0
SMALL
GASTEIGER

@<TRIPOS>ATOM
      1 C           9.9989   39.9255    4.1988 C.3     1  UNL1        0.0521
      2 C          10.4218   40.5939    5.4567 C.ar    1  UNL1        0.0602
      3 C          11.7793   40.7554    5.7381 C.ar    1  UNL1        0.0294
      4 C          12.1702   41.3867    6.9260 C.ar    1  UNL1        0.0528
      5 C          11.1879   41.8435    7.8081 C.ar    1  UNL1        0.0294
      6 C           9.8378   41.6651    7.4952 C.ar    1  UNL1        0.0611
      7 N           9.4863   41.0477    6.3325 N.ar    1  UNL1       -0.2538
      8 C           8.7935   42.1570    8.4416 C.3     1  UNL1        0.0602
      9 C           8.8024   41.3348    9.7320 C.3     1  UNL1        0.0094
     10 C           7.7336   41.8461   10.6959 C.3     1  UNL1        0.0219
     11 C           6.3606   41.7798   10.0342 C.3     1  UNL1        0.0934
     12 C           7.4127   42.1155    7.7868 C.3     1  UNL1        0.0992
     13 C           5.4767   43.5679    8.5005 C.2     1  UNL1        0.2261
     14 C           5.5193   44.3173    7.2117 C.3     1  UNL1        0.0948
     15 N           6.3979   42.4999    8.7642 N.am    1  UNL1       -0.2791
     16 O           4.6141   43.8886    9.3611 O.2     1  UNL1       -0.2749
     17 N          13.5494   41.5816    7.2696 N.pl3   1  UNL1       -0.2825
     18 H          13.9637   40.8814    7.8240 H       1  UNL1        0.1551
     19 C          14.3936   42.6798    6.8979 C.ar    1  UNL1        0.2207
     20 C          14.7504   44.7071    5.7272 C.ar    1  UNL1        0.1034
     21 C          16.0551   44.7712    6.2120 C.ar    1  UNL1        0.0414
     22 C          16.4982   43.7514    7.0520 C.ar    1  UNL1        0.1034
     23 N          13.9467   43.6691    6.0762 N.ar    1  UNL1       -0.2120
     24 N          15.6643   42.7295    7.3782 N.ar    1  UNL1       -0.2120
@<TRIPOS>BOND
     1     1     2    1
     2     2     7   ar
     3     3     4   ar
     4     4    17    1
     5     5     6   ar
     6     8     6    1
     7     8     9    1
     8     9    10    1
     9    10    11    1
    10    11    15    1
    11    12    15    1
    12    12     8    1
    13    14    13    1
    14    19    24   ar
    15    20    23   ar
    16    21    22   ar
    17    15    13   am
    18    17    19    1
    19     2     3   ar
    20     4     5   ar
    21     6     7   ar
    22    13    16    2
    23    19    23   ar
    24    20    21   ar
    25    22    24   ar
    26    17    18    1
@<TRIPOS>MOLECULE
MolPort-020-275-093 MCULE-9391947668 PubChem-110252777
 24 26 0 0 0
SMALL
GASTEIGER

@<TRIPOS>ATOM
      1 C           9.7204   40.7993    5.5122 C.3     1  UNL1        0.0521
      2 C          10.7323   40.9908    6.5832 C.ar    1  UNL1        0.0602
      3 C          10.6319   40.2700    7.7743 C.ar    1  UNL1        0.0294
      4 C          11.5900   40.4560    8.7793 C.ar    1  UNL1        0.0528
      5 C          12.6307   41.3633    8.5668 C.ar    1  UNL1        0.0294
      6 C          12.7009   42.0685    7.3626 C.ar    1  UNL1        0.0611
      7 N          11.7553   41.8676    6.4023 N.ar    1  UNL1       -0.2538
      8 C          13.8166   43.0353    7.1417 C.3     1  UNL1        0.0602
      9 C          13.6448   43.7638    5.8071 C.3     1  UNL1        0.0094
     10 C          14.7882   44.7530    5.5900 C.3     1  UNL1        0.0219
     11 C          16.1254   44.0195    5.6257 C.3     1  UNL1        0.0934
     12 C          15.1662   42.3191    7.1938 C.3     1  UNL1        0.0992
     13 C          17.3425   43.4653    7.7570 C.2     1  UNL1        0.2261
     14 C          17.4497   42.7078    9.0373 C.3     1  UNL1        0.0948
     15 N          16.2322   43.2637    6.8708 N.am    1  UNL1       -0.2791
     16 O          18.2472   44.2913    7.4627 O.2     1  UNL1       -0.2749
     17 N          11.5397   39.7442   10.0239 N.pl3   1  UNL1       -0.2825
     18 H          10.7096   39.8356   10.5452 H       1  UNL1        0.1551
     19 C          12.5605   38.9146   10.5955 C.ar    1  UNL1        0.2207
     20 C          13.5430   36.7871   10.9367 C.ar    1  UNL1        0.1034
     21 C          14.5450   37.3618   11.7158 C.ar    1  UNL1        0.0414
     22 C          14.5182   38.7409   11.9141 C.ar    1  UNL1        0.1034
     23 N          12.5738   37.5683   10.3931 N.ar    1  UNL1       -0.2120
     24 N          13.5319   39.4887   11.3536 N.ar    1  UNL1       -0.2120
@<TRIPOS>BOND
     1     1     2    1
     2     2     7   ar
     3     3     4   ar
     4     4    17    1
     5     5     6   ar
     6     8     6    1
     7     8     9    1
     8     9    10    1
     9    10    11    1
    10    11    15    1
    11    12    15    1
    12    12     8    1
    13    14    13    1
    14    19    24   ar
    15    20    23   ar
    16    21    22   ar
    17    15    13   am
    18    17    19    1
    19     2     3   ar
    20     4     5   ar
    21     6     7   ar
    22    13    16    2
    23    19    23   ar
    24    20    21   ar
    25    22    24   ar
    26    17    18    1
@<TRIPOS>MOLECULE
MolPort-020-275-093 MCULE-9391947668 PubChem-110252777
 24 26 0 0 0
SMALL
GASTEIGER

@<TRIPOS>ATOM
      1 C           9.2178   41.1382   14.0416 C.3     1  UNL1        0.0521
      2 C           9.2974   41.2836   12.5650 C.ar    1  UNL1        0.0602
      3 C          10.5347   41.2115   11.9230 C.ar    1  UNL1        0.0294
      4 C          10.6016   41.3493   10.5305 C.ar    1  UNL1        0.0528
      5 C           9.4225   41.5569    9.8105 C.ar    1  UNL1        0.0294
      6 C           8.2007   41.6240   10.4852 C.ar    1  UNL1        0.0611
      7 N           8.1652   41.4863   11.8403 N.ar    1  UNL1       -0.2538
      8 C           6.9446   41.8444    9.7094 C.3     1  UNL1        0.0602
      9 C           7.0138   43.1594    8.9302 C.3     1  UNL1        0.0094
     10 C           5.7267   43.3761    8.1370 C.3     1  UNL1        0.0219
     11 C           4.5279   43.3810    9.0805 C.3     1  UNL1        0.0934
     12 C           5.7306   41.8328   10.6384 C.3     1  UNL1        0.0992
     13 C           3.3874   41.2852    9.8788 C.2     1  UNL1        0.2261
     14 C           3.3874   40.0238   10.6748 C.3     1  UNL1        0.0948
     15 N           4.5286   42.1549    9.8738 N.am    1  UNL1       -0.2791
     16 O           2.3636   41.5782    9.2055 O.2     1  UNL1       -0.2749
     17 N          11.8434   41.2843    9.8151 N.pl3   1  UNL1       -0.2825
     18 H          11.9077   41.8360    9.0022 H       1  UNL1        0.1551
     19 C          13.0019   40.5075   10.1488 C.ar    1  UNL1        0.2207
     20 C          15.2078   39.7828    9.6829 C.ar    1  UNL1        0.1034
     21 C          15.2050   38.9965   10.8331 C.ar    1  UNL1        0.0414
     22 C          14.0606   38.9935   11.6282 C.ar    1  UNL1        0.1034
     23 N          14.1131   40.5204    9.3622 N.ar    1  UNL1       -0.2120
     24 N          12.9853   39.7448   11.2739 N.ar    1  UNL1       -0.2120
@<TRIPOS>BOND
     1     1     2    1
     2     2     7   ar
     3     3     4   ar
     4     4    17    1
     5     5     6   ar
     6     8     6    1
     7     8     9    1
     8     9    10    1
     9    10    11    1
    10    11    15    1
    11    12    15    1
    12    12     8    1
    13    14    13    1
    14    19    24   ar
    15    20    23   ar
    16    21    22   ar
    17    15    13   am
    18    17    19    1
    19     2     3   ar
    20     4     5   ar
    21     6     7   ar
    22    13    16    2
    23    19    23   ar
    24    20    21   ar
    25    22    24   ar
    26    17    18    1
@<TRIPOS>MOLECULE
MolPort-020-275-093 MCULE-9391947668 PubChem-110252777
 24 26 0 0 0
SMALL
GASTEIGER

@<TRIPOS>ATOM
      1 C          10.3300   41.0273   11.9907 C.3     1  UNL1        0.0521
      2 C          10.9792   40.8492   10.6660 C.ar    1  UNL1        0.0602
      3 C          12.3611   40.6709   10.5852 C.ar    1  UNL1        0.0294
      4 C          12.9659   40.5034    9.3326 C.ar    1  UNL1        0.0528
      5 C          12.1688   40.5186    8.1855 C.ar    1  UNL1        0.0294
      6 C          10.7882   40.6997    8.3027 C.ar    1  UNL1        0.0611
      7 N          10.2267   40.8599    9.5338 N.ar    1  UNL1       -0.2538
      8 C           9.9423   40.7132    7.0728 C.3     1  UNL1        0.0602
      9 C           8.4895   41.0460    7.4191 C.3     1  UNL1        0.0094
     10 C           7.6315   41.0609    6.1556 C.3     1  UNL1        0.0219
     11 C           7.7133   39.7085    5.4544 C.3     1  UNL1        0.0934
     12 C          10.0283   39.3705    6.3470 C.3     1  UNL1        0.0992
     13 C           9.5733   39.0757    3.8826 C.2     1  UNL1        0.2261
     14 C          11.0046   38.7463    3.6227 C.3     1  UNL1        0.0948
     15 N           9.1131   39.3721    5.2088 N.am    1  UNL1       -0.2791
     16 O           8.7681   39.0906    2.9136 O.2     1  UNL1       -0.2749
     17 N          14.3807   40.3160    9.1863 N.pl3   1  UNL1       -0.2825
     18 H          14.7443   39.4637    9.5188 H       1  UNL1        0.1551
     19 C          15.3259   41.2284    8.6108 C.ar    1  UNL1        0.2207
     20 C          15.8380   43.0366    7.1700 C.ar    1  UNL1        0.1034
     21 C          17.1812   42.9602    7.5323 C.ar    1  UNL1        0.0414
     22 C          17.5625   41.9863    8.4533 C.ar    1  UNL1        0.1034
     23 N          14.9387   42.1749    7.7120 N.ar    1  UNL1       -0.2120
     24 N          16.6332   41.1424    8.9733 N.ar    1  UNL1       -0.2120
@<TRIPOS>BOND
     1     1     2    1
     2     2     7   ar
     3     3     4   ar
     4     4    17    1
     5     5     6   ar
     6     8     6    1
     7     8     9    1
     8     9    10    1
     9    10    11    1
    10    11    15    1
    11    12    15    1
    12    12     8    1
    13    14    13    1
    14    19    24   ar
    15    20    23   ar
    16    21    22   ar
    17    15    13   am
    18    17    19    1
    19     2     3   ar
    20     4     5   ar
    21     6     7   ar
    22    13    16    2
    23    19    23   ar
    24    20    21   ar
    25    22    24   ar
    26    17    18    1
