@<TRIPOS>MOLECULE
Molport-046-988-330 MCULE-4942212263 PubChem-110130929
 25 27 0 0 0
SMALL
GASTEIGER

@<TRIPOS>ATOM
      1 C           5.8522   42.0997    8.8447 C.ar    1  UNL1        0.1076
      2 C           6.6505   43.2433    8.7327 C.ar    1  UNL1        0.1185
      3 C           7.9834   42.1621    7.1003 C.ar    1  UNL1        0.1136
      4 C           7.1922   41.0172    7.2099 C.ar    1  UNL1        0.0794
      5 N           7.6957   43.2490    7.8639 N.ar    1  UNL1       -0.2395
      6 N           6.1430   41.0158    8.0768 N.ar    1  UNL1       -0.2459
      7 C           7.4993   39.8161    6.3680 C.3     1  UNL1        0.0617
      8 C           7.8990   38.6010    7.2166 C.3     1  UNL1        0.0094
      9 C           9.3119   38.7404    7.7868 C.3     1  UNL1        0.0219
     10 C          10.3108   38.9826    6.6612 C.3     1  UNL1        0.0934
     11 C           8.5479   40.1181    5.2914 C.3     1  UNL1        0.0993
     12 C          10.7348   41.2861    5.7228 C.2     1  UNL1        0.2261
     13 C          12.0893   41.3287    6.3451 C.3     1  UNL1        0.0948
     14 O          10.3400   42.2814    5.0588 O.2     1  UNL1       -0.2749
     15 N           9.8861   40.1393    5.8786 N.am    1  UNL1       -0.2791
     16 C           3.1351   41.8791   11.6332 C.ar    1  UNL1        0.1656
     17 C           3.3877   42.2933    9.4356 C.ar    1  UNL1        0.1089
     18 C           4.7164   42.0569    9.7770 C.ar    1  UNL1        0.0703
     19 N           2.5160   42.1923   10.4750 N.ar    1  UNL1       -0.2223
     20 S           4.7990   41.7116   11.4245 S.2     1  UNL1       -0.0498
     21 C           0.5562   42.0481   14.5266 C.3     1  UNL1        0.0950
     22 C           1.1627   42.3232   13.1985 C.2     1  UNL1        0.2280
     23 O           0.5635   43.0815   12.3919 O.2     1  UNL1       -0.2747
     24 N           2.4169   41.7199   12.8628 N.am    1  UNL1       -0.2641
     25 H           2.8262   41.1385   13.5438 H       1  UNL1        0.1567
@<TRIPOS>BOND
     1    21    22    1
     2    22    24   am
     3    16    20   ar
     4    17    19   ar
     5    18    20   ar
     6    18     1    1
     7     1     6   ar
     8     2     5   ar
     9     3     4   ar
    10     7     4    1
    11     7     8    1
    12     8     9    1
    13     9    10    1
    14    10    15    1
    15    11    15    1
    16    11     7    1
    17    13    12    1
    18    24    16    1
    19    15    12   am
    20    22    23    2
    21    16    19   ar
    22    17    18   ar
    23     1     2   ar
    24     3     5   ar
    25     4     6   ar
    26    12    14    2
    27    24    25    1
@<TRIPOS>MOLECULE
Molport-046-988-330 MCULE-4942212263 PubChem-110130929
 25 27 0 0 0
SMALL
GASTEIGER

@<TRIPOS>ATOM
      1 C          10.0955   40.3252    6.7811 C.ar    1  UNL1        0.1076
      2 C           9.8215   39.2260    5.9600 C.ar    1  UNL1        0.1185
      3 C           7.5082   39.4524    6.4159 C.ar    1  UNL1        0.1136
      4 C           7.7757   40.5480    7.2387 C.ar    1  UNL1        0.0794
      5 N           8.5362   38.8157    5.7955 N.ar    1  UNL1       -0.2395
      6 N           9.0630   40.9601    7.3976 N.ar    1  UNL1       -0.2459
      7 C           6.6477   41.2591    7.9225 C.3     1  UNL1        0.0617
      8 C           6.2610   42.5585    7.2025 C.3     1  UNL1        0.0094
      9 C           7.2890   43.6682    7.4322 C.3     1  UNL1        0.0219
     10 C           7.4864   43.9001    8.9257 C.3     1  UNL1        0.0934
     11 C           6.9355   41.5048    9.4079 C.3     1  UNL1        0.0993
     12 C           9.0703   42.4956   10.2988 C.2     1  UNL1        0.2261
     13 C          10.0174   43.6388   10.4400 C.3     1  UNL1        0.0948
     14 O           9.3675   41.3919   10.8287 O.2     1  UNL1       -0.2749
     15 N           7.8437   42.6387    9.5677 N.am    1  UNL1       -0.2791
     16 C          13.6603   41.8868    7.0251 C.ar    1  UNL1        0.1656
     17 C          12.4050   40.2039    7.8355 C.ar    1  UNL1        0.1089
     18 C          11.4738   40.7937    6.9851 C.ar    1  UNL1        0.0703
     19 N          13.6179   40.8195    7.8507 N.ar    1  UNL1       -0.2223
     20 S          12.1912   42.1204    6.2331 S.2     1  UNL1       -0.0498
     21 C          16.2330   44.6581    6.1573 C.3     1  UNL1        0.0950
     22 C          14.9238   43.9584    6.2186 C.2     1  UNL1        0.2280
     23 O          13.9135   44.4926    5.6906 O.2     1  UNL1       -0.2747
     24 N          14.8377   42.6900    6.8771 N.am    1  UNL1       -0.2641
     25 H          15.6691   42.3348    7.2667 H       1  UNL1        0.1567
@<TRIPOS>BOND
     1    21    22    1
     2    22    24   am
     3    16    20   ar
     4    17    19   ar
     5    18    20   ar
     6    18     1    1
     7     1     6   ar
     8     2     5   ar
     9     3     4   ar
    10     7     4    1
    11     7     8    1
    12     8     9    1
    13     9    10    1
    14    10    15    1
    15    11    15    1
    16    11     7    1
    17    13    12    1
    18    24    16    1
    19    15    12   am
    20    22    23    2
    21    16    19   ar
    22    17    18   ar
    23     1     2   ar
    24     3     5   ar
    25     4     6   ar
    26    12    14    2
    27    24    25    1
@<TRIPOS>MOLECULE
Molport-046-988-330 MCULE-4942212263 PubChem-110130929
 25 27 0 0 0
SMALL
GASTEIGER

@<TRIPOS>ATOM
      1 C          13.5319   41.2919    7.7140 C.ar    1  UNL1        0.1076
      2 C          14.4546   42.2025    7.1879 C.ar    1  UNL1        0.1185
      3 C          16.0984   41.4257    8.7061 C.ar    1  UNL1        0.1136
      4 C          15.1812   40.5170    9.2370 C.ar    1  UNL1        0.0794
      5 N          15.7151   42.2482    7.6943 N.ar    1  UNL1       -0.2395
      6 N          13.9212   40.4696    8.7247 N.ar    1  UNL1       -0.2459
      7 C          15.5970   39.6029   10.3493 C.3     1  UNL1        0.0617
      8 C          16.3848   38.3890    9.8374 C.3     1  UNL1        0.0094
      9 C          15.4787   37.3686    9.1455 C.3     1  UNL1        0.0219
     10 C          14.3544   36.9439   10.0831 C.3     1  UNL1        0.0934
     11 C          14.4100   39.1752   11.2198 C.3     1  UNL1        0.0993
     12 C          12.2328   38.2889   10.3214 C.2     1  UNL1        0.2261
     13 C          11.4464   37.2401    9.6105 C.3     1  UNL1        0.0948
     14 O          11.6408   39.3286   10.7160 O.2     1  UNL1       -0.2749
     15 N          13.6406   38.1288   10.5496 N.am    1  UNL1       -0.2791
     16 C           9.7590   41.0560    6.7571 C.ar    1  UNL1        0.1656
     17 C          11.8066   41.2677    5.8477 C.ar    1  UNL1        0.1089
     18 C          12.1591   41.2181    7.1936 C.ar    1  UNL1        0.0703
     19 N          10.4694   41.1770    5.6154 N.ar    1  UNL1       -0.2223
     20 S          10.7573   41.0555    8.1149 S.2     1  UNL1       -0.0498
     21 C           6.0745   39.9766    6.1990 C.3     1  UNL1        0.0950
     22 C           7.5559   39.9415    6.0918 C.2     1  UNL1        0.2280
     23 O           8.1042   39.0307    5.4175 O.2     1  UNL1       -0.2747
     24 N           8.3304   40.9446    6.7580 N.am    1  UNL1       -0.2641
     25 H           7.8325   41.6247    7.2667 H       1  UNL1        0.1567
@<TRIPOS>BOND
     1    21    22    1
     2    22    24   am
     3    16    20   ar
     4    17    19   ar
     5    18    20   ar
     6    18     1    1
     7     1     6   ar
     8     2     5   ar
     9     3     4   ar
    10     7     4    1
    11     7     8    1
    12     8     9    1
    13     9    10    1
    14    10    15    1
    15    11    15    1
    16    11     7    1
    17    13    12    1
    18    24    16    1
    19    15    12   am
    20    22    23    2
    21    16    19   ar
    22    17    18   ar
    23     1     2   ar
    24     3     5   ar
    25     4     6   ar
    26    12    14    2
    27    24    25    1
@<TRIPOS>MOLECULE
Molport-046-988-330 MCULE-4942212263 PubChem-110130929
 25 27 0 0 0
SMALL
GASTEIGER

@<TRIPOS>ATOM
      1 C           6.6250   42.1885    8.3137 C.ar    1  UNL1        0.1076
      2 C           6.4897   42.6162    6.9884 C.ar    1  UNL1        0.1185
      3 C           8.7069   41.9208    6.5296 C.ar    1  UNL1        0.1136
      4 C           8.8488   41.4949    7.8515 C.ar    1  UNL1        0.0794
      5 N           7.5315   42.4721    6.1276 N.ar    1  UNL1       -0.2395
      6 N           7.8024   41.6355    8.7102 N.ar    1  UNL1       -0.2459
      7 C          10.1397   40.8813    8.3018 C.3     1  UNL1        0.0617
      8 C          11.3430   41.7918    8.0204 C.3     1  UNL1        0.0094
      9 C          11.7076   41.8163    6.5347 C.3     1  UNL1        0.0219
     10 C          11.9558   40.3990    6.0315 C.3     1  UNL1        0.0934
     11 C          10.3479   39.4795    7.7175 C.3     1  UNL1        0.0993
     12 C          10.0714   38.8962    5.2852 C.2     1  UNL1        0.2261
     13 C          10.4987   39.0089    3.8609 C.3     1  UNL1        0.0948
     14 O           9.0576   38.2013    5.5618 O.2     1  UNL1       -0.2749
     15 N          10.7914   39.5700    6.3279 N.am    1  UNL1       -0.2791
     16 C           3.9198   42.2898   11.1205 C.ar    1  UNL1        0.1656
     17 C           4.3837   43.1122    9.0776 C.ar    1  UNL1        0.1089
     18 C           5.5205   42.3328    9.2730 C.ar    1  UNL1        0.0703
     19 N           3.4996   43.0817   10.1110 N.ar    1  UNL1       -0.2223
     20 S           5.4129   41.5862   10.7801 S.2     1  UNL1       -0.0498
     21 C           1.0868   41.9314   13.7467 C.3     1  UNL1        0.0950
     22 C           1.7233   42.1462   12.4215 C.2     1  UNL1        0.2280
     23 O           0.9971   42.3609   11.4159 O.2     1  UNL1       -0.2747
     24 N           3.1504   42.1045   12.3150 N.am    1  UNL1       -0.2641
     25 H           3.6525   41.9314   13.1440 H       1  UNL1        0.1567
@<TRIPOS>BOND
     1    21    22    1
     2    22    24   am
     3    16    20   ar
     4    17    19   ar
     5    18    20   ar
     6    18     1    1
     7     1     6   ar
     8     2     5   ar
     9     3     4   ar
    10     7     4    1
    11     7     8    1
    12     8     9    1
    13     9    10    1
    14    10    15    1
    15    11    15    1
    16    11     7    1
    17    13    12    1
    18    24    16    1
    19    15    12   am
    20    22    23    2
    21    16    19   ar
    22    17    18   ar
    23     1     2   ar
    24     3     5   ar
    25     4     6   ar
    26    12    14    2
    27    24    25    1
@<TRIPOS>MOLECULE
Molport-046-988-330 MCULE-4942212263 PubChem-110130929
 25 27 0 0 0
SMALL
GASTEIGER

@<TRIPOS>ATOM
      1 C          12.8247   40.8870    7.7839 C.ar    1  UNL1        0.1076
      2 C          12.7555   41.8250    6.7481 C.ar    1  UNL1        0.1185
      3 C          10.4262   41.4445    6.5489 C.ar    1  UNL1        0.1136
      4 C          10.4896   40.5054    7.5799 C.ar    1  UNL1        0.0794
      5 N          11.5598   42.0828    6.1556 N.ar    1  UNL1       -0.2395
      6 N          11.6871   40.2529    8.1750 N.ar    1  UNL1       -0.2459
      7 C           9.2435   39.8007    8.0232 C.3     1  UNL1        0.0617
      8 C           8.6509   38.9198    6.9146 C.3     1  UNL1        0.0094
      9 C           7.9657   39.7505    5.8277 C.3     1  UNL1        0.0219
     10 C           6.9033   40.6513    6.4469 C.3     1  UNL1        0.0934
     11 C           8.1999   40.7719    8.5865 C.3     1  UNL1        0.0993
     12 C           7.4725   42.8958    7.4494 C.2     1  UNL1        0.2261
     13 C           6.7977   43.6079    6.3262 C.3     1  UNL1        0.0948
     14 O           8.0193   43.5757    8.3582 O.2     1  UNL1       -0.2749
     15 N           7.5099   41.4619    7.4985 N.am    1  UNL1       -0.2791
     16 C          16.0156   39.7036    9.6876 C.ar    1  UNL1        0.1656
     17 C          15.2410   41.3790    8.4001 C.ar    1  UNL1        0.1089
     18 C          14.1017   40.5802    8.4442 C.ar    1  UNL1        0.0703
     19 N          16.3001   40.8827    9.0946 N.ar    1  UNL1       -0.2223
     20 S          14.4318   39.2172    9.3789 S.2     1  UNL1       -0.0498
     21 C          18.6046   37.1618   11.0616 C.3     1  UNL1        0.0950
     22 C          17.6237   37.7636   10.1219 C.2     1  UNL1        0.2280
     23 O          17.3755   37.1822    9.0333 O.2     1  UNL1       -0.2747
     24 N          16.9802   38.9933   10.4738 N.am    1  UNL1       -0.2641
     25 H          17.2246   39.3897   11.3411 H       1  UNL1        0.1567
@<TRIPOS>BOND
     1    21    22    1
     2    22    24   am
     3    16    20   ar
     4    17    19   ar
     5    18    20   ar
     6    18     1    1
     7     1     6   ar
     8     2     5   ar
     9     3     4   ar
    10     7     4    1
    11     7     8    1
    12     8     9    1
    13     9    10    1
    14    10    15    1
    15    11    15    1
    16    11     7    1
    17    13    12    1
    18    24    16    1
    19    15    12   am
    20    22    23    2
    21    16    19   ar
    22    17    18   ar
    23     1     2   ar
    24     3     5   ar
    25     4     6   ar
    26    12    14    2
    27    24    25    1
@<TRIPOS>MOLECULE
Molport-046-988-330 MCULE-4942212263 PubChem-110130929
 25 27 0 0 0
SMALL
GASTEIGER

@<TRIPOS>ATOM
      1 C          10.0674   42.3106    8.5408 C.ar    1  UNL1        0.1076
      2 C          10.9501   42.8992    9.4530 C.ar    1  UNL1        0.1185
      3 C           9.1236   43.8769   10.6012 C.ar    1  UNL1        0.1136
      4 C           8.2383   43.2947    9.6924 C.ar    1  UNL1        0.0794
      5 N          10.4591   43.6669   10.4614 N.ar    1  UNL1       -0.2395
      6 N           8.7320   42.5221    8.6867 N.ar    1  UNL1       -0.2459
      7 C           6.7638   43.5168    9.8423 C.3     1  UNL1        0.0617
      8 C           6.1335   42.5545   10.8585 C.3     1  UNL1        0.0094
      9 C           6.0079   41.1350   10.3014 C.3     1  UNL1        0.0219
     10 C           5.2240   41.1515    8.9942 C.3     1  UNL1        0.0934
     11 C           6.0327   43.4692    8.4958 C.3     1  UNL1        0.0993
     12 C           6.3267   41.6515    6.7804 C.2     1  UNL1        0.2261
     13 C           6.1766   40.2331    6.3454 C.3     1  UNL1        0.0948
     14 O           6.8847   42.4697    6.0017 O.2     1  UNL1       -0.2749
     15 N           5.8539   42.0842    8.0646 N.am    1  UNL1       -0.2791
     16 C          11.0123   39.8608    5.6579 C.ar    1  UNL1        0.1656
     17 C          11.7701   41.6663    6.7672 C.ar    1  UNL1        0.1089
     18 C          10.5636   41.4779    7.4358 C.ar    1  UNL1        0.0703
     19 N          12.0103   40.7618    5.7800 N.ar    1  UNL1       -0.2223
     20 S           9.7792   40.1423    6.7716 S.2     1  UNL1       -0.0498
     21 C          10.1499   37.2023    2.9671 C.3     1  UNL1        0.0950
     22 C           9.9323   38.2994    3.9450 C.2     1  UNL1        0.2280
     23 O           8.7719   38.7594    4.1079 O.2     1  UNL1       -0.2747
     24 N          11.0474   38.8116    4.6826 N.am    1  UNL1       -0.2641
     25 H          11.9246   38.4028    4.5018 H       1  UNL1        0.1567
@<TRIPOS>BOND
     1    21    22    1
     2    22    24   am
     3    16    20   ar
     4    17    19   ar
     5    18    20   ar
     6    18     1    1
     7     1     6   ar
     8     2     5   ar
     9     3     4   ar
    10     7     4    1
    11     7     8    1
    12     8     9    1
    13     9    10    1
    14    10    15    1
    15    11    15    1
    16    11     7    1
    17    13    12    1
    18    24    16    1
    19    15    12   am
    20    22    23    2
    21    16    19   ar
    22    17    18   ar
    23     1     2   ar
    24     3     5   ar
    25     4     6   ar
    26    12    14    2
    27    24    25    1
@<TRIPOS>MOLECULE
Molport-046-988-330 MCULE-4942212263 PubChem-110130929
 25 27 0 0 0
SMALL
GASTEIGER

@<TRIPOS>ATOM
      1 C          13.5692   41.0813    8.8116 C.ar    1  UNL1        0.1076
      2 C          13.6437   40.2284    9.9182 C.ar    1  UNL1        0.1185
      3 C          16.0085   40.3522    9.8639 C.ar    1  UNL1        0.1136
      4 C          15.9404   41.2011    8.7578 C.ar    1  UNL1        0.0794
      5 N          14.8595   39.8845   10.4191 N.ar    1  UNL1       -0.2395
      6 N          14.7218   41.5482    8.2613 N.ar    1  UNL1       -0.2459
      7 C          17.2023   41.7255    8.1426 C.3     1  UNL1        0.0617
      8 C          17.8832   42.7794    9.0268 C.3     1  UNL1        0.0094
      9 C          17.1426   44.1179    8.9959 C.3     1  UNL1        0.0219
     10 C          17.0024   44.6072    7.5591 C.3     1  UNL1        0.0934
     11 C          16.9773   42.2477    6.7191 C.3     1  UNL1        0.0993
     12 C          15.1318   43.8252    6.0571 C.2     1  UNL1        0.2261
     13 C          14.4779   45.1642    6.1156 C.3     1  UNL1        0.0948
     14 O          14.5840   42.9107    5.3856 O.2     1  UNL1       -0.2749
     15 N          16.3591   43.5715    6.7563 N.am    1  UNL1       -0.2791
     16 C          10.0194   42.2574    7.7061 C.ar    1  UNL1        0.1656
     17 C          11.8890   41.2857    6.9154 C.ar    1  UNL1        0.1089
     18 C          12.2716   41.4707    8.2411 C.ar    1  UNL1        0.0703
     19 N          10.6347   41.7267    6.6279 N.ar    1  UNL1       -0.2223
     20 S          11.0035   42.2055    9.0732 S.2     1  UNL1       -0.0498
     21 C           6.3680   43.1336    6.7307 C.3     1  UNL1        0.0950
     22 C           7.7051   42.4915    6.6444 C.2     1  UNL1        0.2280
     23 O           7.9490   41.6994    5.6969 O.2     1  UNL1       -0.2747
     24 N           8.6895   42.7867    7.6412 N.am    1  UNL1       -0.2641
     25 H           8.4268   43.4153    8.3520 H       1  UNL1        0.1567
@<TRIPOS>BOND
     1    21    22    1
     2    22    24   am
     3    16    20   ar
     4    17    19   ar
     5    18    20   ar
     6    18     1    1
     7     1     6   ar
     8     2     5   ar
     9     3     4   ar
    10     7     4    1
    11     7     8    1
    12     8     9    1
    13     9    10    1
    14    10    15    1
    15    11    15    1
    16    11     7    1
    17    13    12    1
    18    24    16    1
    19    15    12   am
    20    22    23    2
    21    16    19   ar
    22    17    18   ar
    23     1     2   ar
    24     3     5   ar
    25     4     6   ar
    26    12    14    2
    27    24    25    1
@<TRIPOS>MOLECULE
Molport-046-988-330 MCULE-4942212263 PubChem-110130929
 25 27 0 0 0
SMALL
GASTEIGER

@<TRIPOS>ATOM
      1 C          15.0860   39.6009    9.4556 C.ar    1  UNL1        0.1076
      2 C          15.7690   40.8085    9.2739 C.ar    1  UNL1        0.1185
      3 C          17.8147   39.7405    9.8076 C.ar    1  UNL1        0.1136
      4 C          17.1383   38.5335    9.9931 C.ar    1  UNL1        0.0794
      5 N          17.1156   40.8507    9.4528 N.ar    1  UNL1       -0.2395
      6 N          15.7906   38.4926    9.8083 N.ar    1  UNL1       -0.2459
      7 C          17.9020   37.3033   10.3793 C.3     1  UNL1        0.0617
      8 C          19.3929   37.4142   10.0313 C.3     1  UNL1        0.0094
      9 C          19.6425   37.2710    8.5286 C.3     1  UNL1        0.0219
     10 C          19.0511   35.9610    8.0207 C.3     1  UNL1        0.0934
     11 C          17.2819   36.0303    9.7924 C.3     1  UNL1        0.0993
     12 C          16.6194   35.7514    7.3807 C.2     1  UNL1        0.2261
     13 C          16.9725   35.6462    5.9357 C.3     1  UNL1        0.0948
     14 O          15.4046   35.7175    7.7131 O.2     1  UNL1       -0.2749
     15 N          17.6380   35.8968    8.3812 N.am    1  UNL1       -0.2791
     16 C          11.1961   39.7522    9.2270 C.ar    1  UNL1        0.1656
     17 C          12.9634   38.5315    8.5549 C.ar    1  UNL1        0.1089
     18 C          13.6294   39.5196    9.2747 C.ar    1  UNL1        0.0703
     19 N          11.6103   38.6699    8.5342 N.ar    1  UNL1       -0.2223
     20 S          12.4915   40.5932    9.9013 S.2     1  UNL1       -0.0498
     21 C           7.6343   41.2108    8.7393 C.3     1  UNL1        0.0950
     22 C           9.0733   40.9590    8.4685 C.2     1  UNL1        0.2280
     23 O           9.6189   41.5064    7.4748 O.2     1  UNL1       -0.2747
     24 N           9.8106   40.0984    9.3435 N.am    1  UNL1       -0.2641
     25 H           9.3171   39.7060   10.0996 H       1  UNL1        0.1567
@<TRIPOS>BOND
     1    21    22    1
     2    22    24   am
     3    16    20   ar
     4    17    19   ar
     5    18    20   ar
     6    18     1    1
     7     1     6   ar
     8     2     5   ar
     9     3     4   ar
    10     7     4    1
    11     7     8    1
    12     8     9    1
    13     9    10    1
    14    10    15    1
    15    11    15    1
    16    11     7    1
    17    13    12    1
    18    24    16    1
    19    15    12   am
    20    22    23    2
    21    16    19   ar
    22    17    18   ar
    23     1     2   ar
    24     3     5   ar
    25     4     6   ar
    26    12    14    2
    27    24    25    1
@<TRIPOS>MOLECULE
Molport-046-988-330 MCULE-4942212263 PubChem-110130929
 25 27 0 0 0
SMALL
GASTEIGER

@<TRIPOS>ATOM
      1 C          14.4734   41.0633    8.3956 C.ar    1  UNL1        0.1076
      2 C          15.4444   41.9290    7.8803 C.ar    1  UNL1        0.1185
      3 C          17.0722   40.9628    9.3040 C.ar    1  UNL1        0.1136
      4 C          16.1071   40.0985    9.8240 C.ar    1  UNL1        0.0794
      5 N          16.7198   41.8587    8.3447 N.ar    1  UNL1       -0.2395
      6 N          14.8319   40.1673    9.3536 N.ar    1  UNL1       -0.2459
      7 C          16.4882   39.1042   10.8784 C.3     1  UNL1        0.0617
      8 C          17.9957   38.8146   10.8835 C.3     1  UNL1        0.0094
      9 C          18.4143   37.9371    9.7021 C.3     1  UNL1        0.0219
     10 C          17.6025   36.6470    9.6927 C.3     1  UNL1        0.0934
     11 C          15.6689   37.8125   10.7775 C.3     1  UNL1        0.0993
     12 C          15.3086   36.5185    8.6495 C.2     1  UNL1        0.2261
     13 C          15.8276   35.6862    7.5262 C.3     1  UNL1        0.0948
     14 O          14.0871   36.8266    8.6630 O.2     1  UNL1       -0.2749
     15 N          16.1792   36.9714    9.6966 N.am    1  UNL1       -0.2791
     16 C          10.7036   40.8663    7.4178 C.ar    1  UNL1        0.1656
     17 C          12.6007   41.9796    6.9417 C.ar    1  UNL1        0.1089
     18 C          13.0835   41.1144    7.9197 C.ar    1  UNL1        0.0703
     19 N          11.2758   41.8338    6.6699 N.ar    1  UNL1       -0.2223
     20 S          11.8160   40.1418    8.4560 S.2     1  UNL1       -0.0498
     21 C           7.1500   39.9580    6.1533 C.3     1  UNL1        0.0950
     22 C           8.5966   40.2906    6.0884 C.2     1  UNL1        0.2280
     23 O           9.1659   40.3514    4.9673 O.2     1  UNL1       -0.2747
     24 N           9.3142   40.5353    7.3029 N.am    1  UNL1       -0.2641
     25 H           8.8028   40.4697    8.1416 H       1  UNL1        0.1567
@<TRIPOS>BOND
     1    21    22    1
     2    22    24   am
     3    16    20   ar
     4    17    19   ar
     5    18    20   ar
     6    18     1    1
     7     1     6   ar
     8     2     5   ar
     9     3     4   ar
    10     7     4    1
    11     7     8    1
    12     8     9    1
    13     9    10    1
    14    10    15    1
    15    11    15    1
    16    11     7    1
    17    13    12    1
    18    24    16    1
    19    15    12   am
    20    22    23    2
    21    16    19   ar
    22    17    18   ar
    23     1     2   ar
    24     3     5   ar
    25     4     6   ar
    26    12    14    2
    27    24    25    1
@<TRIPOS>MOLECULE
Molport-046-988-330 MCULE-4942212263 PubChem-110130929
 25 27 0 0 0
SMALL
GASTEIGER

@<TRIPOS>ATOM
      1 C           9.6999   42.7800    9.7074 C.ar    1  UNL1        0.1076
      2 C           9.7388   44.0908   10.1950 C.ar    1  UNL1        0.1185
      3 C           7.7783   44.6120    8.9723 C.ar    1  UNL1        0.1136
      4 C           7.7359   43.3063    8.4803 C.ar    1  UNL1        0.0794
      5 N           8.7784   44.9754    9.8179 N.ar    1  UNL1       -0.2395
      6 N           8.6958   42.4209    8.8636 N.ar    1  UNL1       -0.2459
      7 C           6.6338   42.8956    7.5515 C.3     1  UNL1        0.0617
      8 C           5.7505   44.0820    7.1408 C.3     1  UNL1        0.0094
      9 C           4.8237   44.5254    8.2745 C.3     1  UNL1        0.0219
     10 C           3.9824   43.3489    8.7555 C.3     1  UNL1        0.0934
     11 C           5.7976   41.7439    8.1209 C.3     1  UNL1        0.0993
     12 C           4.8471   41.6916   10.4504 C.2     1  UNL1        0.2261
     13 C           3.9180   42.2180   11.4913 C.3     1  UNL1        0.0948
     14 O           5.6291   40.7515   10.7538 O.2     1  UNL1       -0.2749
     15 N           4.8625   42.2448    9.1262 N.am    1  UNL1       -0.2791
     16 C          12.6305   40.2890   10.3500 C.ar    1  UNL1        0.1656
     17 C          10.6879   41.0036   11.2334 C.ar    1  UNL1        0.1089
     18 C          10.7245   41.7982   10.0909 C.ar    1  UNL1        0.0703
     19 N          11.7526   40.1678   11.3685 N.ar    1  UNL1       -0.2223
     20 S          12.1280   41.4421    9.2284 S.2     1  UNL1       -0.0498
     21 C          15.4281   37.7797    9.3864 C.3     1  UNL1        0.0950
     22 C          14.1291   38.4969    9.3105 C.2     1  UNL1        0.2280
     23 O          13.3152   38.2039    8.3959 O.2     1  UNL1       -0.2747
     24 N          13.8292   39.5072   10.2796 N.am    1  UNL1       -0.2641
     25 H          14.5140   39.6820   10.9650 H       1  UNL1        0.1567
@<TRIPOS>BOND
     1    21    22    1
     2    22    24   am
     3    16    20   ar
     4    17    19   ar
     5    18    20   ar
     6    18     1    1
     7     1     6   ar
     8     2     5   ar
     9     3     4   ar
    10     7     4    1
    11     7     8    1
    12     8     9    1
    13     9    10    1
    14    10    15    1
    15    11    15    1
    16    11     7    1
    17    13    12    1
    18    24    16    1
    19    15    12   am
    20    22    23    2
    21    16    19   ar
    22    17    18   ar
    23     1     2   ar
    24     3     5   ar
    25     4     6   ar
    26    12    14    2
    27    24    25    1
