@<TRIPOS>MOLECULE
Molport-047-891-363 MCULE-4209140988 PubChem-160480027 PubChem-67268484
 26 27 0 0 0
SMALL
GASTEIGER

@<TRIPOS>ATOM
      1 C          14.2412   42.2635    7.8140 C.ar    1  UNL1        0.0000
      2 C          14.0551   40.9847    8.3466 C.ar    1  UNL1        0.0000
      3 C          12.8367   40.6229    8.9307 C.ar    1  UNL1        0.0000
      4 C          11.7670   41.5449    8.9384 C.ar    1  UNL1        0.0000
      5 C          11.9663   42.8312    8.4094 C.ar    1  UNL1        0.0000
      6 C          13.1964   43.1892    7.8557 C.ar    1  UNL1        0.0000
      7 B          15.6166   42.6569    7.1762 B       1  UNL1        0.0000
      8 O          16.1679   43.9712    7.4607 O.3     1  UNL1        0.0000
      9 O          16.6444   41.6375    7.0482 O.3     1  UNL1        0.0000
     10 C          17.3055   43.6402    8.2120 C.3     1  UNL1        0.0000
     11 C          17.6212   42.1112    7.9371 C.3     1  UNL1        0.0000
     12 C          18.9827   41.8826    7.2867 C.3     1  UNL1        0.0000
     13 C          17.5941   41.2425    9.1963 C.3     1  UNL1        0.0000
     14 C          17.0241   43.9544    9.6830 C.3     1  UNL1        0.0000
     15 C          18.4302   44.5771    7.7805 C.3     1  UNL1        0.0000
     16 O          13.7825   39.6135   11.4956 O.2     1  UNL1        0.0000
     17 C          13.0575   38.8782   10.7702 C.2     1  UNL1        0.0000
     18 N          12.7021   39.2928    9.4478 N.am    1  UNL1        0.0000
     19 H          12.3348   38.6081    8.8432 H       1  UNL1        0.0000
     20 O          12.6276   37.6249   11.2263 O.3     1  UNL1        0.0000
     21 C          12.0399   36.6178   10.3990 C.3     1  UNL1        0.0000
     22 C          11.5599   35.4460   11.2377 C.3     1  UNL1        0.0000
     23 C          13.0881   36.1148    9.4294 C.3     1  UNL1        0.0000
     24 C          10.8806   37.1880    9.5998 C.3     1  UNL1        0.0000
     25 O          10.5162   41.1650    9.4387 O.3     1  UNL1        0.0000
     26 C           9.5074   40.5752    8.6298 C.3     1  UNL1        0.0000
@<TRIPOS>BOND
     1     7     8    1
     2     7     1    1
     3     7     9    1
     4    10     8    1
     5    10    11    1
     6    10    14    1
     7    10    15    1
     8    11     9    1
     9    11    12    1
    10    11    13    1
    11     2     3   ar
    12     3    18    1
    13     4     5   ar
    14     4    25    1
    15     6     1   ar
    16    26    25    1
    17    17    20    1
    18    21    20    1
    19    21    22    1
    20    21    23    1
    21    21    24    1
    22    18    17   am
    23     1     2   ar
    24     3     4   ar
    25     5     6   ar
    26    17    16    2
    27    18    19    1
@<TRIPOS>MOLECULE
Molport-047-891-363 MCULE-4209140988 PubChem-160480027 PubChem-67268484
 26 27 0 0 0
SMALL
GASTEIGER

@<TRIPOS>ATOM
      1 C          10.6467   41.1030    9.0651 C.ar    1  UNL1        0.0000
      2 C          11.7165   41.3508    8.2005 C.ar    1  UNL1        0.0000
      3 C          13.0287   41.0504    8.5810 C.ar    1  UNL1        0.0000
      4 C          13.2693   40.4449    9.8338 C.ar    1  UNL1        0.0000
      5 C          12.1888   40.2083   10.7002 C.ar    1  UNL1        0.0000
      6 C          10.8873   40.5398   10.3202 C.ar    1  UNL1        0.0000
      7 B           9.1848   41.4585    8.6290 B       1  UNL1        0.0000
      8 O           8.0756   40.9029    9.3861 O.3     1  UNL1        0.0000
      9 O           8.9086   42.7979    8.1378 O.3     1  UNL1        0.0000
     10 C           7.5291   42.0567    9.9680 C.3     1  UNL1        0.0000
     11 C           8.0710   43.2989    9.1458 C.3     1  UNL1        0.0000
     12 C           6.9658   44.1026    8.4664 C.3     1  UNL1        0.0000
     13 C           8.8694   44.2936    9.9908 C.3     1  UNL1        0.0000
     14 C           7.9161   42.0837   11.4482 C.3     1  UNL1        0.0000
     15 C           6.0099   41.9184    9.9239 C.3     1  UNL1        0.0000
     16 O          13.5338   43.5288    7.1338 O.2     1  UNL1        0.0000
     17 C          14.3744   42.5900    7.0661 C.2     1  UNL1        0.0000
     18 N          14.0823   41.3151    7.6458 N.am    1  UNL1        0.0000
     19 H          14.6519   40.5571    7.3806 H       1  UNL1        0.0000
     20 O          15.5856   42.7626    6.3829 O.3     1  UNL1        0.0000
     21 C          16.4500   43.8912    6.5354 C.3     1  UNL1        0.0000
     22 C          16.8733   44.0520    7.9852 C.3     1  UNL1        0.0000
     23 C          15.6994   45.1368    6.1149 C.3     1  UNL1        0.0000
     24 C          17.6786   43.7500    5.6531 C.3     1  UNL1        0.0000
     25 O          14.5666   40.0576   10.1890 O.3     1  UNL1        0.0000
     26 C          14.8346   39.0243   11.1273 C.3     1  UNL1        0.0000
@<TRIPOS>BOND
     1     7     8    1
     2     7     1    1
     3     7     9    1
     4    10     8    1
     5    10    11    1
     6    10    14    1
     7    10    15    1
     8    11     9    1
     9    11    12    1
    10    11    13    1
    11     2     3   ar
    12     3    18    1
    13     4     5   ar
    14     4    25    1
    15     6     1   ar
    16    26    25    1
    17    17    20    1
    18    21    20    1
    19    21    22    1
    20    21    23    1
    21    21    24    1
    22    18    17   am
    23     1     2   ar
    24     3     4   ar
    25     5     6   ar
    26    17    16    2
    27    18    19    1
@<TRIPOS>MOLECULE
Molport-047-891-363 MCULE-4209140988 PubChem-160480027 PubChem-67268484
 26 27 0 0 0
SMALL
GASTEIGER

@<TRIPOS>ATOM
      1 C          12.5163   40.1755   10.3562 C.ar    1  UNL1        0.0000
      2 C          13.1242   40.7164    9.2198 C.ar    1  UNL1        0.0000
      3 C          14.5048   40.6044    9.0246 C.ar    1  UNL1        0.0000
      4 C          15.2855   39.8941    9.9628 C.ar    1  UNL1        0.0000
      5 C          14.6673   39.3620   11.1069 C.ar    1  UNL1        0.0000
      6 C          13.2932   39.5062   11.3043 C.ar    1  UNL1        0.0000
      7 B          10.9711   40.3222   10.5664 B       1  UNL1        0.0000
      8 O          10.4787   41.4158   11.3873 O.3     1  UNL1        0.0000
      9 O          10.0830   40.0138    9.4582 O.3     1  UNL1        0.0000
     10 C           9.8054   42.1974   10.4365 C.3     1  UNL1        0.0000
     11 C           9.5411   41.2763    9.1737 C.3     1  UNL1        0.0000
     12 C           8.0587   41.0809    8.8679 C.3     1  UNL1        0.0000
     13 C          10.1808   41.8006    7.8865 C.3     1  UNL1        0.0000
     14 C          10.6584   43.4303   10.1297 C.3     1  UNL1        0.0000
     15 C           8.5252   42.7126   11.0880 C.3     1  UNL1        0.0000
     16 O          13.4745   42.8369    7.4605 O.2     1  UNL1        0.0000
     17 C          14.6051   42.3527    7.1781 C.2     1  UNL1        0.0000
     18 N          15.0682   41.1681    7.8331 N.am    1  UNL1        0.0000
     19 H          15.8371   40.7016    7.4325 H       1  UNL1        0.0000
     20 O          15.4056   42.9364    6.1871 O.3     1  UNL1        0.0000
     21 C          16.3321   44.0013    6.4147 C.3     1  UNL1        0.0000
     22 C          16.7198   44.0721    7.8816 C.3     1  UNL1        0.0000
     23 C          15.6720   45.3083    6.0305 C.3     1  UNL1        0.0000
     24 C          17.5762   43.8226    5.5615 C.3     1  UNL1        0.0000
     25 O          16.6523   39.6979    9.7338 O.3     1  UNL1        0.0000
     26 C          17.5467   39.2435   10.7405 C.3     1  UNL1        0.0000
@<TRIPOS>BOND
     1     7     8    1
     2     7     1    1
     3     7     9    1
     4    10     8    1
     5    10    11    1
     6    10    14    1
     7    10    15    1
     8    11     9    1
     9    11    12    1
    10    11    13    1
    11     2     3   ar
    12     3    18    1
    13     4     5   ar
    14     4    25    1
    15     6     1   ar
    16    26    25    1
    17    17    20    1
    18    21    20    1
    19    21    22    1
    20    21    23    1
    21    21    24    1
    22    18    17   am
    23     1     2   ar
    24     3     4   ar
    25     5     6   ar
    26    17    16    2
    27    18    19    1
@<TRIPOS>MOLECULE
Molport-047-891-363 MCULE-4209140988 PubChem-160480027 PubChem-67268484
 26 27 0 0 0
SMALL
GASTEIGER

@<TRIPOS>ATOM
      1 C          10.8061   41.2461    9.3731 C.ar    1  UNL1        0.0000
      2 C          11.8470   41.4821    8.4707 C.ar    1  UNL1        0.0000
      3 C          13.1536   41.0774    8.7634 C.ar    1  UNL1        0.0000
      4 C          13.4143   40.3792    9.9629 C.ar    1  UNL1        0.0000
      5 C          12.3636   40.1548   10.8683 C.ar    1  UNL1        0.0000
      6 C          11.0696   40.5898   10.5774 C.ar    1  UNL1        0.0000
      7 B           9.3512   41.7185    9.0361 B       1  UNL1        0.0000
      8 O           9.1637   42.7113    7.9913 O.3     1  UNL1        0.0000
      9 O           8.2730   40.7450    9.0794 O.3     1  UNL1        0.0000
     10 C           8.4910   41.9637    7.0131 C.3     1  UNL1        0.0000
     11 C           7.9023   40.6770    7.7279 C.3     1  UNL1        0.0000
     12 C           6.3791   40.5993    7.6735 C.3     1  UNL1        0.0000
     13 C           8.4217   39.3602    7.1474 C.3     1  UNL1        0.0000
     14 C           9.4745   41.6437    5.8852 C.3     1  UNL1        0.0000
     15 C           7.4179   42.8622    6.4049 C.3     1  UNL1        0.0000
     16 O          13.4821   43.4663    7.1272 O.2     1  UNL1        0.0000
     17 C          14.3793   42.5791    7.1145 C.2     1  UNL1        0.0000
     18 N          14.1761   41.3358    7.7925 N.am    1  UNL1        0.0000
     19 H          14.7890   40.5968    7.5744 H       1  UNL1        0.0000
     20 O          15.5682   42.7746    6.3990 O.3     1  UNL1        0.0000
     21 C          16.4200   43.9146    6.5360 C.3     1  UNL1        0.0000
     22 C          15.7013   45.1786    6.0967 C.3     1  UNL1        0.0000
     23 C          17.6334   43.7220    5.6514 C.3     1  UNL1        0.0000
     24 C          16.8917   44.0634    7.9724 C.3     1  UNL1        0.0000
     25 O          14.6993   39.8904   10.2258 O.3     1  UNL1        0.0000
     26 C          15.2064   38.6978    9.6425 C.3     1  UNL1        0.0000
@<TRIPOS>BOND
     1     7     8    1
     2     7     1    1
     3     7     9    1
     4    10     8    1
     5    10    11    1
     6    10    14    1
     7    10    15    1
     8    11     9    1
     9    11    12    1
    10    11    13    1
    11     2     3   ar
    12     3    18    1
    13     4     5   ar
    14     4    25    1
    15     6     1   ar
    16    26    25    1
    17    17    20    1
    18    21    20    1
    19    21    22    1
    20    21    23    1
    21    21    24    1
    22    18    17   am
    23     1     2   ar
    24     3     4   ar
    25     5     6   ar
    26    17    16    2
    27    18    19    1
@<TRIPOS>MOLECULE
Molport-047-891-363 MCULE-4209140988 PubChem-160480027 PubChem-67268484
 26 27 0 0 0
SMALL
GASTEIGER

@<TRIPOS>ATOM
      1 C          14.5104   40.9287    8.1775 C.ar    1  UNL1        0.0000
      2 C          13.2514   41.1763    7.6235 C.ar    1  UNL1        0.0000
      3 C          13.0114   42.3380    6.8822 C.ar    1  UNL1        0.0000
      4 C          14.0671   43.2469    6.6505 C.ar    1  UNL1        0.0000
      5 C          15.3268   42.9945    7.2194 C.ar    1  UNL1        0.0000
      6 C          15.5452   41.8459    7.9817 C.ar    1  UNL1        0.0000
      7 B          14.7583   39.6297    9.0169 B       1  UNL1        0.0000
      8 O          14.7741   39.7276   10.4669 O.3     1  UNL1        0.0000
      9 O          14.1898   38.3768    8.5493 O.3     1  UNL1        0.0000
     10 C          13.6279   38.9943   10.8087 C.3     1  UNL1        0.0000
     11 C          13.2480   38.1044    9.5531 C.3     1  UNL1        0.0000
     12 C          13.3002   36.6058    9.8365 C.3     1  UNL1        0.0000
     13 C          11.8508   38.3894    8.9984 C.3     1  UNL1        0.0000
     14 C          12.5287   39.9760   11.2209 C.3     1  UNL1        0.0000
     15 C          13.9602   38.1750   12.0525 C.3     1  UNL1        0.0000
     16 O          11.3602   40.3666    5.5113 O.2     1  UNL1        0.0000
     17 C          10.8728   41.4971    5.7887 C.2     1  UNL1        0.0000
     18 N          11.7033   42.5296    6.3281 N.am    1  UNL1        0.0000
     19 H          11.3471   43.4474    6.3179 H       1  UNL1        0.0000
     20 O           9.5245   41.7774    5.5301 O.3     1  UNL1        0.0000
     21 C           8.4489   41.4894    6.4270 C.3     1  UNL1        0.0000
     22 C           7.7477   40.2021    6.0295 C.3     1  UNL1        0.0000
     23 C           7.4458   42.6212    6.3599 C.3     1  UNL1        0.0000
     24 C           8.9549   41.3802    7.8552 C.3     1  UNL1        0.0000
     25 O          13.8635   44.3668    5.8360 O.3     1  UNL1        0.0000
     26 C          14.8711   45.3395    5.5942 C.3     1  UNL1        0.0000
@<TRIPOS>BOND
     1     7     8    1
     2     7     1    1
     3     7     9    1
     4    10     8    1
     5    10    11    1
     6    10    14    1
     7    10    15    1
     8    11     9    1
     9    11    12    1
    10    11    13    1
    11     2     3   ar
    12     3    18    1
    13     4     5   ar
    14     4    25    1
    15     6     1   ar
    16    26    25    1
    17    17    20    1
    18    21    20    1
    19    21    22    1
    20    21    23    1
    21    21    24    1
    22    18    17   am
    23     1     2   ar
    24     3     4   ar
    25     5     6   ar
    26    17    16    2
    27    18    19    1
@<TRIPOS>MOLECULE
Molport-047-891-363 MCULE-4209140988 PubChem-160480027 PubChem-67268484
 26 27 0 0 0
SMALL
GASTEIGER

@<TRIPOS>ATOM
      1 C          10.5467   42.0128    9.0059 C.ar    1  UNL1        0.0000
      2 C          11.7727   42.0362    8.3352 C.ar    1  UNL1        0.0000
      3 C          12.8896   41.3792    8.8621 C.ar    1  UNL1        0.0000
      4 C          12.7636   40.6435   10.0609 C.ar    1  UNL1        0.0000
      5 C          11.5298   40.6336   10.7331 C.ar    1  UNL1        0.0000
      6 C          10.4307   41.3176   10.2116 C.ar    1  UNL1        0.0000
      7 B           9.3095   42.7656    8.4091 B       1  UNL1        0.0000
      8 O           8.7908   42.3432    7.1189 O.3     1  UNL1        0.0000
      9 O           8.2618   43.2126    9.3115 O.3     1  UNL1        0.0000
     10 C           7.5345   41.8314    7.4769 C.3     1  UNL1        0.0000
     11 C           7.1853   42.4061    8.9125 C.3     1  UNL1        0.0000
     12 C           5.9310   43.2753    8.9267 C.3     1  UNL1        0.0000
     13 C           6.9708   41.3232    9.9719 C.3     1  UNL1        0.0000
     14 C           7.6005   40.3034    7.4264 C.3     1  UNL1        0.0000
     15 C           6.5414   42.2541    6.3982 C.3     1  UNL1        0.0000
     16 O          13.6947   43.3730    6.8952 O.2     1  UNL1        0.0000
     17 C          14.5273   42.5021    7.2704 C.2     1  UNL1        0.0000
     18 N          14.1159   41.4281    8.1215 N.am    1  UNL1        0.0000
     19 H          14.7253   40.6594    8.2053 H       1  UNL1        0.0000
     20 O          15.8549   42.5428    6.8239 O.3     1  UNL1        0.0000
     21 C          16.6882   43.7040    6.8596 C.3     1  UNL1        0.0000
     22 C          17.1110   44.0184    8.2842 C.3     1  UNL1        0.0000
     23 C          15.9022   44.8812    6.3228 C.3     1  UNL1        0.0000
     24 C          17.9176   43.5100    5.9886 C.3     1  UNL1        0.0000
     25 O          13.8492   39.9085   10.5511 O.3     1  UNL1        0.0000
     26 C          13.6974   38.7851   11.4082 C.3     1  UNL1        0.0000
@<TRIPOS>BOND
     1     7     8    1
     2     7     1    1
     3     7     9    1
     4    10     8    1
     5    10    11    1
     6    10    14    1
     7    10    15    1
     8    11     9    1
     9    11    12    1
    10    11    13    1
    11     2     3   ar
    12     3    18    1
    13     4     5   ar
    14     4    25    1
    15     6     1   ar
    16    26    25    1
    17    17    20    1
    18    21    20    1
    19    21    22    1
    20    21    23    1
    21    21    24    1
    22    18    17   am
    23     1     2   ar
    24     3     4   ar
    25     5     6   ar
    26    17    16    2
    27    18    19    1
@<TRIPOS>MOLECULE
Molport-047-891-363 MCULE-4209140988 PubChem-160480027 PubChem-67268484
 26 27 0 0 0
SMALL
GASTEIGER

@<TRIPOS>ATOM
      1 C          12.8995   41.8266    6.8920 C.ar    1  UNL1        0.0000
      2 C          13.7393   41.1705    7.7963 C.ar    1  UNL1        0.0000
      3 C          15.0741   41.5611    7.9464 C.ar    1  UNL1        0.0000
      4 C          15.5644   42.6624    7.2109 C.ar    1  UNL1        0.0000
      5 C          14.7156   43.3098    6.2973 C.ar    1  UNL1        0.0000
      6 C          13.3939   42.8913    6.1356 C.ar    1  UNL1        0.0000
      7 B          11.4112   41.3673    6.7260 B       1  UNL1        0.0000
      8 O          11.1373   39.9606    6.4838 O.3     1  UNL1        0.0000
      9 O          10.3893   42.0013    7.5418 O.3     1  UNL1        0.0000
     10 C          10.4756   39.5973    7.6664 C.3     1  UNL1        0.0000
     11 C           9.9803   40.9354    8.3573 C.3     1  UNL1        0.0000
     12 C           8.4626   41.0187    8.4943 C.3     1  UNL1        0.0000
     13 C          10.5518   41.1501    9.7602 C.3     1  UNL1        0.0000
     14 C          11.4389   38.7802    8.5302 C.3     1  UNL1        0.0000
     15 C           9.3367   38.6558    7.2854 C.3     1  UNL1        0.0000
     16 O          14.1865   40.2130   10.3726 O.2     1  UNL1        0.0000
     17 C          15.3864   40.0924   10.0011 C.2     1  UNL1        0.0000
     18 N          15.8823   40.8584    8.8992 N.am    1  UNL1        0.0000
     19 H          16.8591   40.9069    8.7859 H       1  UNL1        0.0000
     20 O          16.2659   39.2448   10.6878 O.3     1  UNL1        0.0000
     21 C          16.2089   37.8166   10.6546 C.3     1  UNL1        0.0000
     22 C          15.6917   37.3304    9.3118 C.3     1  UNL1        0.0000
     23 C          15.2576   37.3444   11.7334 C.3     1  UNL1        0.0000
     24 C          17.5784   37.2178   10.9263 C.3     1  UNL1        0.0000
     25 O          16.8711   43.1194    7.4179 O.3     1  UNL1        0.0000
     26 C          17.2249   43.9913    8.4830 C.3     1  UNL1        0.0000
@<TRIPOS>BOND
     1     7     8    1
     2     7     1    1
     3     7     9    1
     4    10     8    1
     5    10    11    1
     6    10    14    1
     7    10    15    1
     8    11     9    1
     9    11    12    1
    10    11    13    1
    11     2     3   ar
    12     3    18    1
    13     4     5   ar
    14     4    25    1
    15     6     1   ar
    16    26    25    1
    17    17    20    1
    18    21    20    1
    19    21    22    1
    20    21    23    1
    21    21    24    1
    22    18    17   am
    23     1     2   ar
    24     3     4   ar
    25     5     6   ar
    26    17    16    2
    27    18    19    1
@<TRIPOS>MOLECULE
Molport-047-891-363 MCULE-4209140988 PubChem-160480027 PubChem-67268484
 26 27 0 0 0
SMALL
GASTEIGER

@<TRIPOS>ATOM
      1 C           7.6930   41.5164   10.1571 C.ar    1  UNL1        0.0000
      2 C           9.0497   41.2013   10.0414 C.ar    1  UNL1        0.0000
      3 C           9.8681   41.1341   11.1738 C.ar    1  UNL1        0.0000
      4 C           9.3056   41.3394   12.4528 C.ar    1  UNL1        0.0000
      5 C           7.9430   41.6651   12.5586 C.ar    1  UNL1        0.0000
      6 C           7.1437   41.7577   11.4182 C.ar    1  UNL1        0.0000
      7 B           6.7937   41.6013    8.8774 B       1  UNL1        0.0000
      8 O           7.0371   42.6695    7.9225 O.3     1  UNL1        0.0000
      9 O           6.3719   40.3669    8.2369 O.3     1  UNL1        0.0000
     10 C           7.4927   41.9494    6.8080 C.3     1  UNL1        0.0000
     11 C           7.0516   40.4404    7.0117 C.3     1  UNL1        0.0000
     12 C           6.1011   39.9373    5.9289 C.3     1  UNL1        0.0000
     13 C           8.2235   39.4574    7.0467 C.3     1  UNL1        0.0000
     14 C           9.0073   42.1366    6.6952 C.3     1  UNL1        0.0000
     15 C           6.8867   42.5942    5.5647 C.3     1  UNL1        0.0000
     16 O          11.4057   41.2212    8.6999 O.2     1  UNL1        0.0000
     17 C          11.9980   40.9853    9.7890 C.2     1  UNL1        0.0000
     18 N          11.2486   40.7933   10.9925 N.am    1  UNL1        0.0000
     19 H          11.7199   40.3943   11.7593 H       1  UNL1        0.0000
     20 O          13.3930   40.8599    9.8317 O.3     1  UNL1        0.0000
     21 C          14.0921   39.6249   10.0056 C.3     1  UNL1        0.0000
     22 C          15.5536   39.7758    9.6205 C.3     1  UNL1        0.0000
     23 C          13.4650   38.5821    9.1050 C.3     1  UNL1        0.0000
     24 C          13.9854   39.1449   11.4430 C.3     1  UNL1        0.0000
     25 O          10.0939   41.1868   13.5993 O.3     1  UNL1        0.0000
     26 C           9.5494   40.8804   14.8758 C.3     1  UNL1        0.0000
@<TRIPOS>BOND
     1     7     8    1
     2     7     1    1
     3     7     9    1
     4    10     8    1
     5    10    11    1
     6    10    14    1
     7    10    15    1
     8    11     9    1
     9    11    12    1
    10    11    13    1
    11     2     3   ar
    12     3    18    1
    13     4     5   ar
    14     4    25    1
    15     6     1   ar
    16    26    25    1
    17    17    20    1
    18    21    20    1
    19    21    22    1
    20    21    23    1
    21    21    24    1
    22    18    17   am
    23     1     2   ar
    24     3     4   ar
    25     5     6   ar
    26    17    16    2
    27    18    19    1
@<TRIPOS>MOLECULE
Molport-047-891-363 MCULE-4209140988 PubChem-160480027 PubChem-67268484
 26 27 0 0 0
SMALL
GASTEIGER

@<TRIPOS>ATOM
      1 C           7.5971   42.1534    6.4268 C.ar    1  UNL1        0.0000
      2 C           7.8654   41.8871    7.7723 C.ar    1  UNL1        0.0000
      3 C           7.1086   42.4856    8.7852 C.ar    1  UNL1        0.0000
      4 C           6.0303   43.3305    8.4422 C.ar    1  UNL1        0.0000
      5 C           5.7741   43.6000    7.0872 C.ar    1  UNL1        0.0000
      6 C           6.5554   43.0193    6.0870 C.ar    1  UNL1        0.0000
      7 B           8.4633   41.4858    5.3054 B       1  UNL1        0.0000
      8 O           9.8953   41.7336    5.2885 O.3     1  UNL1        0.0000
      9 O           8.1253   40.1415    4.8690 O.3     1  UNL1        0.0000
     10 C          10.4026   40.4600    5.5867 C.3     1  UNL1        0.0000
     11 C           9.2435   39.4155    5.3063 C.3     1  UNL1        0.0000
     12 C           9.5904   38.4063    4.2153 C.3     1  UNL1        0.0000
     13 C           8.8418   38.5989    6.5363 C.3     1  UNL1        0.0000
     14 C          10.8920   40.4597    7.0366 C.3     1  UNL1        0.0000
     15 C          11.6372   40.2415    4.7168 C.3     1  UNL1        0.0000
     16 O           9.1594   43.6949   10.4656 O.2     1  UNL1        0.0000
     17 C           8.3432   42.8787   10.9755 C.2     1  UNL1        0.0000
     18 N           7.4231   42.1631   10.1460 N.am    1  UNL1        0.0000
     19 H           6.9685   41.3850   10.5425 H       1  UNL1        0.0000
     20 O           8.3542   42.6229   12.3532 O.3     1  UNL1        0.0000
     21 C           8.8226   41.4111   12.9502 C.3     1  UNL1        0.0000
     22 C           8.9685   41.5738   14.4532 C.3     1  UNL1        0.0000
     23 C          10.1811   41.0789   12.3706 C.3     1  UNL1        0.0000
     24 C           7.8767   40.2619   12.6462 C.3     1  UNL1        0.0000
     25 O           5.2101   43.8638    9.4432 O.3     1  UNL1        0.0000
     26 C           3.9388   43.3199    9.7714 C.3     1  UNL1        0.0000
@<TRIPOS>BOND
     1     7     8    1
     2     7     1    1
     3     7     9    1
     4    10     8    1
     5    10    11    1
     6    10    14    1
     7    10    15    1
     8    11     9    1
     9    11    12    1
    10    11    13    1
    11     2     3   ar
    12     3    18    1
    13     4     5   ar
    14     4    25    1
    15     6     1   ar
    16    26    25    1
    17    17    20    1
    18    21    20    1
    19    21    22    1
    20    21    23    1
    21    21    24    1
    22    18    17   am
    23     1     2   ar
    24     3     4   ar
    25     5     6   ar
    26    17    16    2
    27    18    19    1
@<TRIPOS>MOLECULE
Molport-047-891-363 MCULE-4209140988 PubChem-160480027 PubChem-67268484
 26 27 0 0 0
SMALL
GASTEIGER

@<TRIPOS>ATOM
      1 C          11.2193   40.5011    9.7774 C.ar    1  UNL1        0.0000
      2 C           9.9932   40.6237   10.4371 C.ar    1  UNL1        0.0000
      3 C           9.4181   41.8807   10.6511 C.ar    1  UNL1        0.0000
      4 C          10.0606   43.0347   10.1516 C.ar    1  UNL1        0.0000
      5 C          11.2974   42.9027    9.4981 C.ar    1  UNL1        0.0000
      6 C          11.8748   41.6450    9.3169 C.ar    1  UNL1        0.0000
      7 B          11.8563   39.0869    9.5586 B       1  UNL1        0.0000
      8 O          12.9005   38.9385    8.5586 O.3     1  UNL1        0.0000
      9 O          12.0638   38.2281   10.7123 O.3     1  UNL1        0.0000
     10 C          14.0134   38.6404    9.3592 C.3     1  UNL1        0.0000
     11 C          13.4644   38.1693   10.7697 C.3     1  UNL1        0.0000
     12 C          13.8493   36.7345   11.1194 C.3     1  UNL1        0.0000
     13 C          13.9397   39.0389   11.9354 C.3     1  UNL1        0.0000
     14 C          14.9061   39.8813    9.4308 C.3     1  UNL1        0.0000
     15 C          14.8252   37.5687    8.6373 C.3     1  UNL1        0.0000
     16 O           6.7698   41.5845    9.4718 O.2     1  UNL1        0.0000
     17 C           6.8848   41.6504   10.7267 C.2     1  UNL1        0.0000
     18 N           8.1528   41.9411   11.3221 N.am    1  UNL1        0.0000
     19 H           8.1566   42.2044   12.2707 H       1  UNL1        0.0000
     20 O           5.7674   41.4880   11.5566 O.3     1  UNL1        0.0000
     21 C           4.4501   41.1806   11.0937 C.3     1  UNL1        0.0000
     22 C           4.4277   41.0561    9.5801 C.3     1  UNL1        0.0000
     23 C           3.5205   42.3058   11.4953 C.3     1  UNL1        0.0000
     24 C           3.9461   39.8933   11.7236 C.3     1  UNL1        0.0000
     25 O           9.4519   44.2886   10.2802 O.3     1  UNL1        0.0000
     26 C           8.4500   44.7561    9.3873 C.3     1  UNL1        0.0000
@<TRIPOS>BOND
     1     7     8    1
     2     7     1    1
     3     7     9    1
     4    10     8    1
     5    10    11    1
     6    10    14    1
     7    10    15    1
     8    11     9    1
     9    11    12    1
    10    11    13    1
    11     2     3   ar
    12     3    18    1
    13     4     5   ar
    14     4    25    1
    15     6     1   ar
    16    26    25    1
    17    17    20    1
    18    21    20    1
    19    21    22    1
    20    21    23    1
    21    21    24    1
    22    18    17   am
    23     1     2   ar
    24     3     4   ar
    25     5     6   ar
    26    17    16    2
    27    18    19    1
