@<TRIPOS>MOLECULE
Molport-051-666-686 MCULE-6365975377 PubChem-110095411
 27 30 0 0 0
SMALL
GASTEIGER

@<TRIPOS>ATOM
      1 C           8.3984   40.8409    7.5962 C.3     1  UNL1        0.0522
      2 C           9.8837   40.8019    7.6109 C.ar    1  UNL1        0.0635
      3 C          10.6108   41.6215    6.7506 C.ar    1  UNL1        0.0492
      4 C          12.0081   41.5631    6.7873 C.ar    1  UNL1        0.1361
      5 C          11.8927   39.9187    8.4901 C.ar    1  UNL1        0.1411
      6 N          12.6154   40.7127    7.6566 N.ar    1  UNL1       -0.2159
      7 N          10.5327   39.9676    8.4629 N.ar    1  UNL1       -0.2349
      8 C          12.6016   39.0010    9.4300 C.3     1  UNL1        0.0746
      9 C          13.2148   39.7867   10.5875 C.3     1  UNL1        0.0104
     10 C          14.0110   38.8548   11.4949 C.3     1  UNL1        0.0178
     11 C          15.0426   38.0925   10.6674 C.3     1  UNL1        0.0721
     12 C          13.6891   38.2171    8.6959 C.3     1  UNL1        0.0796
     13 N          14.3712   37.3093    9.6274 N.3     1  UNL1       -0.2734
     14 C          15.3771   36.5031    8.9242 C.3     1  UNL1        0.0625
     15 C          15.0124   35.0063    8.8065 C.3     1  UNL1        0.0481
     16 C          16.2335   34.1521    8.4378 C.3     1  UNL1        0.1435
     17 C          17.7729   35.6619    9.0501 C.3     1  UNL1        0.1435
     18 C          16.7785   36.7406    9.5031 C.3     1  UNL1        0.0481
     19 O          17.2816   34.9478    7.9433 O.3     1  UNL1       -0.3537
     20 N          12.8206   42.3774    5.9314 N.pl3   1  UNL1       -0.2781
     21 H          12.4842   42.5336    5.0194 H       1  UNL1        0.1555
     22 C          14.0723   42.9866    6.2692 C.ar    1  UNL1        0.1642
     23 C          16.0861   43.2430    7.2078 C.ar    1  UNL1        0.0678
     24 C          16.0397   44.4556    6.5206 C.ar    1  UNL1        0.0528
     25 C          17.2501   42.8522    8.0451 C.3     1  UNL1        0.0527
     26 N          15.0032   42.4314    7.0712 N.ar    1  UNL1       -0.2283
     27 S          14.5611   44.4871    5.7113 S.2     1  UNL1       -0.0512
@<TRIPOS>BOND
     1     1     2    1
     2     2     7   ar
     3     3     4   ar
     4     4    20    1
     5     5     6   ar
     6     8     5    1
     7     8     9    1
     8     9    10    1
     9    10    11    1
    10    11    13    1
    11    12    13    1
    12    12     8    1
    13    14    13    1
    14    14    15    1
    15    15    16    1
    16    16    19    1
    17    17    19    1
    18    17    18    1
    19    18    14    1
    20    22    27   ar
    21    23    26   ar
    22    24    27   ar
    23    25    23    1
    24    20    22    1
    25     2     3   ar
    26     4     6   ar
    27     5     7   ar
    28    22    26   ar
    29    23    24   ar
    30    20    21    1
@<TRIPOS>MOLECULE
Molport-051-666-686 MCULE-6365975377 PubChem-110095411
 27 30 0 0 0
SMALL
GASTEIGER

@<TRIPOS>ATOM
      1 C           8.8845   41.3663    8.9797 C.3     1  UNL1        0.0522
      2 C          10.2149   40.9678    8.4513 C.ar    1  UNL1        0.0635
      3 C          10.8808   41.7922    7.5472 C.ar    1  UNL1        0.0492
      4 C          12.1321   41.3909    7.0671 C.ar    1  UNL1        0.1361
      5 C          11.9998   39.4195    8.3759 C.ar    1  UNL1        0.1411
      6 N          12.6614   40.2137    7.4934 N.ar    1  UNL1       -0.2159
      7 N          10.7818   39.8004    8.8496 N.ar    1  UNL1       -0.2349
      8 C          12.6198   38.1358    8.8183 C.3     1  UNL1        0.0746
      9 C          11.7278   37.4325    9.8396 C.3     1  UNL1        0.0104
     10 C          12.4079   36.1674   10.3520 C.3     1  UNL1        0.0178
     11 C          13.7920   36.5140   10.8945 C.3     1  UNL1        0.0721
     12 C          14.0032   38.3869    9.4174 C.3     1  UNL1        0.0796
     13 N          14.6082   37.1162    9.8377 N.3     1  UNL1       -0.2734
     14 C          15.9640   37.3334   10.3581 C.3     1  UNL1        0.0625
     15 C          16.2651   38.8015   10.7338 C.3     1  UNL1        0.0481
     16 C          17.7724   39.0508   10.8846 C.3     1  UNL1        0.1435
     17 C          18.4284   37.2381    9.7410 C.3     1  UNL1        0.1435
     18 C          17.0180   36.7187    9.4270 C.3     1  UNL1        0.0481
     19 O          18.4791   37.8419   11.0094 O.3     1  UNL1       -0.3537
     20 N          12.8746   42.1885    6.1353 N.pl3   1  UNL1       -0.2781
     21 H          12.4854   42.2976    5.2376 H       1  UNL1        0.1555
     22 C          14.1255   42.8428    6.3787 C.ar    1  UNL1        0.1642
     23 C          16.1339   43.2450    7.2770 C.ar    1  UNL1        0.0678
     24 C          16.0946   44.3308    6.4028 C.ar    1  UNL1        0.0528
     25 C          17.2917   42.9930    8.1740 C.3     1  UNL1        0.0527
     26 N          15.0501   42.4233    7.2660 N.ar    1  UNL1       -0.2283
     27 S          14.6212   44.2330    5.5892 S.2     1  UNL1       -0.0512
@<TRIPOS>BOND
     1     1     2    1
     2     2     7   ar
     3     3     4   ar
     4     4    20    1
     5     5     6   ar
     6     8     5    1
     7     8     9    1
     8     9    10    1
     9    10    11    1
    10    11    13    1
    11    12    13    1
    12    12     8    1
    13    14    13    1
    14    14    15    1
    15    15    16    1
    16    16    19    1
    17    17    19    1
    18    17    18    1
    19    18    14    1
    20    22    27   ar
    21    23    26   ar
    22    24    27   ar
    23    25    23    1
    24    20    22    1
    25     2     3   ar
    26     4     6   ar
    27     5     7   ar
    28    22    26   ar
    29    23    24   ar
    30    20    21    1
@<TRIPOS>MOLECULE
Molport-051-666-686 MCULE-6365975377 PubChem-110095411
 27 30 0 0 0
SMALL
GASTEIGER

@<TRIPOS>ATOM
      1 C          10.7571   40.7519   11.0667 C.3     1  UNL1        0.0522
      2 C          11.9936   40.5900   10.2587 C.ar    1  UNL1        0.0635
      3 C          12.1653   41.3312    9.0918 C.ar    1  UNL1        0.0492
      4 C          13.3399   41.1577    8.3519 C.ar    1  UNL1        0.1361
      5 C          14.0954   39.5589    9.9299 C.ar    1  UNL1        0.1411
      6 N          14.2769   40.2753    8.7892 N.ar    1  UNL1       -0.2159
      7 N          12.9564   39.7199   10.6576 N.ar    1  UNL1       -0.2349
      8 C          15.1518   38.6023   10.3736 C.3     1  UNL1        0.0746
      9 C          16.4630   39.3378   10.6440 C.3     1  UNL1        0.0104
     10 C          17.5598   38.3439   11.0111 C.3     1  UNL1        0.0178
     11 C          17.6753   37.2826    9.9201 C.3     1  UNL1        0.0721
     12 C          15.3690   37.5167    9.3199 C.3     1  UNL1        0.0796
     13 N          16.4013   36.5750    9.7724 N.3     1  UNL1       -0.2734
     14 C          16.5773   35.4899    8.7988 C.3     1  UNL1        0.0625
     15 C          18.0530   35.1851    8.4576 C.3     1  UNL1        0.0481
     16 C          18.1781   34.3503    7.1753 C.3     1  UNL1        0.1435
     17 C          16.1318   34.8162    6.3882 C.3     1  UNL1        0.1435
     18 C          15.7031   35.7145    7.5574 C.3     1  UNL1        0.0481
     19 O          16.9497   33.7612    6.8287 O.3     1  UNL1       -0.3537
     20 N          13.5845   41.8865    7.1417 N.pl3   1  UNL1       -0.2781
     21 H          12.9810   41.7040    6.3855 H       1  UNL1        0.1555
     22 C          14.6182   42.8535    6.9217 C.ar    1  UNL1        0.1642
     23 C          16.6042   43.8669    7.0982 C.ar    1  UNL1        0.0678
     24 C          16.0147   44.7566    6.2005 C.ar    1  UNL1        0.0528
     25 C          17.9927   44.0488    7.5958 C.3     1  UNL1        0.0527
     26 N          15.8369   42.8172    7.4975 N.ar    1  UNL1       -0.2283
     27 S          14.4585   44.1772    5.9097 S.2     1  UNL1       -0.0512
@<TRIPOS>BOND
     1     1     2    1
     2     2     7   ar
     3     3     4   ar
     4     4    20    1
     5     5     6   ar
     6     8     5    1
     7     8     9    1
     8     9    10    1
     9    10    11    1
    10    11    13    1
    11    12    13    1
    12    12     8    1
    13    14    13    1
    14    14    15    1
    15    15    16    1
    16    16    19    1
    17    17    19    1
    18    17    18    1
    19    18    14    1
    20    22    27   ar
    21    23    26   ar
    22    24    27   ar
    23    25    23    1
    24    20    22    1
    25     2     3   ar
    26     4     6   ar
    27     5     7   ar
    28    22    26   ar
    29    23    24   ar
    30    20    21    1
@<TRIPOS>MOLECULE
Molport-051-666-686 MCULE-6365975377 PubChem-110095411
 27 30 0 0 0
SMALL
GASTEIGER

@<TRIPOS>ATOM
      1 C          13.3643   39.8549   10.8781 C.3     1  UNL1        0.0522
      2 C          12.6862   40.2894    9.6294 C.ar    1  UNL1        0.0635
      3 C          13.4092   40.9467    8.6364 C.ar    1  UNL1        0.0492
      4 C          12.7438   41.3437    7.4716 C.ar    1  UNL1        0.1361
      5 C          10.7245   40.4368    8.3183 C.ar    1  UNL1        0.1411
      6 N          11.4170   41.0789    7.3407 N.ar    1  UNL1       -0.2159
      7 N          11.3620   40.0460    9.4557 N.ar    1  UNL1       -0.2349
      8 C           9.2687   40.1651    8.1313 C.3     1  UNL1        0.0746
      9 C           8.9872   39.7076    6.7013 C.3     1  UNL1        0.0104
     10 C           7.4884   39.5172    6.4935 C.3     1  UNL1        0.0178
     11 C           6.7517   40.7986    6.8749 C.3     1  UNL1        0.0721
     12 C           8.4450   41.4116    8.4532 C.3     1  UNL1        0.0796
     13 N           7.0144   41.1291    8.2776 N.3     1  UNL1       -0.2734
     14 C           6.2052   42.2984    8.6437 C.3     1  UNL1        0.0625
     15 C           4.7746   41.9506    9.1125 C.3     1  UNL1        0.0481
     16 C           3.8577   43.1817    9.0977 C.3     1  UNL1        0.1435
     17 C           5.1303   44.4090    7.7199 C.3     1  UNL1        0.1435
     18 C           6.2375   43.3610    7.5367 C.3     1  UNL1        0.0481
     19 O           4.6028   44.3714    9.0224 O.3     1  UNL1       -0.3537
     20 N          13.4237   42.0239    6.4082 N.pl3   1  UNL1       -0.2781
     21 H          13.0951   41.8579    5.4951 H       1  UNL1        0.1555
     22 C          14.5329   42.9207    6.5403 C.ar    1  UNL1        0.1642
     23 C          16.4657   43.7581    7.2925 C.ar    1  UNL1        0.0678
     24 C          16.1718   44.7581    6.3660 C.ar    1  UNL1        0.0528
     25 C          17.6931   43.7912    8.1297 C.3     1  UNL1        0.0527
     26 N          15.5643   42.7443    7.3908 N.ar    1  UNL1       -0.2283
     27 S          14.7077   44.3271    5.6496 S.2     1  UNL1       -0.0512
@<TRIPOS>BOND
     1     1     2    1
     2     2     7   ar
     3     3     4   ar
     4     4    20    1
     5     5     6   ar
     6     8     5    1
     7     8     9    1
     8     9    10    1
     9    10    11    1
    10    11    13    1
    11    12    13    1
    12    12     8    1
    13    14    13    1
    14    14    15    1
    15    15    16    1
    16    16    19    1
    17    17    19    1
    18    17    18    1
    19    18    14    1
    20    22    27   ar
    21    23    26   ar
    22    24    27   ar
    23    25    23    1
    24    20    22    1
    25     2     3   ar
    26     4     6   ar
    27     5     7   ar
    28    22    26   ar
    29    23    24   ar
    30    20    21    1
@<TRIPOS>MOLECULE
Molport-051-666-686 MCULE-6365975377 PubChem-110095411
 27 30 0 0 0
SMALL
GASTEIGER

@<TRIPOS>ATOM
      1 C          14.1150   38.6440   10.9938 C.3     1  UNL1        0.0522
      2 C          13.3937   39.7228   10.2700 C.ar    1  UNL1        0.0635
      3 C          13.8655   40.1716    9.0385 C.ar    1  UNL1        0.0492
      4 C          13.1653   41.1884    8.3804 C.ar    1  UNL1        0.1361
      5 C          11.6013   41.2604   10.1597 C.ar    1  UNL1        0.1411
      6 N          12.0497   41.7083    8.9573 N.ar    1  UNL1       -0.2159
      7 N          12.2747   40.2713   10.8086 N.ar    1  UNL1       -0.2349
      8 C          10.3704   41.8590   10.7551 C.3     1  UNL1        0.0746
      9 C           9.8341   40.9759   11.8803 C.3     1  UNL1        0.0104
     10 C           8.5291   41.5480   12.4238 C.3     1  UNL1        0.0178
     11 C           7.5374   41.7386   11.2792 C.3     1  UNL1        0.0721
     12 C           9.2965   42.0523    9.6850 C.3     1  UNL1        0.0796
     13 N           8.0953   42.6527   10.2797 N.3     1  UNL1       -0.2734
     14 C           7.0765   42.9031    9.2522 C.3     1  UNL1        0.0625
     15 C           7.1327   44.3225    8.6444 C.3     1  UNL1        0.0481
     16 C           5.8399   44.6694    7.8928 C.3     1  UNL1        0.1435
     17 C           4.5715   43.0970    8.8640 C.3     1  UNL1        0.1435
     18 C           5.6790   42.5147    9.7540 C.3     1  UNL1        0.0481
     19 O           5.0820   43.5165    7.6231 O.3     1  UNL1       -0.3537
     20 N          13.5922   41.6993    7.1106 N.pl3   1  UNL1       -0.2781
     21 H          13.1693   41.3093    6.3117 H       1  UNL1        0.1555
     22 C          14.5721   42.7201    6.8870 C.ar    1  UNL1        0.1642
     23 C          16.5057   43.8326    7.0482 C.ar    1  UNL1        0.0678
     24 C          15.8596   44.6989    6.1668 C.ar    1  UNL1        0.0528
     25 C          17.8895   44.0810    7.5299 C.3     1  UNL1        0.0527
     26 N          15.7985   42.7412    7.4469 N.ar    1  UNL1       -0.2283
     27 S          14.3314   44.0430    5.8900 S.2     1  UNL1       -0.0512
@<TRIPOS>BOND
     1     1     2    1
     2     2     7   ar
     3     3     4   ar
     4     4    20    1
     5     5     6   ar
     6     8     5    1
     7     8     9    1
     8     9    10    1
     9    10    11    1
    10    11    13    1
    11    12    13    1
    12    12     8    1
    13    14    13    1
    14    14    15    1
    15    15    16    1
    16    16    19    1
    17    17    19    1
    18    17    18    1
    19    18    14    1
    20    22    27   ar
    21    23    26   ar
    22    24    27   ar
    23    25    23    1
    24    20    22    1
    25     2     3   ar
    26     4     6   ar
    27     5     7   ar
    28    22    26   ar
    29    23    24   ar
    30    20    21    1
@<TRIPOS>MOLECULE
Molport-051-666-686 MCULE-6365975377 PubChem-110095411
 27 30 0 0 0
SMALL
GASTEIGER

@<TRIPOS>ATOM
      1 C           9.3871   38.8483    5.4019 C.3     1  UNL1        0.0522
      2 C           9.9817   40.0040    6.1221 C.ar    1  UNL1        0.0635
      3 C          11.0576   40.6927    5.5662 C.ar    1  UNL1        0.0492
      4 C          11.5963   41.7768    6.2672 C.ar    1  UNL1        0.1361
      5 C          10.0088   41.4457    7.9956 C.ar    1  UNL1        0.1411
      6 N          11.0585   42.1272    7.4655 N.ar    1  UNL1       -0.2159
      7 N           9.4767   40.3893    7.3219 N.ar    1  UNL1       -0.2349
      8 C           9.4488   41.8665    9.3136 C.3     1  UNL1        0.0746
      9 C          10.1101   41.0898   10.4507 C.3     1  UNL1        0.0104
     10 C           9.4715   41.4612   11.7848 C.3     1  UNL1        0.0178
     11 C           7.9617   41.2506   11.7061 C.3     1  UNL1        0.0721
     12 C           7.9356   41.6538    9.3459 C.3     1  UNL1        0.0796
     13 N           7.3944   42.0824   10.6422 N.3     1  UNL1       -0.2734
     14 C           5.9328   41.9432   10.6666 C.3     1  UNL1        0.0625
     15 C           5.4290   40.7530   11.5132 C.3     1  UNL1        0.0481
     16 C           3.9676   40.4079   11.1938 C.3     1  UNL1        0.1435
     17 C           3.9026   41.4588    9.2151 C.3     1  UNL1        0.1435
     18 C           5.3523   41.9638    9.2459 C.3     1  UNL1        0.0481
     19 O           3.3360   41.4558   10.5016 O.3     1  UNL1       -0.3537
     20 N          12.7031   42.5316    5.7561 N.pl3   1  UNL1       -0.2781
     21 H          12.5719   42.9765    4.8877 H       1  UNL1        0.1555
     22 C          13.9803   42.7036    6.3815 C.ar    1  UNL1        0.1642
     23 C          15.7106   42.3112    7.7432 C.ar    1  UNL1        0.0678
     24 C          16.2175   43.4470    7.1125 C.ar    1  UNL1        0.0528
     25 C          16.4688   41.5858    8.7957 C.3     1  UNL1        0.0527
     26 N          14.4779   41.8992    7.3424 N.ar    1  UNL1       -0.2283
     27 S          15.0457   43.9383    6.0045 S.2     1  UNL1       -0.0512
@<TRIPOS>BOND
     1     1     2    1
     2     2     7   ar
     3     3     4   ar
     4     4    20    1
     5     5     6   ar
     6     8     5    1
     7     8     9    1
     8     9    10    1
     9    10    11    1
    10    11    13    1
    11    12    13    1
    12    12     8    1
    13    14    13    1
    14    14    15    1
    15    15    16    1
    16    16    19    1
    17    17    19    1
    18    17    18    1
    19    18    14    1
    20    22    27   ar
    21    23    26   ar
    22    24    27   ar
    23    25    23    1
    24    20    22    1
    25     2     3   ar
    26     4     6   ar
    27     5     7   ar
    28    22    26   ar
    29    23    24   ar
    30    20    21    1
@<TRIPOS>MOLECULE
Molport-051-666-686 MCULE-6365975377 PubChem-110095411
 27 30 0 0 0
SMALL
GASTEIGER

@<TRIPOS>ATOM
      1 C          16.3318   44.7406    6.1904 C.3     1  UNL1        0.0522
      2 C          15.9763   43.5316    6.9777 C.ar    1  UNL1        0.0635
      3 C          16.9283   42.9289    7.7969 C.ar    1  UNL1        0.0492
      4 C          16.5644   41.7919    8.5264 C.ar    1  UNL1        0.1361
      5 C          14.3804   41.9073    7.6133 C.ar    1  UNL1        0.1411
      6 N          15.2987   41.3086    8.4168 N.ar    1  UNL1       -0.2159
      7 N          14.7237   43.0141    6.8991 N.ar    1  UNL1       -0.2349
      8 C          13.0013   41.3432    7.5248 C.3     1  UNL1        0.0746
      9 C          12.3628   41.6940    6.1822 C.3     1  UNL1        0.0104
     10 C          10.9241   41.1905    6.1343 C.3     1  UNL1        0.0178
     11 C          10.1509   41.7349    7.3327 C.3     1  UNL1        0.0721
     12 C          12.1336   41.8664    8.6691 C.3     1  UNL1        0.0796
     13 N          10.7834   41.2955    8.5787 N.3     1  UNL1       -0.2734
     14 C           9.9552   41.7393    9.7072 C.3     1  UNL1        0.0625
     15 C          10.3033   41.0564   11.0487 C.3     1  UNL1        0.0481
     16 C           9.1856   41.2390   12.0851 C.3     1  UNL1        0.1435
     17 C           7.5795   41.7636   10.6122 C.3     1  UNL1        0.1435
     18 C           8.4621   41.6643    9.3596 C.3     1  UNL1        0.0481
     19 O           8.3032   42.2662   11.7076 O.3     1  UNL1       -0.3537
     20 N          17.4915   41.1199    9.3893 N.pl3   1  UNL1       -0.2781
     21 H          18.3625   41.5570    9.5294 H       1  UNL1        0.1555
     22 C          17.2784   39.8767   10.0683 C.ar    1  UNL1        0.1642
     23 C          16.1933   38.2340   11.1297 C.ar    1  UNL1        0.0678
     24 C          17.4682   37.6697   11.1570 C.ar    1  UNL1        0.0528
     25 C          15.0130   37.5510   11.7205 C.3     1  UNL1        0.0527
     26 N          16.0856   39.4503   10.5305 N.ar    1  UNL1       -0.2283
     27 S          18.4905   38.7671   10.3869 S.2     1  UNL1       -0.0512
@<TRIPOS>BOND
     1     1     2    1
     2     2     7   ar
     3     3     4   ar
     4     4    20    1
     5     5     6   ar
     6     8     5    1
     7     8     9    1
     8     9    10    1
     9    10    11    1
    10    11    13    1
    11    12    13    1
    12    12     8    1
    13    14    13    1
    14    14    15    1
    15    15    16    1
    16    16    19    1
    17    17    19    1
    18    17    18    1
    19    18    14    1
    20    22    27   ar
    21    23    26   ar
    22    24    27   ar
    23    25    23    1
    24    20    22    1
    25     2     3   ar
    26     4     6   ar
    27     5     7   ar
    28    22    26   ar
    29    23    24   ar
    30    20    21    1
@<TRIPOS>MOLECULE
Molport-051-666-686 MCULE-6365975377 PubChem-110095411
 27 30 0 0 0
SMALL
GASTEIGER

@<TRIPOS>ATOM
      1 C          15.8955   43.6893    6.8075 C.3     1  UNL1        0.0522
      2 C          14.7505   42.7621    7.0003 C.ar    1  UNL1        0.0635
      3 C          13.5967   42.9110    6.2341 C.ar    1  UNL1        0.0492
      4 C          12.5352   42.0229    6.4378 C.ar    1  UNL1        0.1361
      5 C          13.7894   40.9110    8.1133 C.ar    1  UNL1        0.1411
      6 N          12.6574   41.0440    7.3729 N.ar    1  UNL1       -0.2159
      7 N          14.8285   41.7695    7.9232 N.ar    1  UNL1       -0.2349
      8 C          13.8808   39.8201    9.1280 C.3     1  UNL1        0.0746
      9 C          13.2060   40.2418   10.4320 C.3     1  UNL1        0.0104
     10 C          13.3803   39.1583   11.4909 C.3     1  UNL1        0.0178
     11 C          14.8632   38.8353   11.6539 C.3     1  UNL1        0.0721
     12 C          15.3409   39.4523    9.3900 C.3     1  UNL1        0.0796
     13 N          15.4178   38.3704   10.3803 N.3     1  UNL1       -0.2734
     14 C          16.8117   37.9622   10.5965 C.3     1  UNL1        0.0625
     15 C          17.8174   39.1352   10.5950 C.3     1  UNL1        0.0481
     16 C          19.2616   38.6440   10.4224 C.3     1  UNL1        0.1435
     17 C          18.7301   36.6319    9.5900 C.3     1  UNL1        0.1435
     18 C          17.2078   36.8244    9.6457 C.3     1  UNL1        0.0481
     19 O          19.3643   37.2646   10.6734 O.3     1  UNL1       -0.3537
     20 N          11.3180   42.1160    5.6857 N.pl3   1  UNL1       -0.2781
     21 H          11.0468   43.0158    5.3923 H       1  UNL1        0.1555
     22 C          10.4567   41.0320    5.3183 C.ar    1  UNL1        0.1642
     23 C           9.6624   39.2961    4.1528 C.ar    1  UNL1        0.0678
     24 C           8.6848   39.3222    5.1470 C.ar    1  UNL1        0.0528
     25 C           9.6439   38.2990    3.0510 C.3     1  UNL1        0.0527
     26 N          10.6401   40.2372    4.2446 N.ar    1  UNL1       -0.2283
     27 S           9.0883   40.5942    6.1773 S.2     1  UNL1       -0.0512
@<TRIPOS>BOND
     1     1     2    1
     2     2     7   ar
     3     3     4   ar
     4     4    20    1
     5     5     6   ar
     6     8     5    1
     7     8     9    1
     8     9    10    1
     9    10    11    1
    10    11    13    1
    11    12    13    1
    12    12     8    1
    13    14    13    1
    14    14    15    1
    15    15    16    1
    16    16    19    1
    17    17    19    1
    18    17    18    1
    19    18    14    1
    20    22    27   ar
    21    23    26   ar
    22    24    27   ar
    23    25    23    1
    24    20    22    1
    25     2     3   ar
    26     4     6   ar
    27     5     7   ar
    28    22    26   ar
    29    23    24   ar
    30    20    21    1
@<TRIPOS>MOLECULE
Molport-051-666-686 MCULE-6365975377 PubChem-110095411
 27 30 0 0 0
SMALL
GASTEIGER

@<TRIPOS>ATOM
      1 C          16.5944   44.2935    6.0168 C.3     1  UNL1        0.0522
      2 C          15.9705   43.3316    6.9620 C.ar    1  UNL1        0.0635
      3 C          16.7728   42.5109    7.7516 C.ar    1  UNL1        0.0492
      4 C          16.1570   41.6153    8.6325 C.ar    1  UNL1        0.1361
      5 C          14.0299   42.3772    7.9170 C.ar    1  UNL1        0.1411
      6 N          14.7998   41.5702    8.6938 N.ar    1  UNL1       -0.2159
      7 N          14.6186   43.2524    7.0566 N.ar    1  UNL1       -0.2349
      8 C          12.5429   42.2951    8.0185 C.3     1  UNL1        0.0746
      9 C          12.1316   41.5487    9.2862 C.3     1  UNL1        0.0104
     10 C          10.6156   41.3920    9.3381 C.3     1  UNL1        0.0178
     11 C          10.1257   40.7233    8.0563 C.3     1  UNL1        0.0721
     12 C          11.9591   41.5993    6.7893 C.3     1  UNL1        0.0796
     13 N          10.4956   41.5352    6.8945 N.3     1  UNL1       -0.2734
     14 C           9.9145   40.9255    5.6917 C.3     1  UNL1        0.0625
     15 C           8.8674   39.8283    5.9867 C.3     1  UNL1        0.0481
     16 C           8.5912   38.9607    4.7507 C.3     1  UNL1        0.1435
     17 C          10.4620   39.5159    3.6480 C.3     1  UNL1        0.1435
     18 C          11.0106   40.4699    4.7188 C.3     1  UNL1        0.0481
     19 O           9.0594   39.5796    3.5785 O.3     1  UNL1       -0.3537
     20 N          16.9190   40.7409    9.4753 N.pl3   1  UNL1       -0.2781
     21 H          17.6273   41.1561   10.0187 H       1  UNL1        0.1555
     22 C          16.7539   39.3240    9.6066 C.ar    1  UNL1        0.1642
     23 C          15.8130   37.3034    9.4222 C.ar    1  UNL1        0.0678
     24 C          16.9723   36.9139   10.0924 C.ar    1  UNL1        0.0528
     25 C          14.7656   36.3283    9.0211 C.3     1  UNL1        0.0527
     26 N          15.6899   38.6310    9.1532 N.ar    1  UNL1       -0.2283
     27 S          17.8684   38.3189   10.3478 S.2     1  UNL1       -0.0512
@<TRIPOS>BOND
     1     1     2    1
     2     2     7   ar
     3     3     4   ar
     4     4    20    1
     5     5     6   ar
     6     8     5    1
     7     8     9    1
     8     9    10    1
     9    10    11    1
    10    11    13    1
    11    12    13    1
    12    12     8    1
    13    14    13    1
    14    14    15    1
    15    15    16    1
    16    16    19    1
    17    17    19    1
    18    17    18    1
    19    18    14    1
    20    22    27   ar
    21    23    26   ar
    22    24    27   ar
    23    25    23    1
    24    20    22    1
    25     2     3   ar
    26     4     6   ar
    27     5     7   ar
    28    22    26   ar
    29    23    24   ar
    30    20    21    1
@<TRIPOS>MOLECULE
Molport-051-666-686 MCULE-6365975377 PubChem-110095411
 27 30 0 0 0
SMALL
GASTEIGER

@<TRIPOS>ATOM
      1 C          10.7698   41.4557    5.6108 C.3     1  UNL1        0.0522
      2 C          11.3087   41.4595    6.9955 C.ar    1  UNL1        0.0635
      3 C          12.6602   41.2054    7.2178 C.ar    1  UNL1        0.0492
      4 C          13.1388   41.2158    8.5323 C.ar    1  UNL1        0.1361
      5 C          10.9605   41.7181    9.3195 C.ar    1  UNL1        0.1411
      6 N          12.2769   41.4720    9.5517 N.ar    1  UNL1       -0.2159
      7 N          10.4842   41.7106    8.0444 N.ar    1  UNL1       -0.2349
      8 C          10.0503   41.9965   10.4692 C.3     1  UNL1        0.0746
      9 C          10.3875   41.0912   11.6525 C.3     1  UNL1        0.0104
     10 C           9.3982   41.3196   12.7905 C.3     1  UNL1        0.0178
     11 C           7.9732   41.1359   12.2749 C.3     1  UNL1        0.0721
     12 C           8.5915   41.7985   10.0584 C.3     1  UNL1        0.0796
     13 N           7.7051   42.0868   11.1935 N.3     1  UNL1       -0.2734
     14 C           6.2966   41.9621   10.7974 C.3     1  UNL1        0.0625
     15 C           5.5173   40.8814   11.5796 C.3     1  UNL1        0.0481
     16 C           4.2017   40.5125   10.8798 C.3     1  UNL1        0.1435
     17 C           4.7653   41.3283    8.8696 C.3     1  UNL1        0.1435
     18 C           6.1613   41.8228    9.2750 C.3     1  UNL1        0.0481
     19 O           3.8455   41.4780    9.9222 O.3     1  UNL1       -0.3537
     20 N          14.5171   40.9632    8.8360 N.pl3   1  UNL1       -0.2781
     21 H          14.7094   40.1814    9.4027 H       1  UNL1        0.1555
     22 C          15.6427   41.7334    8.3980 C.ar    1  UNL1        0.1642
     23 C          16.8204   43.2401    7.2381 C.ar    1  UNL1        0.0678
     24 C          17.8595   42.7552    8.0318 C.ar    1  UNL1        0.0528
     25 C          17.0294   44.3101    6.2281 C.3     1  UNL1        0.0527
     26 N          15.5976   42.6789    7.4376 N.ar    1  UNL1       -0.2283
     27 S          17.1871   41.5677    9.0218 S.2     1  UNL1       -0.0512
@<TRIPOS>BOND
     1     1     2    1
     2     2     7   ar
     3     3     4   ar
     4     4    20    1
     5     5     6   ar
     6     8     5    1
     7     8     9    1
     8     9    10    1
     9    10    11    1
    10    11    13    1
    11    12    13    1
    12    12     8    1
    13    14    13    1
    14    14    15    1
    15    15    16    1
    16    16    19    1
    17    17    19    1
    18    17    18    1
    19    18    14    1
    20    22    27   ar
    21    23    26   ar
    22    24    27   ar
    23    25    23    1
    24    20    22    1
    25     2     3   ar
    26     4     6   ar
    27     5     7   ar
    28    22    26   ar
    29    23    24   ar
    30    20    21    1
