@<TRIPOS>MOLECULE
MolPort-003-025-636 2716621 CSSS03437093488 ChemDiv-G837-0052 LN01396098 MCULE-9982983503 PubChem-2152296 ZINC000002716621
 28 30 0 0 0
SMALL
GASTEIGER

@<TRIPOS>ATOM
      1 C           9.3667   37.9103    5.5337 C.2     1  UNL1        0.2509
      2 O           9.1961   37.0141    6.4039 O.2     1  UNL1       -0.2698
      3 N          10.1053   37.6338    4.3351 N.am    1  UNL1       -0.2606
      4 H          10.2031   38.3754    3.6950 H       1  UNL1        0.1571
      5 C          13.6685   34.3766    3.8305 C.ar    1  UNL1        0.1566
      6 C          12.3775   34.9086    3.7561 C.ar    1  UNL1        0.1230
      7 C          10.7151   36.3883    3.9751 C.ar    1  UNL1        0.1659
      8 C          11.3378   34.1584    3.2263 C.ar    1  UNL1        0.0527
      9 C          11.5214   32.8631    2.7520 C.ar    1  UNL1        0.0083
     10 C          12.8110   32.3153    2.8217 C.ar    1  UNL1        0.0037
     11 C          13.8764   33.0639    3.3567 C.ar    1  UNL1        0.0385
     12 N          12.0342   36.1541    4.1753 N.ar    1  UNL1       -0.2208
     13 S           9.9249   35.0603    3.2708 S.2     1  UNL1       -0.0513
     14 O          14.7091   35.1424    4.3710 O.3     1  UNL1       -0.4739
     15 C          16.3793   36.3227    3.0869 C.3     1  UNL1        0.0512
     16 C          16.0508   35.0832    3.8987 C.3     1  UNL1        0.2056
     17 C           8.8020   39.2542    5.7493 C.ar    1  UNL1        0.0538
     18 C           7.4618   39.4085    6.1334 C.ar    1  UNL1        0.0059
     19 C           6.9272   40.6836    6.3378 C.ar    1  UNL1        0.0201
     20 C           7.7275   41.8166    6.1585 C.ar    1  UNL1        0.1222
     21 C           9.0649   41.6693    5.7778 C.ar    1  UNL1        0.0201
     22 C           9.5995   40.3943    5.5734 C.ar    1  UNL1        0.0059
     23 O           7.5388   44.3295    5.3217 O.2     1  UNL1       -0.1528
     24 O           5.5630   43.3613    6.3906 O.2     1  UNL1       -0.1528
     25 S           7.0666   43.4217    6.4231 S.O2    1  UNL1        0.0634
     26 C           7.8606   42.8905    8.8218 C.3     1  UNL1        0.1150
     27 C           6.5044   44.7680    8.5513 C.3     1  UNL1        0.1150
     28 N           7.6056   44.0298    7.9569 N.3     1  UNL1       -0.1526
@<TRIPOS>BOND
     1    15    16    1
     2    16    14    1
     3     5    14    1
     4     6    12   ar
     5     7     3    1
     6     7    13   ar
     7     1    17    1
     8    18    19   ar
     9    20    21   ar
    10    22    17   ar
    11    26    28    1
    12    27    28    1
    13     8    13   ar
    14     8     6   ar
    15     9    10   ar
    16    11     5   ar
    17     3     1   am
    18    25    20    1
    19    25    28    1
    20     5     6   ar
    21     7    12   ar
    22     1     2    2
    23    17    18   ar
    24    19    20   ar
    25    21    22   ar
    26     8     9   ar
    27    10    11   ar
    28    25    23    2
    29    25    24    2
    30     3     4    1
@<TRIPOS>MOLECULE
MolPort-003-025-636 2716621 CSSS03437093488 ChemDiv-G837-0052 LN01396098 MCULE-9982983503 PubChem-2152296 ZINC000002716621
 28 30 0 0 0
SMALL
GASTEIGER

@<TRIPOS>ATOM
      1 C           8.3774   40.0791    9.2430 C.2     1  UNL1        0.2509
      2 O           7.8897   39.7452    8.1294 O.2     1  UNL1       -0.2698
      3 N           7.6832   40.9981   10.0987 N.am    1  UNL1       -0.2606
      4 H           8.1164   41.2185   10.9549 H       1  UNL1        0.1571
      5 C           4.6320   44.3361    8.3356 C.ar    1  UNL1        0.1566
      6 C           5.0432   43.1815    9.0086 C.ar    1  UNL1        0.1230
      7 C           6.4237   41.6277    9.8338 C.ar    1  UNL1        0.1659
      8 C           4.1111   42.3520    9.6149 C.ar    1  UNL1        0.0527
      9 C           2.7458   42.6196    9.5845 C.ar    1  UNL1        0.0083
     10 C           2.3182   43.7736    8.9112 C.ar    1  UNL1        0.0037
     11 C           3.2517   44.6253    8.2910 C.ar    1  UNL1        0.0385
     12 N           6.3355   42.7808    9.1285 N.ar    1  UNL1       -0.2208
     13 S           4.9033   41.0616   10.3355 S.2     1  UNL1       -0.0513
     14 O           5.5823   45.1636    7.7242 O.3     1  UNL1       -0.4739
     15 C           7.4341   43.6427    7.4264 C.3     1  UNL1        0.0512
     16 C           6.5430   44.6909    6.7859 C.3     1  UNL1        0.2056
     17 C           9.6723   39.5202    9.6701 C.ar    1  UNL1        0.0538
     18 C          10.0426   38.2198    9.2968 C.ar    1  UNL1        0.0059
     19 C          11.2711   37.6907    9.7023 C.ar    1  UNL1        0.0201
     20 C          12.1402   38.4566   10.4862 C.ar    1  UNL1        0.1222
     21 C          11.7777   39.7544   10.8596 C.ar    1  UNL1        0.0201
     22 C          10.5493   40.2835   10.4542 C.ar    1  UNL1        0.0059
     23 O          13.5372   37.1894   12.3552 O.2     1  UNL1       -0.1528
     24 O          14.1275   36.7353   10.0251 O.2     1  UNL1       -0.1528
     25 S          13.6897   37.8032   10.9912 S.O2    1  UNL1        0.0634
     26 C          14.1946   40.3217   10.7288 C.3     1  UNL1        0.1150
     27 C          15.8300   38.8351    9.9851 C.3     1  UNL1        0.1150
     28 N          14.8694   39.0752   11.0483 N.3     1  UNL1       -0.1526
@<TRIPOS>BOND
     1    15    16    1
     2    16    14    1
     3     5    14    1
     4     6    12   ar
     5     7     3    1
     6     7    13   ar
     7     1    17    1
     8    18    19   ar
     9    20    21   ar
    10    22    17   ar
    11    26    28    1
    12    27    28    1
    13     8    13   ar
    14     8     6   ar
    15     9    10   ar
    16    11     5   ar
    17     3     1   am
    18    25    20    1
    19    25    28    1
    20     5     6   ar
    21     7    12   ar
    22     1     2    2
    23    17    18   ar
    24    19    20   ar
    25    21    22   ar
    26     8     9   ar
    27    10    11   ar
    28    25    23    2
    29    25    24    2
    30     3     4    1
@<TRIPOS>MOLECULE
MolPort-003-025-636 2716621 CSSS03437093488 ChemDiv-G837-0052 LN01396098 MCULE-9982983503 PubChem-2152296 ZINC000002716621
 28 30 0 0 0
SMALL
GASTEIGER

@<TRIPOS>ATOM
      1 C          11.6231   42.0400    8.5728 C.2     1  UNL1        0.2509
      2 O          12.3915   41.4837    9.4032 O.2     1  UNL1       -0.2698
      3 N          12.1566   42.7803    7.4656 N.am    1  UNL1       -0.2606
      4 H          11.5045   43.1907    6.8527 H       1  UNL1        0.1571
      5 C          16.9611   42.5617    8.1215 C.ar    1  UNL1        0.1566
      6 C          15.7507   42.8665    7.4913 C.ar    1  UNL1        0.1230
      7 C          13.5420   42.9830    7.1611 C.ar    1  UNL1        0.1659
      8 C          15.7405   43.5244    6.2700 C.ar    1  UNL1        0.0527
      9 C          16.9107   43.9064    5.6209 C.ar    1  UNL1        0.0083
     10 C          18.1328   43.6057    6.2404 C.ar    1  UNL1        0.0037
     11 C          18.1597   42.9386    7.4797 C.ar    1  UNL1        0.0385
     12 N          14.5254   42.5624    7.9923 N.ar    1  UNL1       -0.2208
     13 S          14.1543   43.7476    5.7739 S.2     1  UNL1       -0.0513
     14 O          16.9583   41.8938    9.3526 O.3     1  UNL1       -0.4739
     15 C          15.8844   39.7869    9.8411 C.3     1  UNL1        0.0512
     16 C          17.1789   40.4934    9.4833 C.3     1  UNL1        0.2056
     17 C          10.1633   41.9289    8.7407 C.ar    1  UNL1        0.0538
     18 C           9.6240   41.3165    9.8815 C.ar    1  UNL1        0.0059
     19 C           8.2393   41.2116   10.0398 C.ar    1  UNL1        0.0201
     20 C           7.3808   41.7169    9.0580 C.ar    1  UNL1        0.1222
     21 C           7.9123   42.3306    7.9195 C.ar    1  UNL1        0.0201
     22 C           9.2970   42.4354    7.7612 C.ar    1  UNL1        0.0059
     23 O           5.0414   42.9713    9.1224 O.2     1  UNL1       -0.1528
     24 O           5.0686   40.7151    8.1776 O.2     1  UNL1       -0.1528
     25 S           5.6400   41.5985    9.2540 S.O2    1  UNL1        0.0634
     26 C           4.0055   41.5123   11.2509 C.3     1  UNL1        0.1150
     27 C           6.2822   41.4230   11.7470 C.3     1  UNL1        0.1150
     28 N           5.2715   40.9448   10.8192 N.3     1  UNL1       -0.1526
@<TRIPOS>BOND
     1    15    16    1
     2    16    14    1
     3     5    14    1
     4     6    12   ar
     5     7     3    1
     6     7    13   ar
     7     1    17    1
     8    18    19   ar
     9    20    21   ar
    10    22    17   ar
    11    26    28    1
    12    27    28    1
    13     8    13   ar
    14     8     6   ar
    15     9    10   ar
    16    11     5   ar
    17     3     1   am
    18    25    20    1
    19    25    28    1
    20     5     6   ar
    21     7    12   ar
    22     1     2    2
    23    17    18   ar
    24    19    20   ar
    25    21    22   ar
    26     8     9   ar
    27    10    11   ar
    28    25    23    2
    29    25    24    2
    30     3     4    1
@<TRIPOS>MOLECULE
MolPort-003-025-636 2716621 CSSS03437093488 ChemDiv-G837-0052 LN01396098 MCULE-9982983503 PubChem-2152296 ZINC000002716621
 28 30 0 0 0
SMALL
GASTEIGER

@<TRIPOS>ATOM
      1 C           5.6053   41.3339   10.2643 C.2     1  UNL1        0.2509
      2 O           6.7072   41.2435   10.8703 O.2     1  UNL1       -0.2698
      3 N           5.5413   41.1874    8.8384 N.am    1  UNL1       -0.2606
      4 H           4.6515   41.2685    8.4251 H       1  UNL1        0.1571
      5 C          10.0899   41.4545    7.1652 C.ar    1  UNL1        0.1566
      6 C           8.7444   41.0767    7.2095 C.ar    1  UNL1        0.1230
      7 C           6.6408   40.9351    7.9550 C.ar    1  UNL1        0.1659
      8 C           8.2102   40.2626    6.2214 C.ar    1  UNL1        0.0527
      9 C           8.9706   39.7879    5.1569 C.ar    1  UNL1        0.0083
     10 C          10.3227   40.1573    5.1002 C.ar    1  UNL1        0.0037
     11 C          10.8794   40.9828    6.0952 C.ar    1  UNL1        0.0385
     12 N           7.8716   41.4545    8.1792 N.ar    1  UNL1       -0.2208
     13 S           6.5882   39.9881    6.5463 S.2     1  UNL1       -0.0513
     14 O          10.6184   42.2738    8.1708 O.3     1  UNL1       -0.4739
     15 C          11.4098   41.0124   10.0717 C.3     1  UNL1        0.0512
     16 C          11.7775   41.9367    8.9257 C.3     1  UNL1        0.2056
     17 C           4.3715   41.5922   11.0274 C.ar    1  UNL1        0.0538
     18 C           3.9249   40.6731   11.9884 C.ar    1  UNL1        0.0059
     19 C           2.7546   40.9192   12.7117 C.ar    1  UNL1        0.0201
     20 C           2.0189   42.0860   12.4799 C.ar    1  UNL1        0.1222
     21 C           2.4601   43.0071   11.5249 C.ar    1  UNL1        0.0201
     22 C           3.6304   42.7612   10.8016 C.ar    1  UNL1        0.0059
     23 O          -0.6342   42.1912   12.4951 O.2     1  UNL1       -0.1528
     24 O           0.4621   41.4569   14.5549 O.2     1  UNL1       -0.1528
     25 S           0.5532   42.4075   13.3916 S.O2    1  UNL1        0.0634
     26 C           0.9091   44.0236   15.3736 C.3     1  UNL1        0.1150
     27 C          -0.7888   44.5594   13.8678 C.3     1  UNL1        0.1150
     28 N           0.5676   44.0471   13.9615 N.3     1  UNL1       -0.1526
@<TRIPOS>BOND
     1    15    16    1
     2    16    14    1
     3     5    14    1
     4     6    12   ar
     5     7     3    1
     6     7    13   ar
     7     1    17    1
     8    18    19   ar
     9    20    21   ar
    10    22    17   ar
    11    26    28    1
    12    27    28    1
    13     8    13   ar
    14     8     6   ar
    15     9    10   ar
    16    11     5   ar
    17     3     1   am
    18    25    20    1
    19    25    28    1
    20     5     6   ar
    21     7    12   ar
    22     1     2    2
    23    17    18   ar
    24    19    20   ar
    25    21    22   ar
    26     8     9   ar
    27    10    11   ar
    28    25    23    2
    29    25    24    2
    30     3     4    1
@<TRIPOS>MOLECULE
MolPort-003-025-636 2716621 CSSS03437093488 ChemDiv-G837-0052 LN01396098 MCULE-9982983503 PubChem-2152296 ZINC000002716621
 28 30 0 0 0
SMALL
GASTEIGER

@<TRIPOS>ATOM
      1 C           3.2965   41.4702   11.6731 C.2     1  UNL1        0.2509
      2 O           3.0446   40.3557   12.2060 O.2     1  UNL1       -0.2698
      3 N           2.5364   42.6358   12.0227 N.am    1  UNL1       -0.2606
      4 H           2.7822   43.4757   11.5718 H       1  UNL1        0.1571
      5 C          -1.5891   44.2703   13.9897 C.ar    1  UNL1        0.1566
      6 C          -0.4474   43.4765   13.8436 C.ar    1  UNL1        0.1230
      7 C           1.4559   42.7017   12.9614 C.ar    1  UNL1        0.1659
      8 C          -0.1687   42.4714   14.7582 C.ar    1  UNL1        0.0527
      9 C          -0.9948   42.2052   15.8460 C.ar    1  UNL1        0.0083
     10 C          -2.1451   42.9924   16.0045 C.ar    1  UNL1        0.0037
     11 C          -2.4416   44.0161   15.0849 C.ar    1  UNL1        0.0385
     12 N           0.4571   43.6085   12.8389 N.ar    1  UNL1       -0.2208
     13 S           1.2554   41.7023   14.3197 S.2     1  UNL1       -0.0513
     14 O          -1.8617   45.2795   13.0576 O.3     1  UNL1       -0.4739
     15 C          -0.9995   47.3663   13.9138 C.3     1  UNL1        0.0512
     16 C          -2.2195   46.6077   13.4248 C.3     1  UNL1        0.2056
     17 C           4.3818   41.5769   10.6821 C.ar    1  UNL1        0.0538
     18 C           5.6175   42.1366   11.0393 C.ar    1  UNL1        0.0059
     19 C           6.6463   42.2372   10.0986 C.ar    1  UNL1        0.0201
     20 C           6.4486   41.7805    8.7914 C.ar    1  UNL1        0.1222
     21 C           5.2199   41.2196    8.4299 C.ar    1  UNL1        0.0201
     22 C           4.1911   41.1189    9.3705 C.ar    1  UNL1        0.0059
     23 O           7.4526   43.0460    6.6840 O.2     1  UNL1       -0.1528
     24 O           9.0477   42.1468    8.3061 O.2     1  UNL1       -0.1528
     25 S           7.7393   41.8939    7.6064 S.O2    1  UNL1        0.0634
     26 C           8.4120   39.4017    7.5504 C.3     1  UNL1        0.1150
     27 C           8.7574   40.6313    5.5995 C.3     1  UNL1        0.1150
     28 N           7.8264   40.4194    6.6946 N.3     1  UNL1       -0.1526
@<TRIPOS>BOND
     1    15    16    1
     2    16    14    1
     3     5    14    1
     4     6    12   ar
     5     7     3    1
     6     7    13   ar
     7     1    17    1
     8    18    19   ar
     9    20    21   ar
    10    22    17   ar
    11    26    28    1
    12    27    28    1
    13     8    13   ar
    14     8     6   ar
    15     9    10   ar
    16    11     5   ar
    17     3     1   am
    18    25    20    1
    19    25    28    1
    20     5     6   ar
    21     7    12   ar
    22     1     2    2
    23    17    18   ar
    24    19    20   ar
    25    21    22   ar
    26     8     9   ar
    27    10    11   ar
    28    25    23    2
    29    25    24    2
    30     3     4    1
@<TRIPOS>MOLECULE
MolPort-003-025-636 2716621 CSSS03437093488 ChemDiv-G837-0052 LN01396098 MCULE-9982983503 PubChem-2152296 ZINC000002716621
 28 30 0 0 0
SMALL
GASTEIGER

@<TRIPOS>ATOM
      1 C           9.4191   41.5002   10.0250 C.2     1  UNL1        0.2509
      2 O          10.0316   42.4034   10.6565 O.2     1  UNL1       -0.2698
      3 N          10.1403   40.4334    9.3923 N.am    1  UNL1       -0.2606
      4 H           9.6044   39.7594    8.9152 H       1  UNL1        0.1571
      5 C          14.3465   38.0513    9.8331 C.ar    1  UNL1        0.1566
      6 C          13.4827   39.1246    9.5943 C.ar    1  UNL1        0.1230
      7 C          11.5612   40.2492    9.3843 C.ar    1  UNL1        0.1659
      8 C          13.9882   40.3725    9.2600 C.ar    1  UNL1        0.0527
      9 C          15.3535   40.6159    9.1459 C.ar    1  UNL1        0.0083
     10 C          16.2324   39.5481    9.3808 C.ar    1  UNL1        0.0037
     11 C          15.7349   38.2759    9.7209 C.ar    1  UNL1        0.0385
     12 N          12.1282   39.0514    9.6648 N.ar    1  UNL1       -0.2208
     13 S          12.7175   41.4439    9.0384 S.2     1  UNL1       -0.0513
     14 O          13.8239   36.7953   10.1661 O.3     1  UNL1       -0.4739
     15 C          11.8146   35.6425   10.8483 C.3     1  UNL1        0.0512
     16 C          12.9338   36.5825   11.2567 C.3     1  UNL1        0.2056
     17 C           7.9487   41.5404    9.9361 C.ar    1  UNL1        0.0538
     18 C           7.3022   41.2554    8.7244 C.ar    1  UNL1        0.0059
     19 C           5.9075   41.2937    8.6412 C.ar    1  UNL1        0.0201
     20 C           5.1463   41.6187    9.7687 C.ar    1  UNL1        0.1222
     21 C           5.7849   41.9016   10.9801 C.ar    1  UNL1        0.0201
     22 C           7.1795   41.8633   11.0633 C.ar    1  UNL1        0.0059
     23 O           2.9558   43.0610    9.3541 O.2     1  UNL1       -0.1528
     24 O           2.9240   40.7412    8.5786 O.2     1  UNL1       -0.1528
     25 S           3.3934   41.6590    9.6753 S.O2    1  UNL1        0.0634
     26 C           2.6643   42.3341   12.0584 C.3     1  UNL1        0.1150
     27 C           3.6435   40.2324   11.8108 C.3     1  UNL1        0.1150
     28 N           2.7159   41.1662   11.1956 N.3     1  UNL1       -0.1526
@<TRIPOS>BOND
     1    15    16    1
     2    16    14    1
     3     5    14    1
     4     6    12   ar
     5     7     3    1
     6     7    13   ar
     7     1    17    1
     8    18    19   ar
     9    20    21   ar
    10    22    17   ar
    11    26    28    1
    12    27    28    1
    13     8    13   ar
    14     8     6   ar
    15     9    10   ar
    16    11     5   ar
    17     3     1   am
    18    25    20    1
    19    25    28    1
    20     5     6   ar
    21     7    12   ar
    22     1     2    2
    23    17    18   ar
    24    19    20   ar
    25    21    22   ar
    26     8     9   ar
    27    10    11   ar
    28    25    23    2
    29    25    24    2
    30     3     4    1
@<TRIPOS>MOLECULE
MolPort-003-025-636 2716621 CSSS03437093488 ChemDiv-G837-0052 LN01396098 MCULE-9982983503 PubChem-2152296 ZINC000002716621
 28 30 0 0 0
SMALL
GASTEIGER

@<TRIPOS>ATOM
      1 C          10.7351   41.9079    9.6422 C.2     1  UNL1        0.2509
      2 O          10.8550   43.1613    9.5764 O.2     1  UNL1       -0.2698
      3 N           9.4511   41.2874    9.4841 N.am    1  UNL1       -0.2606
      4 H           9.4241   40.3053    9.5458 H       1  UNL1        0.1571
      5 C           4.6338   41.8806    9.4368 C.ar    1  UNL1        0.1566
      6 C           5.9814   42.1959    9.2375 C.ar    1  UNL1        0.1230
      7 C           8.2043   41.9519    9.2455 C.ar    1  UNL1        0.1659
      8 C           6.3431   43.4140    8.6809 C.ar    1  UNL1        0.0527
      9 C           5.4029   44.3669    8.3010 C.ar    1  UNL1        0.0083
     10 C           4.0469   44.0653    8.4967 C.ar    1  UNL1        0.0037
     11 C           3.6639   42.8335    9.0602 C.ar    1  UNL1        0.0385
     12 N           7.0174   41.3766    9.5541 N.ar    1  UNL1       -0.2208
     13 S           8.0141   43.4977    8.5686 S.2     1  UNL1       -0.0513
     14 O           4.2814   40.6490   10.0031 O.3     1  UNL1       -0.4739
     15 C           3.1808   41.5163   11.9697 C.3     1  UNL1        0.0512
     16 C           4.1035   40.4536   11.4021 C.3     1  UNL1        0.2056
     17 C          11.9247   41.0724    9.8834 C.ar    1  UNL1        0.0538
     18 C          12.0165   40.2840   11.0399 C.ar    1  UNL1        0.0059
     19 C          13.1452   39.4918   11.2676 C.ar    1  UNL1        0.0201
     20 C          14.1934   39.4815   10.3416 C.ar    1  UNL1        0.1222
     21 C          14.1068   40.2635    9.1857 C.ar    1  UNL1        0.0201
     22 C          12.9782   41.0558    8.9579 C.ar    1  UNL1        0.0059
     23 O          16.7483   39.0141    9.7896 O.2     1  UNL1       -0.1528
     24 O          15.9971   38.5385   12.0685 O.2     1  UNL1       -0.1528
     25 S          15.6103   38.4812   10.6151 S.O2    1  UNL1        0.0634
     26 C          15.1266   36.8092    8.7080 C.3     1  UNL1        0.1150
     27 C          13.9713   36.4905   10.7083 C.3     1  UNL1        0.1150
     28 N          15.2670   36.8434   10.1538 N.3     1  UNL1       -0.1526
@<TRIPOS>BOND
     1    15    16    1
     2    16    14    1
     3     5    14    1
     4     6    12   ar
     5     7     3    1
     6     7    13   ar
     7     1    17    1
     8    18    19   ar
     9    20    21   ar
    10    22    17   ar
    11    26    28    1
    12    27    28    1
    13     8    13   ar
    14     8     6   ar
    15     9    10   ar
    16    11     5   ar
    17     3     1   am
    18    25    20    1
    19    25    28    1
    20     5     6   ar
    21     7    12   ar
    22     1     2    2
    23    17    18   ar
    24    19    20   ar
    25    21    22   ar
    26     8     9   ar
    27    10    11   ar
    28    25    23    2
    29    25    24    2
    30     3     4    1
@<TRIPOS>MOLECULE
MolPort-003-025-636 2716621 CSSS03437093488 ChemDiv-G837-0052 LN01396098 MCULE-9982983503 PubChem-2152296 ZINC000002716621
 28 30 0 0 0
SMALL
GASTEIGER

@<TRIPOS>ATOM
      1 C           9.8368   41.6768   10.2125 C.2     1  UNL1        0.2509
      2 O          10.4448   42.7279   10.5519 O.2     1  UNL1       -0.2698
      3 N          10.5611   40.4671    9.9470 N.am    1  UNL1       -0.2606
      4 H          10.0287   39.6810    9.6866 H       1  UNL1        0.1571
      5 C          15.2279   41.1699    8.8124 C.ar    1  UNL1        0.1566
      6 C          14.1217   40.6325    9.4776 C.ar    1  UNL1        0.1230
      7 C          11.9805   40.2866   10.0225 C.ar    1  UNL1        0.1659
      8 C          14.2941   39.6836   10.4747 C.ar    1  UNL1        0.0527
      9 C          15.5515   39.2272   10.8581 C.ar    1  UNL1        0.0083
     10 C          16.6710   39.7587   10.2007 C.ar    1  UNL1        0.0037
     11 C          16.5126   40.7223    9.1868 C.ar    1  UNL1        0.0385
     12 N          12.8316   40.9720    9.2219 N.ar    1  UNL1       -0.2208
     13 S          12.7951   39.2341   11.0772 S.2     1  UNL1       -0.0513
     14 O          15.0411   42.1301    7.8100 O.3     1  UNL1       -0.4739
     15 C          13.9493   43.3252    6.0181 C.3     1  UNL1        0.0512
     16 C          14.0241   42.0378    6.8181 C.3     1  UNL1        0.2056
     17 C           8.3686   41.6907   10.0874 C.ar    1  UNL1        0.0538
     18 C           7.7613   41.5520    8.8307 C.ar    1  UNL1        0.0059
     19 C           6.3686   41.5652    8.7132 C.ar    1  UNL1        0.0201
     20 C           5.5702   41.7187    9.8513 C.ar    1  UNL1        0.1222
     21 C           6.1696   41.8552   11.1072 C.ar    1  UNL1        0.0201
     22 C           7.5622   41.8420   11.2247 C.ar    1  UNL1        0.0059
     23 O           3.3498   43.1464    9.5646 O.2     1  UNL1       -0.1528
     24 O           3.4048   40.9474    8.4943 O.2     1  UNL1       -0.1528
     25 S           3.8197   41.7261    9.7137 S.O2    1  UNL1        0.0634
     26 C           2.9746   42.0746   12.1284 C.3     1  UNL1        0.1150
     27 C           4.0745   40.0691   11.6753 C.3     1  UNL1        0.1150
     28 N           3.1189   41.0221   11.1372 N.3     1  UNL1       -0.1526
@<TRIPOS>BOND
     1    15    16    1
     2    16    14    1
     3     5    14    1
     4     6    12   ar
     5     7     3    1
     6     7    13   ar
     7     1    17    1
     8    18    19   ar
     9    20    21   ar
    10    22    17   ar
    11    26    28    1
    12    27    28    1
    13     8    13   ar
    14     8     6   ar
    15     9    10   ar
    16    11     5   ar
    17     3     1   am
    18    25    20    1
    19    25    28    1
    20     5     6   ar
    21     7    12   ar
    22     1     2    2
    23    17    18   ar
    24    19    20   ar
    25    21    22   ar
    26     8     9   ar
    27    10    11   ar
    28    25    23    2
    29    25    24    2
    30     3     4    1
@<TRIPOS>MOLECULE
MolPort-003-025-636 2716621 CSSS03437093488 ChemDiv-G837-0052 LN01396098 MCULE-9982983503 PubChem-2152296 ZINC000002716621
 28 30 0 0 0
SMALL
GASTEIGER

@<TRIPOS>ATOM
      1 C          10.8620   40.0653    8.5805 C.2     1  UNL1        0.2509
      2 O          10.2047   39.3487    7.7780 O.2     1  UNL1       -0.2698
      3 N          10.3936   41.3714    8.9459 N.am    1  UNL1       -0.2606
      4 H          10.9518   41.8809    9.5767 H       1  UNL1        0.1571
      5 C           5.8112   42.9603    9.1414 C.ar    1  UNL1        0.1566
      6 C           7.0823   42.7299    8.6062 C.ar    1  UNL1        0.1230
      7 C           9.1960   42.0095    8.4859 C.ar    1  UNL1        0.1659
      8 C           7.3976   43.1708    7.3293 C.ar    1  UNL1        0.0527
      9 C           6.4843   43.8527    6.5310 C.ar    1  UNL1        0.0083
     10 C           5.2054   44.0928    7.0553 C.ar    1  UNL1        0.0037
     11 C           4.8703   43.6517    8.3494 C.ar    1  UNL1        0.0385
     12 N           8.0835   42.0810    9.2555 N.ar    1  UNL1       -0.2208
     13 S           8.9804   42.7478    6.9719 S.2     1  UNL1       -0.0513
     14 O           5.5062   42.5135   10.4333 O.3     1  UNL1       -0.4739
     15 C           5.6825   40.6500   11.9588 C.3     1  UNL1        0.0512
     16 C           5.0167   41.2064   10.7137 C.3     1  UNL1        0.2056
     17 C          12.1228   39.5568    9.1490 C.ar    1  UNL1        0.0538
     18 C          12.8133   38.5092    8.5219 C.ar    1  UNL1        0.0059
     19 C          14.0092   38.0276    9.0619 C.ar    1  UNL1        0.0201
     20 C          14.5251   38.5883   10.2348 C.ar    1  UNL1        0.1222
     21 C          13.8426   39.6344   10.8633 C.ar    1  UNL1        0.0201
     22 C          12.6468   40.1159   10.3235 C.ar    1  UNL1        0.0059
     23 O          15.7701   37.4787   12.3010 O.2     1  UNL1       -0.1528
     24 O          16.5601   36.8691   10.0676 O.2     1  UNL1       -0.1528
     25 S          16.0321   37.9962   10.9140 S.O2    1  UNL1        0.0634
     26 C          17.0258   40.0922    9.7800 C.3     1  UNL1        0.1150
     27 C          18.5159   38.6952   10.9049 C.3     1  UNL1        0.1150
     28 N          17.1910   39.2869   10.9781 N.3     1  UNL1       -0.1526
@<TRIPOS>BOND
     1    15    16    1
     2    16    14    1
     3     5    14    1
     4     6    12   ar
     5     7     3    1
     6     7    13   ar
     7     1    17    1
     8    18    19   ar
     9    20    21   ar
    10    22    17   ar
    11    26    28    1
    12    27    28    1
    13     8    13   ar
    14     8     6   ar
    15     9    10   ar
    16    11     5   ar
    17     3     1   am
    18    25    20    1
    19    25    28    1
    20     5     6   ar
    21     7    12   ar
    22     1     2    2
    23    17    18   ar
    24    19    20   ar
    25    21    22   ar
    26     8     9   ar
    27    10    11   ar
    28    25    23    2
    29    25    24    2
    30     3     4    1
@<TRIPOS>MOLECULE
MolPort-003-025-636 2716621 CSSS03437093488 ChemDiv-G837-0052 LN01396098 MCULE-9982983503 PubChem-2152296 ZINC000002716621
 28 30 0 0 0
SMALL
GASTEIGER

@<TRIPOS>ATOM
      1 C           3.2142   41.9019   11.8357 C.2     1  UNL1        0.2509
      2 O           3.1459   40.8202   12.4797 O.2     1  UNL1       -0.2698
      3 N           2.4383   43.0406   12.2355 N.am    1  UNL1       -0.2606
      4 H           2.5362   43.8554   11.6917 H       1  UNL1        0.1571
      5 C          -1.0656   41.5718   15.2564 C.ar    1  UNL1        0.1566
      6 C          -0.0812   42.4081   14.7209 C.ar    1  UNL1        0.1230
      7 C           1.5355   43.1126   13.3458 C.ar    1  UNL1        0.1659
      8 C           0.1914   43.6363   15.3054 C.ar    1  UNL1        0.0527
      9 C          -0.4857   44.0903   16.4331 C.ar    1  UNL1        0.0083
     10 C          -1.4749   43.2611   16.9827 C.ar    1  UNL1        0.0037
     11 C          -1.7632   42.0121   16.4011 C.ar    1  UNL1        0.0385
     12 N           0.6669   42.1118   13.6266 N.ar    1  UNL1       -0.2208
     13 S           1.4088   44.4022   14.4433 S.2     1  UNL1       -0.0513
     14 O          -1.3291   40.3325   14.6595 O.3     1  UNL1       -0.4739
     15 C          -2.4725   41.0007   12.6403 C.3     1  UNL1        0.0512
     16 C          -2.4720   40.0821   13.8484 C.3     1  UNL1        0.2056
     17 C           4.0993   41.9978   10.6614 C.ar    1  UNL1        0.0538
     18 C           4.0372   43.1140    9.8142 C.ar    1  UNL1        0.0059
     19 C           4.8772   43.2040    8.7008 C.ar    1  UNL1        0.0201
     20 C           5.7864   42.1779    8.4233 C.ar    1  UNL1        0.1222
     21 C           5.8547   41.0638    9.2654 C.ar    1  UNL1        0.0201
     22 C           5.0147   40.9737   10.3788 C.ar    1  UNL1        0.0059
     23 O           6.3195   41.4030    5.9402 O.2     1  UNL1       -0.1528
     24 O           6.8873   43.7074    6.5329 O.2     1  UNL1       -0.1528
     25 S           6.8524   42.2880    7.0325 S.O2    1  UNL1        0.0634
     26 C           8.9843   42.7471    8.4149 C.3     1  UNL1        0.1150
     27 C           9.2817   41.8362    6.2890 C.3     1  UNL1        0.1150
     28 N           8.4493   41.7737    7.4782 N.3     1  UNL1       -0.1526
@<TRIPOS>BOND
     1    15    16    1
     2    16    14    1
     3     5    14    1
     4     6    12   ar
     5     7     3    1
     6     7    13   ar
     7     1    17    1
     8    18    19   ar
     9    20    21   ar
    10    22    17   ar
    11    26    28    1
    12    27    28    1
    13     8    13   ar
    14     8     6   ar
    15     9    10   ar
    16    11     5   ar
    17     3     1   am
    18    25    20    1
    19    25    28    1
    20     5     6   ar
    21     7    12   ar
    22     1     2    2
    23    17    18   ar
    24    19    20   ar
    25    21    22   ar
    26     8     9   ar
    27    10    11   ar
    28    25    23    2
    29    25    24    2
    30     3     4    1
