@<TRIPOS>MOLECULE
MolPort-020-278-647 MCULE-9542232150 PubChem-110255519
 27 29 0 0 0
SMALL
GASTEIGER

@<TRIPOS>ATOM
      1 C           9.4013   39.3532    5.0286 C.3     1  UNL1        0.0522
      2 C          10.4820   39.9664    5.8433 C.ar    1  UNL1        0.0635
      3 C          11.1401   41.1052    5.3841 C.ar    1  UNL1        0.0492
      4 C          12.1536   41.6608    6.1726 C.ar    1  UNL1        0.1357
      5 C          11.8160   39.9654    7.7948 C.ar    1  UNL1        0.1411
      6 N          12.4666   41.0765    7.3595 N.ar    1  UNL1       -0.2159
      7 N          10.8285   39.4172    7.0355 N.ar    1  UNL1       -0.2349
      8 C          12.1925   39.3587    9.1056 C.3     1  UNL1        0.0764
      9 C          12.2407   40.4265   10.1973 C.3     1  UNL1        0.0105
     10 C          12.7305   39.8203   11.5084 C.3     1  UNL1        0.0197
     11 C          14.0607   39.1088   11.2753 C.3     1  UNL1        0.0969
     12 C          13.5465   38.6559    9.0032 C.3     1  UNL1        0.1044
     13 N          13.8913   38.0428   10.2867 N.3     1  UNL1       -0.1449
     14 S          15.4173   37.2341   10.0893 S.O2    1  UNL1        0.1021
     15 O          16.2355   37.9813    9.0711 O.2     1  UNL1       -0.1408
     16 O          16.1662   37.2149   11.3957 O.2     1  UNL1       -0.1408
     17 C          15.4352   35.5751    8.0949 C.3     1  UNL1        0.1161
     18 C          13.7445   35.3104    9.6720 C.3     1  UNL1        0.1161
     19 N          15.1580   35.6112    9.5208 N.3     1  UNL1       -0.1424
     20 N          12.8752   42.8321    5.7658 N.pl3   1  UNL1       -0.2833
     21 H          12.4357   43.4036    5.0954 H       1  UNL1        0.1550
     22 C          14.1631   43.2663    6.2234 C.ar    1  UNL1        0.1332
     23 C          14.8838   42.4453    7.0951 C.ar    1  UNL1        0.0345
     24 C          16.1385   42.8575    7.5474 C.ar    1  UNL1        0.0045
     25 C          16.6614   44.0811    7.1273 C.ar    1  UNL1        0.0208
     26 C          15.9151   44.8767    6.2559 C.ar    1  UNL1        0.1003
     27 N          14.6944   44.4572    5.8268 N.ar    1  UNL1       -0.2290
@<TRIPOS>BOND
     1     1     2    1
     2     2     7   ar
     3     3     4   ar
     4     4    20    1
     5     5     6   ar
     6     8     5    1
     7     8     9    1
     8     9    10    1
     9    10    11    1
    10    11    13    1
    11    12    13    1
    12    12     8    1
    13    17    19    1
    14    18    19    1
    15    22    27   ar
    16    23    24   ar
    17    25    26   ar
    18    20    22    1
    19    14    13    1
    20    14    19    1
    21     2     3   ar
    22     4     6   ar
    23     5     7   ar
    24    22    23   ar
    25    24    25   ar
    26    26    27   ar
    27    14    15    2
    28    14    16    2
    29    20    21    1
@<TRIPOS>MOLECULE
MolPort-020-278-647 MCULE-9542232150 PubChem-110255519
 27 29 0 0 0
SMALL
GASTEIGER

@<TRIPOS>ATOM
      1 C           8.3233   41.1531    8.3076 C.3     1  UNL1        0.0522
      2 C           9.7372   40.8749    7.9453 C.ar    1  UNL1        0.0635
      3 C          10.4011   41.7028    7.0427 C.ar    1  UNL1        0.0492
      4 C          11.7321   41.4166    6.7204 C.ar    1  UNL1        0.1357
      5 C          11.6776   39.5442    8.1735 C.ar    1  UNL1        0.1411
      6 N          12.3379   40.3434    7.2944 N.ar    1  UNL1       -0.2159
      7 N          10.3827   39.8140    8.4939 N.ar    1  UNL1       -0.2349
      8 C          12.3835   38.3774    8.7803 C.3     1  UNL1        0.0764
      9 C          11.4488   37.6112    9.7149 C.3     1  UNL1        0.0105
     10 C          12.2057   36.4864   10.4137 C.3     1  UNL1        0.0197
     11 C          13.4435   37.0560   11.1020 C.3     1  UNL1        0.0969
     12 C          13.6238   38.8388    9.5461 C.3     1  UNL1        0.1044
     13 N          14.3213   37.6838   10.1132 N.3     1  UNL1       -0.1449
     14 S          15.7342   38.2750   10.9352 S.O2    1  UNL1        0.1021
     15 O          16.1196   39.6045   10.3450 O.2     1  UNL1       -0.1408
     16 O          15.4415   38.4600   12.4007 O.2     1  UNL1       -0.1408
     17 C          18.2902   37.9213   10.6665 C.3     1  UNL1        0.1161
     18 C          16.8968   36.5368    9.4185 C.3     1  UNL1        0.1161
     19 N          17.0529   37.1615   10.7211 N.3     1  UNL1       -0.1424
     20 N          12.4801   42.2235    5.7997 N.pl3   1  UNL1       -0.2833
     21 H          12.1513   42.2441    4.8720 H       1  UNL1        0.1550
     22 C          13.6516   43.0034    6.0753 C.ar    1  UNL1        0.1332
     23 C          14.6394   42.4701    6.9079 C.ar    1  UNL1        0.0345
     24 C          15.7841   43.2201    7.1834 C.ar    1  UNL1        0.0045
     25 C          15.9327   44.4914    6.6277 C.ar    1  UNL1        0.0208
     26 C          14.9268   44.9939    5.8001 C.ar    1  UNL1        0.1003
     27 N          13.8190   44.2474    5.5439 N.ar    1  UNL1       -0.2290
@<TRIPOS>BOND
     1     1     2    1
     2     2     7   ar
     3     3     4   ar
     4     4    20    1
     5     5     6   ar
     6     8     5    1
     7     8     9    1
     8     9    10    1
     9    10    11    1
    10    11    13    1
    11    12    13    1
    12    12     8    1
    13    17    19    1
    14    18    19    1
    15    22    27   ar
    16    23    24   ar
    17    25    26   ar
    18    20    22    1
    19    14    13    1
    20    14    19    1
    21     2     3   ar
    22     4     6   ar
    23     5     7   ar
    24    22    23   ar
    25    24    25   ar
    26    26    27   ar
    27    14    15    2
    28    14    16    2
    29    20    21    1
@<TRIPOS>MOLECULE
MolPort-020-278-647 MCULE-9542232150 PubChem-110255519
 27 29 0 0 0
SMALL
GASTEIGER

@<TRIPOS>ATOM
      1 C          13.8736   39.1464   11.2184 C.3     1  UNL1        0.0522
      2 C          13.0748   40.0975   10.4029 C.ar    1  UNL1        0.0635
      3 C          13.5318   40.4937    9.1479 C.ar    1  UNL1        0.0492
      4 C          12.7586   41.3902    8.4023 C.ar    1  UNL1        0.1357
      5 C          11.1548   41.4524   10.1470 C.ar    1  UNL1        0.1411
      6 N          11.5882   41.8477    8.9209 N.ar    1  UNL1       -0.2159
      7 N          11.8994   40.5805   10.8803 N.ar    1  UNL1       -0.2349
      8 C           9.8623   41.9797   10.6755 C.3     1  UNL1        0.0764
      9 C           9.4115   41.1742   11.8930 C.3     1  UNL1        0.0105
     10 C           8.0394   41.6477   12.3616 C.3     1  UNL1        0.0197
     11 C           7.0596   41.6074   11.1917 C.3     1  UNL1        0.0969
     12 C           8.7826   41.9384    9.5938 C.3     1  UNL1        0.1044
     13 N           7.5285   42.4827   10.1163 N.3     1  UNL1       -0.1449
     14 S           6.3607   42.4394    8.8294 S.O2    1  UNL1        0.1021
     15 O           7.0851   42.5129    7.5125 O.2     1  UNL1       -0.1408
     16 O           5.5782   41.1539    8.8828 O.2     1  UNL1       -0.1408
     17 C           3.9332   43.3049    9.1270 C.3     1  UNL1        0.1161
     18 C           5.3115   44.5045    7.6857 C.3     1  UNL1        0.1161
     19 N           5.2879   43.8022    8.9576 N.3     1  UNL1       -0.1424
     20 N          13.1642   41.8432    7.1029 N.pl3   1  UNL1       -0.2833
     21 H          12.7181   41.4188    6.3347 H       1  UNL1        0.1550
     22 C          14.1447   42.8432    6.7942 C.ar    1  UNL1        0.1332
     23 C          15.4345   42.7103    7.3159 C.ar    1  UNL1        0.0345
     24 C          16.3973   43.6776    7.0224 C.ar    1  UNL1        0.0045
     25 C          16.0660   44.7652    6.2135 C.ar    1  UNL1        0.0208
     26 C          14.7683   44.8673    5.7087 C.ar    1  UNL1        0.1003
     27 N          13.8445   43.9143    6.0064 N.ar    1  UNL1       -0.2290
@<TRIPOS>BOND
     1     1     2    1
     2     2     7   ar
     3     3     4   ar
     4     4    20    1
     5     5     6   ar
     6     8     5    1
     7     8     9    1
     8     9    10    1
     9    10    11    1
    10    11    13    1
    11    12    13    1
    12    12     8    1
    13    17    19    1
    14    18    19    1
    15    22    27   ar
    16    23    24   ar
    17    25    26   ar
    18    20    22    1
    19    14    13    1
    20    14    19    1
    21     2     3   ar
    22     4     6   ar
    23     5     7   ar
    24    22    23   ar
    25    24    25   ar
    26    26    27   ar
    27    14    15    2
    28    14    16    2
    29    20    21    1
@<TRIPOS>MOLECULE
MolPort-020-278-647 MCULE-9542232150 PubChem-110255519
 27 29 0 0 0
SMALL
GASTEIGER

@<TRIPOS>ATOM
      1 C          15.8728   43.5662    6.6724 C.3     1  UNL1        0.0522
      2 C          14.6824   42.7059    6.8970 C.ar    1  UNL1        0.0635
      3 C          13.5346   42.8902    6.1292 C.ar    1  UNL1        0.0492
      4 C          12.4290   42.0653    6.3627 C.ar    1  UNL1        0.1357
      5 C          13.6316   40.9428    8.0697 C.ar    1  UNL1        0.1411
      6 N          12.5050   41.1112    7.3281 N.ar    1  UNL1       -0.2159
      7 N          14.7127   41.7398    7.8503 N.ar    1  UNL1       -0.2349
      8 C          13.6702   39.8810    9.1181 C.3     1  UNL1        0.0764
      9 C          13.0541   40.3898   10.4204 C.3     1  UNL1        0.0105
     10 C          13.1944   39.3393   11.5173 C.3     1  UNL1        0.0197
     11 C          14.6584   38.9254   11.6421 C.3     1  UNL1        0.0969
     12 C          15.1075   39.4222    9.3653 C.3     1  UNL1        0.1044
     13 N          15.1289   38.3630   10.3752 N.3     1  UNL1       -0.1449
     14 S          16.7819   37.8655   10.5796 S.O2    1  UNL1        0.1021
     15 O          16.8695   36.9451   11.7668 O.2     1  UNL1       -0.1408
     16 O          17.2557   37.1269    9.3558 O.2     1  UNL1       -0.1408
     17 C          17.5918   40.1973    9.7816 C.3     1  UNL1        0.1161
     18 C          19.1717   38.8221   10.7957 C.3     1  UNL1        0.1161
     19 N          17.7866   39.2549   10.8702 N.3     1  UNL1       -0.1424
     20 N          11.2132   42.1957    5.6123 N.pl3   1  UNL1       -0.2833
     21 H          11.1644   42.9578    4.9909 H       1  UNL1        0.1550
     22 C          10.0607   41.3438    5.6633 C.ar    1  UNL1        0.1332
     23 C          10.0525   40.1701    4.9045 C.ar    1  UNL1        0.0345
     24 C           8.9362   39.3330    4.9459 C.ar    1  UNL1        0.0045
     25 C           7.8415   39.6730    5.7416 C.ar    1  UNL1        0.0208
     26 C           7.8826   40.8527    6.4872 C.ar    1  UNL1        0.1003
     27 N           8.9798   41.6550    6.4331 N.ar    1  UNL1       -0.2290
@<TRIPOS>BOND
     1     1     2    1
     2     2     7   ar
     3     3     4   ar
     4     4    20    1
     5     5     6   ar
     6     8     5    1
     7     8     9    1
     8     9    10    1
     9    10    11    1
    10    11    13    1
    11    12    13    1
    12    12     8    1
    13    17    19    1
    14    18    19    1
    15    22    27   ar
    16    23    24   ar
    17    25    26   ar
    18    20    22    1
    19    14    13    1
    20    14    19    1
    21     2     3   ar
    22     4     6   ar
    23     5     7   ar
    24    22    23   ar
    25    24    25   ar
    26    26    27   ar
    27    14    15    2
    28    14    16    2
    29    20    21    1
@<TRIPOS>MOLECULE
MolPort-020-278-647 MCULE-9542232150 PubChem-110255519
 27 29 0 0 0
SMALL
GASTEIGER

@<TRIPOS>ATOM
      1 C           9.7871   41.1155   11.9427 C.3     1  UNL1        0.0522
      2 C           9.9967   41.4768   10.5168 C.ar    1  UNL1        0.0635
      3 C           8.9425   41.9937    9.7667 C.ar    1  UNL1        0.0492
      4 C           9.1692   42.3251    8.4265 C.ar    1  UNL1        0.1357
      5 C          11.4254   41.6292    8.6397 C.ar    1  UNL1        0.1411
      6 N          10.4062   42.1345    7.8958 N.ar    1  UNL1       -0.2159
      7 N          11.2154   41.3037    9.9444 N.ar    1  UNL1       -0.2349
      8 C          12.7676   41.4384    8.0152 C.3     1  UNL1        0.0764
      9 C          13.7984   41.0384    9.0696 C.3     1  UNL1        0.0105
     10 C          15.1870   40.9508    8.4447 C.3     1  UNL1        0.0197
     11 C          15.5066   42.2601    7.7279 C.3     1  UNL1        0.0969
     12 C          13.2164   42.7160    7.3052 C.3     1  UNL1        0.1044
     13 N          14.5206   42.5073    6.6747 N.3     1  UNL1       -0.1449
     14 S          14.9514   43.9807    5.8590 S.O2    1  UNL1        0.1021
     15 O          14.9592   43.7306    4.3752 O.2     1  UNL1       -0.1408
     16 O          13.9431   45.0564    6.1655 O.2     1  UNL1       -0.1408
     17 C          17.5193   43.6848    5.6391 C.3     1  UNL1        0.1161
     18 C          16.6905   44.1630    7.7604 C.3     1  UNL1        0.1161
     19 N          16.5403   44.4875    6.3521 N.3     1  UNL1       -0.1424
     20 N           8.1330   42.8618    7.5920 N.pl3   1  UNL1       -0.2833
     21 H           8.3773   43.0419    6.6554 H       1  UNL1        0.1550
     22 C           6.7821   43.1662    7.9651 C.ar    1  UNL1        0.1332
     23 C           6.1498   44.2666    7.3798 C.ar    1  UNL1        0.0345
     24 C           4.8350   44.5728    7.7353 C.ar    1  UNL1        0.0045
     25 C           4.1649   43.7809    8.6686 C.ar    1  UNL1        0.0208
     26 C           4.8260   42.6889    9.2340 C.ar    1  UNL1        0.1003
     27 N           6.1073   42.4073    8.8743 N.ar    1  UNL1       -0.2290
@<TRIPOS>BOND
     1     1     2    1
     2     2     7   ar
     3     3     4   ar
     4     4    20    1
     5     5     6   ar
     6     8     5    1
     7     8     9    1
     8     9    10    1
     9    10    11    1
    10    11    13    1
    11    12    13    1
    12    12     8    1
    13    17    19    1
    14    18    19    1
    15    22    27   ar
    16    23    24   ar
    17    25    26   ar
    18    20    22    1
    19    14    13    1
    20    14    19    1
    21     2     3   ar
    22     4     6   ar
    23     5     7   ar
    24    22    23   ar
    25    24    25   ar
    26    26    27   ar
    27    14    15    2
    28    14    16    2
    29    20    21    1
@<TRIPOS>MOLECULE
MolPort-020-278-647 MCULE-9542232150 PubChem-110255519
 27 29 0 0 0
SMALL
GASTEIGER

@<TRIPOS>ATOM
      1 C          14.8853   44.5269    5.5638 C.3     1  UNL1        0.0522
      2 C          14.3681   43.4418    6.4372 C.ar    1  UNL1        0.0635
      3 C          15.2554   42.6376    7.1490 C.ar    1  UNL1        0.0492
      4 C          14.7397   41.6237    7.9636 C.ar    1  UNL1        0.1357
      5 C          12.5392   42.2445    7.3371 C.ar    1  UNL1        0.1411
      6 N          13.3931   41.4523    8.0374 N.ar    1  UNL1       -0.2159
      7 N          13.0307   43.2338    6.5419 N.ar    1  UNL1       -0.2349
      8 C          11.0679   42.0205    7.4501 C.3     1  UNL1        0.0764
      9 C          10.6839   41.6925    8.8921 C.3     1  UNL1        0.0105
     10 C           9.1983   41.3588    8.9807 C.3     1  UNL1        0.0197
     11 C           8.8637   40.2543    7.9815 C.3     1  UNL1        0.0969
     12 C          10.6237   40.8896    6.5219 C.3     1  UNL1        0.1044
     13 N           9.1762   40.6982    6.6222 N.3     1  UNL1       -0.1449
     14 S           8.7367   39.4286    5.5191 S.O2    1  UNL1        0.1021
     15 O           9.3431   38.1371    5.9975 O.2     1  UNL1       -0.1408
     16 O           7.2392   39.2757    5.4753 O.2     1  UNL1       -0.1408
     17 C           9.2025   38.5982    3.1059 C.3     1  UNL1        0.1161
     18 C          10.7798   40.0225    4.0542 C.3     1  UNL1        0.1161
     19 N           9.3517   39.7844    3.9318 N.3     1  UNL1       -0.1424
     20 N          15.5910   40.7564    8.7260 N.pl3   1  UNL1       -0.2833
     21 H          16.5483   40.7738    8.4967 H       1  UNL1        0.1550
     22 C          15.2080   39.8669    9.7837 C.ar    1  UNL1        0.1332
     23 C          13.9882   40.0739   10.4339 C.ar    1  UNL1        0.0345
     24 C          13.6048   39.2146   11.4651 C.ar    1  UNL1        0.0045
     25 C          14.4390   38.1598   11.8372 C.ar    1  UNL1        0.0208
     26 C          15.6506   37.9814   11.1668 C.ar    1  UNL1        0.1003
     27 N          16.0060   38.8297   10.1647 N.ar    1  UNL1       -0.2290
@<TRIPOS>BOND
     1     1     2    1
     2     2     7   ar
     3     3     4   ar
     4     4    20    1
     5     5     6   ar
     6     8     5    1
     7     8     9    1
     8     9    10    1
     9    10    11    1
    10    11    13    1
    11    12    13    1
    12    12     8    1
    13    17    19    1
    14    18    19    1
    15    22    27   ar
    16    23    24   ar
    17    25    26   ar
    18    20    22    1
    19    14    13    1
    20    14    19    1
    21     2     3   ar
    22     4     6   ar
    23     5     7   ar
    24    22    23   ar
    25    24    25   ar
    26    26    27   ar
    27    14    15    2
    28    14    16    2
    29    20    21    1
@<TRIPOS>MOLECULE
MolPort-020-278-647 MCULE-9542232150 PubChem-110255519
 27 29 0 0 0
SMALL
GASTEIGER

@<TRIPOS>ATOM
      1 C           9.0727   41.0607   14.1429 C.3     1  UNL1        0.0522
      2 C           9.1538   41.3843   12.6950 C.ar    1  UNL1        0.0635
      3 C           8.0455   41.9114   12.0357 C.ar    1  UNL1        0.0492
      4 C           8.1510   42.2066   10.6722 C.ar    1  UNL1        0.1357
      5 C          10.4000   41.4570   10.6876 C.ar    1  UNL1        0.1411
      6 N           9.3268   41.9718   10.0315 N.ar    1  UNL1       -0.2159
      7 N          10.3078   41.1665   12.0141 N.ar    1  UNL1       -0.2349
      8 C          11.6715   41.2171    9.9435 C.3     1  UNL1        0.0764
      9 C          11.3797   40.7850    8.5073 C.3     1  UNL1        0.0105
     10 C          12.6778   40.4374    7.7859 C.3     1  UNL1        0.0197
     11 C          13.4528   39.4050    8.6006 C.3     1  UNL1        0.0969
     12 C          12.5134   40.1526   10.6476 C.3     1  UNL1        0.1044
     13 N          13.7684   39.9462    9.9234 N.3     1  UNL1       -0.1449
     14 S          14.6880   38.7559   10.7948 S.O2    1  UNL1        0.1021
     15 O          16.1523   38.9902   10.5396 O.2     1  UNL1       -0.1408
     16 O          14.4261   38.8788   12.2726 O.2     1  UNL1       -0.1408
     17 C          14.1286   37.2014    8.7946 C.3     1  UNL1        0.1161
     18 C          12.9551   36.8402   10.7715 C.3     1  UNL1        0.1161
     19 N          14.2688   37.1617   10.2402 N.3     1  UNL1       -0.1424
     20 N           7.0529   42.7513    9.9267 N.pl3   1  UNL1       -0.2833
     21 H           7.2503   43.5433    9.3763 H       1  UNL1        0.1550
     22 C           5.7008   42.2747    9.8910 C.ar    1  UNL1        0.1332
     23 C           4.7074   43.0967    9.3518 C.ar    1  UNL1        0.0345
     24 C           3.3876   42.6436    9.3118 C.ar    1  UNL1        0.0045
     25 C           3.0716   41.3785    9.8084 C.ar    1  UNL1        0.0208
     26 C           4.0883   40.5829   10.3401 C.ar    1  UNL1        0.1003
     27 N           5.3681   41.0427   10.3700 N.ar    1  UNL1       -0.2290
@<TRIPOS>BOND
     1     1     2    1
     2     2     7   ar
     3     3     4   ar
     4     4    20    1
     5     5     6   ar
     6     8     5    1
     7     8     9    1
     8     9    10    1
     9    10    11    1
    10    11    13    1
    11    12    13    1
    12    12     8    1
    13    17    19    1
    14    18    19    1
    15    22    27   ar
    16    23    24   ar
    17    25    26   ar
    18    20    22    1
    19    14    13    1
    20    14    19    1
    21     2     3   ar
    22     4     6   ar
    23     5     7   ar
    24    22    23   ar
    25    24    25   ar
    26    26    27   ar
    27    14    15    2
    28    14    16    2
    29    20    21    1
@<TRIPOS>MOLECULE
MolPort-020-278-647 MCULE-9542232150 PubChem-110255519
 27 29 0 0 0
SMALL
GASTEIGER

@<TRIPOS>ATOM
      1 C           8.7932   39.2725    4.9502 C.3     1  UNL1        0.0522
      2 C           9.4313   40.1286    5.9835 C.ar    1  UNL1        0.0635
      3 C           8.6434   40.7993    6.9164 C.ar    1  UNL1        0.0492
      4 C           9.2717   41.5983    7.8778 C.ar    1  UNL1        0.1357
      5 C          11.3836   41.0375    6.9582 C.ar    1  UNL1        0.1411
      6 N          10.6275   41.6976    7.8747 N.ar    1  UNL1       -0.2159
      7 N          10.7822   40.2575    6.0189 N.ar    1  UNL1       -0.2349
      8 C          12.8695   41.1751    6.9941 C.3     1  UNL1        0.0764
      9 C          13.3881   41.0270    8.4236 C.3     1  UNL1        0.0105
     10 C          14.8922   41.2759    8.4687 C.3     1  UNL1        0.0197
     11 C          15.2043   42.6272    7.8308 C.3     1  UNL1        0.0969
     12 C          13.2979   42.5264    6.4211 C.3     1  UNL1        0.1044
     13 N          14.7571   42.6377    6.4371 N.3     1  UNL1       -0.1449
     14 S          15.1743   44.1753    5.7418 S.O2    1  UNL1        0.1021
     15 O          15.0323   44.0874    4.2464 O.2     1  UNL1       -0.1408
     16 O          14.2475   45.2450    6.2562 O.2     1  UNL1       -0.1408
     17 C          17.6939   43.6448    5.4248 C.3     1  UNL1        0.1161
     18 C          17.0173   44.3223    7.5459 C.3     1  UNL1        0.1161
     19 N          16.8231   44.5716    6.1276 N.3     1  UNL1       -0.1424
     20 N           8.5269   42.3185    8.8700 N.pl3   1  UNL1       -0.2833
     21 H           8.9868   42.4846    9.7245 H       1  UNL1        0.1550
     22 C           7.1894   42.8244    8.7604 C.ar    1  UNL1        0.1332
     23 C           6.9777   44.0421    8.1080 C.ar    1  UNL1        0.0345
     24 C           5.6802   44.5446    7.9953 C.ar    1  UNL1        0.0045
     25 C           4.6088   43.8300    8.5326 C.ar    1  UNL1        0.0208
     26 C           4.8556   42.6167    9.1779 C.ar    1  UNL1        0.1003
     27 N           6.1273   42.1442    9.2773 N.ar    1  UNL1       -0.2290
@<TRIPOS>BOND
     1     1     2    1
     2     2     7   ar
     3     3     4   ar
     4     4    20    1
     5     5     6   ar
     6     8     5    1
     7     8     9    1
     8     9    10    1
     9    10    11    1
    10    11    13    1
    11    12    13    1
    12    12     8    1
    13    17    19    1
    14    18    19    1
    15    22    27   ar
    16    23    24   ar
    17    25    26   ar
    18    20    22    1
    19    14    13    1
    20    14    19    1
    21     2     3   ar
    22     4     6   ar
    23     5     7   ar
    24    22    23   ar
    25    24    25   ar
    26    26    27   ar
    27    14    15    2
    28    14    16    2
    29    20    21    1
@<TRIPOS>MOLECULE
MolPort-020-278-647 MCULE-9542232150 PubChem-110255519
 27 29 0 0 0
SMALL
GASTEIGER

@<TRIPOS>ATOM
      1 C          13.6906   38.4895   10.9962 C.3     1  UNL1        0.0522
      2 C          13.1327   39.6689   10.2851 C.ar    1  UNL1        0.0635
      3 C          13.7727   40.1663    9.1520 C.ar    1  UNL1        0.0492
      4 C          13.2246   41.2779    8.5029 C.ar    1  UNL1        0.1357
      5 C          11.4743   41.3432   10.1004 C.ar    1  UNL1        0.1411
      6 N          12.0879   41.8392    8.9937 N.ar    1  UNL1       -0.2159
      7 N          11.9992   40.2621   10.7392 N.ar    1  UNL1       -0.2349
      8 C          10.2270   41.9911   10.6027 C.3     1  UNL1        0.0764
      9 C           9.5891   41.1462   11.7043 C.3     1  UNL1        0.0105
     10 C           8.2604   41.7575   12.1369 C.3     1  UNL1        0.0197
     11 C           7.3699   41.9590   10.9135 C.3     1  UNL1        0.0969
     12 C           9.2313   42.1972    9.4608 C.3     1  UNL1        0.1044
     13 N           8.0245   42.8572    9.9610 N.3     1  UNL1       -0.1449
     14 S           6.9561   43.0922    8.6101 S.O2    1  UNL1        0.1021
     15 O           5.8359   44.0053    9.0291 O.2     1  UNL1       -0.1408
     16 O           7.7000   43.7287    7.4658 O.2     1  UNL1       -0.1408
     17 C           5.4846   41.0416    9.2101 C.3     1  UNL1        0.1161
     18 C           7.3842   40.6378    7.9277 C.3     1  UNL1        0.1161
     19 N           6.2829   41.5669    8.1155 N.3     1  UNL1       -0.1424
     20 N          13.8271   41.8456    7.3312 N.pl3   1  UNL1       -0.2833
     21 H          13.3556   41.6918    6.4808 H       1  UNL1        0.1550
     22 C          15.0373   42.6114    7.2563 C.ar    1  UNL1        0.1332
     23 C          15.0524   43.7802    6.4901 C.ar    1  UNL1        0.0345
     24 C          16.2247   44.5338    6.4096 C.ar    1  UNL1        0.0045
     25 C          17.3679   44.1161    7.0921 C.ar    1  UNL1        0.0208
     26 C          17.3183   42.9437    7.8485 C.ar    1  UNL1        0.1003
     27 N          16.1663   42.2234    7.9142 N.ar    1  UNL1       -0.2290
@<TRIPOS>BOND
     1     1     2    1
     2     2     7   ar
     3     3     4   ar
     4     4    20    1
     5     5     6   ar
     6     8     5    1
     7     8     9    1
     8     9    10    1
     9    10    11    1
    10    11    13    1
    11    12    13    1
    12    12     8    1
    13    17    19    1
    14    18    19    1
    15    22    27   ar
    16    23    24   ar
    17    25    26   ar
    18    20    22    1
    19    14    13    1
    20    14    19    1
    21     2     3   ar
    22     4     6   ar
    23     5     7   ar
    24    22    23   ar
    25    24    25   ar
    26    26    27   ar
    27    14    15    2
    28    14    16    2
    29    20    21    1
@<TRIPOS>MOLECULE
MolPort-020-278-647 MCULE-9542232150 PubChem-110255519
 27 29 0 0 0
SMALL
GASTEIGER

@<TRIPOS>ATOM
      1 C          16.5994   43.3713    6.7573 C.3     1  UNL1        0.0522
      2 C          15.5651   42.5323    7.4161 C.ar    1  UNL1        0.0635
      3 C          15.9286   41.6410    8.4232 C.ar    1  UNL1        0.0492
      4 C          14.9333   40.8640    9.0258 C.ar    1  UNL1        0.1357
      5 C          13.3049   41.8735    7.6295 C.ar    1  UNL1        0.1411
      6 N          13.6450   40.9997    8.6135 N.ar    1  UNL1       -0.2159
      7 N          14.2655   42.6342    7.0370 N.ar    1  UNL1       -0.2349
      8 C          11.8771   41.9899    7.2103 C.3     1  UNL1        0.0764
      9 C          10.9728   42.1696    8.4286 C.3     1  UNL1        0.0105
     10 C           9.5082   42.1791    8.0029 C.3     1  UNL1        0.0197
     11 C           9.2073   40.9261    7.1845 C.3     1  UNL1        0.0969
     12 C          11.4471   40.7543    6.4191 C.3     1  UNL1        0.1044
     13 N          10.0543   40.8928    5.9912 N.3     1  UNL1       -0.1449
     14 S           9.6443   39.4765    5.0705 S.O2    1  UNL1        0.1021
     15 O           8.9729   39.9040    3.7935 O.2     1  UNL1       -0.1408
     16 O          10.8899   38.7019    4.7293 O.2     1  UNL1       -0.1408
     17 C           7.3318   39.2398    6.2223 C.3     1  UNL1        0.1161
     18 C           9.1439   38.2303    7.2773 C.3     1  UNL1        0.1161
     19 N           8.5452   38.4790    5.9769 N.3     1  UNL1       -0.1424
     20 N          15.2313   39.9252   10.0688 N.pl3   1  UNL1       -0.2833
     21 H          14.6521   39.9593   10.8642 H       1  UNL1        0.1550
     22 C          16.2758   38.9426   10.0862 C.ar    1  UNL1        0.1332
     23 C          16.0246   37.6780    9.5467 C.ar    1  UNL1        0.0345
     24 C          17.0336   36.7134    9.5581 C.ar    1  UNL1        0.0045
     25 C          18.2804   37.0181   10.1057 C.ar    1  UNL1        0.0208
     26 C          18.4978   38.2911   10.6361 C.ar    1  UNL1        0.1003
     27 N          17.5015   39.2171   10.6155 N.ar    1  UNL1       -0.2290
@<TRIPOS>BOND
     1     1     2    1
     2     2     7   ar
     3     3     4   ar
     4     4    20    1
     5     5     6   ar
     6     8     5    1
     7     8     9    1
     8     9    10    1
     9    10    11    1
    10    11    13    1
    11    12    13    1
    12    12     8    1
    13    17    19    1
    14    18    19    1
    15    22    27   ar
    16    23    24   ar
    17    25    26   ar
    18    20    22    1
    19    14    13    1
    20    14    19    1
    21     2     3   ar
    22     4     6   ar
    23     5     7   ar
    24    22    23   ar
    25    24    25   ar
    26    26    27   ar
    27    14    15    2
    28    14    16    2
    29    20    21    1
