@<TRIPOS>MOLECULE
MolPort-002-633-366 5556652 CHEMBL1445989 LN00746763 PubChem-1623160 ZINC000005556652 ZINC05556652
 25 27 0 0 0
SMALL
GASTEIGER

@<TRIPOS>ATOM
      1 C          12.5331   42.2343    6.3827 C.ar    1  UNL1        0.1568
      2 C          13.2691   41.4519    7.2578 C.ar    1  UNL1        0.0689
      3 C          13.0209   40.2661    7.9421 C.ar    1  UNL1        0.0075
      4 C          14.0295   39.8061    8.8062 C.ar    1  UNL1        0.0209
      5 C          13.8597   38.6164    9.5166 C.ar    1  UNL1        0.0384
      6 C          14.8672   38.1588   10.3823 C.ar    1  UNL1        0.1388
      7 C          16.0434   38.9036   10.5310 C.ar    1  UNL1        0.0384
      8 C          16.2265   40.0980    9.8276 C.ar    1  UNL1        0.0223
      9 C          15.2322   40.5603    8.9637 C.ar    1  UNL1        0.0831
     10 C          14.4260   42.1508    7.4451 C.ar    1  UNL1        0.1621
     11 N          14.3952   43.2929    6.7407 N.ar    1  UNL1       -0.2329
     12 N          13.2335   43.3588    6.0949 N.ar    1  UNL1       -0.1527
     13 N          15.4081   41.7323    8.2828 N.ar    1  UNL1       -0.2268
     14 C          10.0279   41.8849    6.7183 C.2     1  UNL1        0.2272
     15 N          11.2008   42.0050    5.9074 N.am    1  UNL1       -0.2679
     16 O          10.1144   41.6720    7.9565 O.2     1  UNL1       -0.2747
     17 H          11.0815   41.9226    4.9337 H       1  UNL1        0.1563
     18 C           8.6876   41.9172    6.0738 C.3     1  UNL1        0.0854
     19 C           7.7226   41.0387    6.8450 C.3     1  UNL1        0.0101
     20 C          13.8488   35.9274   10.7032 C.3     1  UNL1        0.2525
     21 O          14.7257   36.9710   11.1051 O.3     1  UNL1       -0.4714
     22 C          15.4437   44.3092    6.7129 C.3     1  UNL1        0.1292
     23 C          16.4467   44.0554    5.5950 C.3     1  UNL1        0.0264
     24 C          17.8182   44.0003    7.6758 C.3     1  UNL1        0.0001
     25 C          17.8309   43.8157    6.1699 C.3     1  UNL1        0.0021
@<TRIPOS>BOND
     1    24    25    1
     2    25    23    1
     3    23    22    1
     4    22    11    1
     5     1    15    1
     6     1     2   ar
     7    18    14    1
     8    18    19    1
     9     3     4   ar
    10     5     6   ar
    11     6    21    1
    12    20    21    1
    13     7     8   ar
    14     9    13   ar
    15     9     4   ar
    16    10    11   ar
    17    10     2   ar
    18    11    12   ar
    19    15    14   am
    20     1    12   ar
    21    14    16    2
    22     2     3   ar
    23     4     5   ar
    24     6     7   ar
    25     8     9   ar
    26    10    13   ar
    27    15    17    1
@<TRIPOS>MOLECULE
MolPort-002-633-366 5556652 CHEMBL1445989 LN00746763 PubChem-1623160 ZINC000005556652 ZINC05556652
 25 27 0 0 0
SMALL
GASTEIGER

@<TRIPOS>ATOM
      1 C           6.9828   42.1499    9.8058 C.ar    1  UNL1        0.1568
      2 C           8.3183   41.7829    9.7660 C.ar    1  UNL1        0.0689
      3 C           9.1926   41.2036   10.6802 C.ar    1  UNL1        0.0075
      4 C          10.5264   41.0377   10.2690 C.ar    1  UNL1        0.0209
      5 C          11.4596   40.4509   11.1255 C.ar    1  UNL1        0.0384
      6 C          12.7932   40.2881   10.7148 C.ar    1  UNL1        0.1388
      7 C          13.1832   40.7194    9.4411 C.ar    1  UNL1        0.0384
      8 C          12.2600   41.3106    8.5734 C.ar    1  UNL1        0.0223
      9 C          10.9321   41.4754    8.9714 C.ar    1  UNL1        0.0831
     10 C           8.7472   42.2002    8.5397 C.ar    1  UNL1        0.1621
     11 N           7.7433   42.7953    7.8767 N.ar    1  UNL1       -0.2329
     12 N           6.6600   42.7798    8.6495 N.ar    1  UNL1       -0.1527
     13 N          10.0320   42.0612    8.1259 N.ar    1  UNL1       -0.2268
     14 C           4.8802   41.2149   10.9083 C.2     1  UNL1        0.2272
     15 N           6.0668   42.0146   10.8995 N.am    1  UNL1       -0.2679
     16 O           4.3769   40.7892    9.8353 O.2     1  UNL1       -0.2747
     17 H           6.2727   42.5180   11.7200 H       1  UNL1        0.1563
     18 C           4.1786   40.9626   12.1956 C.3     1  UNL1        0.0854
     19 C           2.7806   41.5463   12.1445 C.3     1  UNL1        0.0101
     20 C          13.6716   38.3489   11.9747 C.3     1  UNL1        0.2525
     21 O          13.7489   39.7029   11.5500 O.3     1  UNL1       -0.4714
     22 C           7.8314   43.3904    6.5459 C.3     1  UNL1        0.1292
     23 C           6.7028   44.3820    6.2948 C.3     1  UNL1        0.0264
     24 C           7.6373   45.8136    4.4807 C.3     1  UNL1        0.0001
     25 C           7.2659   45.7489    5.9503 C.3     1  UNL1        0.0021
@<TRIPOS>BOND
     1    24    25    1
     2    25    23    1
     3    23    22    1
     4    22    11    1
     5     1    15    1
     6     1     2   ar
     7    18    14    1
     8    18    19    1
     9     3     4   ar
    10     5     6   ar
    11     6    21    1
    12    20    21    1
    13     7     8   ar
    14     9    13   ar
    15     9     4   ar
    16    10    11   ar
    17    10     2   ar
    18    11    12   ar
    19    15    14   am
    20     1    12   ar
    21    14    16    2
    22     2     3   ar
    23     4     5   ar
    24     6     7   ar
    25     8     9   ar
    26    10    13   ar
    27    15    17    1
@<TRIPOS>MOLECULE
MolPort-002-633-366 5556652 CHEMBL1445989 LN00746763 PubChem-1623160 ZINC000005556652 ZINC05556652
 25 27 0 0 0
SMALL
GASTEIGER

@<TRIPOS>ATOM
      1 C          13.5302   33.8398    3.7057 C.ar    1  UNL1        0.1568
      2 C          12.7205   34.9639    3.6842 C.ar    1  UNL1        0.0689
      3 C          12.8392   36.2546    4.1900 C.ar    1  UNL1        0.0075
      4 C          11.7436   37.1151    4.0039 C.ar    1  UNL1        0.0209
      5 C          11.7933   38.4298    4.4709 C.ar    1  UNL1        0.0384
      6 C          10.6966   39.2883    4.2869 C.ar    1  UNL1        0.1388
      7 C           9.5509   38.8182    3.6337 C.ar    1  UNL1        0.0384
      8 C           9.4861   37.5034    3.1626 C.ar    1  UNL1        0.0223
      9 C          10.5711   36.6429    3.3389 C.ar    1  UNL1        0.0831
     10 C          11.5782   34.5460    3.0658 C.ar    1  UNL1        0.1621
     11 N          11.6768   33.2474    2.7411 N.ar    1  UNL1       -0.2329
     12 N          12.8658   32.8022    3.1399 N.ar    1  UNL1       -0.1527
     13 N          10.5039   35.3552    2.8856 N.ar    1  UNL1       -0.2268
     14 C          16.0739   33.6600    3.6152 C.2     1  UNL1        0.2272
     15 N          14.8227   33.6995    4.3084 N.am    1  UNL1       -0.2679
     16 O          16.1219   33.4445    2.3754 O.2     1  UNL1       -0.2747
     17 H          14.8525   33.6232    5.2895 H       1  UNL1        0.1563
     18 C          17.3404   33.7810    4.3860 C.3     1  UNL1        0.0854
     19 C          17.9495   35.1516    4.1663 C.3     1  UNL1        0.0101
     20 C           9.5887   41.2363    5.3346 C.3     1  UNL1        0.2525
     21 O          10.7183   40.6095    4.7423 O.3     1  UNL1       -0.4714
     22 C          10.6423   32.4473    2.0910 C.3     1  UNL1        0.1292
     23 C          11.2372   31.2876    1.3029 C.3     1  UNL1        0.0264
     24 C          12.1784   31.9011   -0.9222 C.3     1  UNL1        0.0001
     25 C          12.4796   31.7372    0.5557 C.3     1  UNL1        0.0021
@<TRIPOS>BOND
     1    24    25    1
     2    25    23    1
     3    23    22    1
     4    22    11    1
     5     1    15    1
     6     1     2   ar
     7    18    14    1
     8    18    19    1
     9     3     4   ar
    10     5     6   ar
    11     6    21    1
    12    20    21    1
    13     7     8   ar
    14     9    13   ar
    15     9     4   ar
    16    10    11   ar
    17    10     2   ar
    18    11    12   ar
    19    15    14   am
    20     1    12   ar
    21    14    16    2
    22     2     3   ar
    23     4     5   ar
    24     6     7   ar
    25     8     9   ar
    26    10    13   ar
    27    15    17    1
@<TRIPOS>MOLECULE
MolPort-002-633-366 5556652 CHEMBL1445989 LN00746763 PubChem-1623160 ZINC000005556652 ZINC05556652
 25 27 0 0 0
SMALL
GASTEIGER

@<TRIPOS>ATOM
      1 C          12.0850   39.4641    8.3262 C.ar    1  UNL1        0.1568
      2 C          12.8149   40.5068    7.7788 C.ar    1  UNL1        0.0689
      3 C          14.0796   41.0355    8.0172 C.ar    1  UNL1        0.0075
      4 C          14.4487   42.1667    7.2692 C.ar    1  UNL1        0.0209
      5 C          15.7072   42.7456    7.4420 C.ar    1  UNL1        0.0384
      6 C          16.0741   43.8780    6.6960 C.ar    1  UNL1        0.1388
      7 C          15.1697   44.4255    5.7780 C.ar    1  UNL1        0.0384
      8 C          13.9051   43.8577    5.5958 C.ar    1  UNL1        0.0223
      9 C          13.5315   42.7314    6.3311 C.ar    1  UNL1        0.0831
     10 C          11.9620   41.0829    6.8830 C.ar    1  UNL1        0.1621
     11 N          10.7822   40.4428    6.8905 N.ar    1  UNL1       -0.2329
     12 N          10.8438   39.4556    7.7808 N.ar    1  UNL1       -0.1527
     13 N          12.2919   42.1819    6.1586 N.ar    1  UNL1       -0.2268
     14 C          11.8030   37.3701    9.7567 C.2     1  UNL1        0.2272
     15 N          12.4785   38.5731    9.3773 N.am    1  UNL1       -0.2679
     16 O          10.6205   37.1458    9.3862 O.2     1  UNL1       -0.2747
     17 H          13.2880   38.8105    9.8849 H       1  UNL1        0.1563
     18 C          12.4736   36.4155   10.6798 C.3     1  UNL1        0.0854
     19 C          13.2174   35.3626    9.8825 C.3     1  UNL1        0.0101
     20 C          18.3009   44.0020    7.7663 C.3     1  UNL1        0.2525
     21 O          17.3274   44.4779    6.8467 O.3     1  UNL1       -0.4714
     22 C           9.6154   40.7903    6.0838 C.3     1  UNL1        0.1292
     23 C           9.1577   39.6220    5.2203 C.3     1  UNL1        0.0264
     24 C           9.5339   38.5070    3.0229 C.3     1  UNL1        0.0001
     25 C          10.1599   39.3588    4.1111 C.3     1  UNL1        0.0021
@<TRIPOS>BOND
     1    24    25    1
     2    25    23    1
     3    23    22    1
     4    22    11    1
     5     1    15    1
     6     1     2   ar
     7    18    14    1
     8    18    19    1
     9     3     4   ar
    10     5     6   ar
    11     6    21    1
    12    20    21    1
    13     7     8   ar
    14     9    13   ar
    15     9     4   ar
    16    10    11   ar
    17    10     2   ar
    18    11    12   ar
    19    15    14   am
    20     1    12   ar
    21    14    16    2
    22     2     3   ar
    23     4     5   ar
    24     6     7   ar
    25     8     9   ar
    26    10    13   ar
    27    15    17    1
@<TRIPOS>MOLECULE
MolPort-002-633-366 5556652 CHEMBL1445989 LN00746763 PubChem-1623160 ZINC000005556652 ZINC05556652
 25 27 0 0 0
SMALL
GASTEIGER

@<TRIPOS>ATOM
      1 C          11.5889   42.0275    8.2376 C.ar    1  UNL1        0.1568
      2 C          12.0761   40.7612    8.5183 C.ar    1  UNL1        0.0689
      3 C          11.5377   39.6247    9.1136 C.ar    1  UNL1        0.0075
      4 C          12.3947   38.5223    9.2734 C.ar    1  UNL1        0.0209
      5 C          11.9233   37.3413    9.8494 C.ar    1  UNL1        0.0384
      6 C          12.7815   36.2408   10.0113 C.ar    1  UNL1        0.1388
      7 C          14.1144   36.3346    9.5932 C.ar    1  UNL1        0.0384
      8 C          14.6011   37.5117    9.0166 C.ar    1  UNL1        0.0223
      9 C          13.7560   38.6102    8.8498 C.ar    1  UNL1        0.0831
     10 C          13.3858   40.8109    8.1386 C.ar    1  UNL1        0.1621
     11 N          13.6847   42.0318    7.6679 N.ar    1  UNL1       -0.2329
     12 N          12.5922   42.7887    7.7354 N.ar    1  UNL1       -0.1527
     13 N          14.2345   39.7635    8.2938 N.ar    1  UNL1       -0.2268
     14 C           9.9257   43.3981    9.6035 C.2     1  UNL1        0.2272
     15 N          10.2812   42.5460    8.5103 N.am    1  UNL1       -0.2679
     16 O          10.6846   43.5249   10.6004 O.2     1  UNL1       -0.2747
     17 H           9.5612   42.2927    7.8884 H       1  UNL1        0.1563
     18 C           8.5981   44.0692    9.6051 C.3     1  UNL1        0.0854
     19 C           7.5273   43.0960    9.1536 C.3     1  UNL1        0.0101
     20 C          11.2325   34.9851   11.4753 C.3     1  UNL1        0.2525
     21 O          12.3371   35.0455   10.5832 O.3     1  UNL1       -0.4714
     22 C          14.9950   42.4685    7.1934 C.3     1  UNL1        0.1292
     23 C          16.0791   42.2398    8.2387 C.3     1  UNL1        0.0264
     24 C          17.0485   44.0272    6.7968 C.3     1  UNL1        0.0001
     25 C          17.3451   42.9871    7.8607 C.3     1  UNL1        0.0021
@<TRIPOS>BOND
     1    24    25    1
     2    25    23    1
     3    23    22    1
     4    22    11    1
     5     1    15    1
     6     1     2   ar
     7    18    14    1
     8    18    19    1
     9     3     4   ar
    10     5     6   ar
    11     6    21    1
    12    20    21    1
    13     7     8   ar
    14     9    13   ar
    15     9     4   ar
    16    10    11   ar
    17    10     2   ar
    18    11    12   ar
    19    15    14   am
    20     1    12   ar
    21    14    16    2
    22     2     3   ar
    23     4     5   ar
    24     6     7   ar
    25     8     9   ar
    26    10    13   ar
    27    15    17    1
@<TRIPOS>MOLECULE
MolPort-002-633-366 5556652 CHEMBL1445989 LN00746763 PubChem-1623160 ZINC000005556652 ZINC05556652
 25 27 0 0 0
SMALL
GASTEIGER

@<TRIPOS>ATOM
      1 C           8.6278   41.7944    8.9886 C.ar    1  UNL1        0.1568
      2 C           9.9047   41.3893    9.3424 C.ar    1  UNL1        0.0689
      3 C          11.1070   41.2605    8.6541 C.ar    1  UNL1        0.0075
      4 C          12.2005   40.7468    9.3723 C.ar    1  UNL1        0.0209
      5 C          13.4437   40.6015    8.7541 C.ar    1  UNL1        0.0384
      6 C          14.5354   40.0852    9.4720 C.ar    1  UNL1        0.1388
      7 C          14.3702   39.7146   10.8120 C.ar    1  UNL1        0.0384
      8 C          13.1305   39.8525   11.4437 C.ar    1  UNL1        0.0223
      9 C          12.0400   40.3661   10.7396 C.ar    1  UNL1        0.0831
     10 C           9.7878   41.0022   10.6456 C.ar    1  UNL1        0.1621
     11 N           8.5193   41.1485   11.0593 N.ar    1  UNL1       -0.2329
     12 N           7.7977   41.6228   10.0467 N.ar    1  UNL1       -0.1527
     13 N          10.8262   40.4927   11.3552 N.ar    1  UNL1       -0.2268
     14 C           7.3352   43.3637    7.4468 C.2     1  UNL1        0.2272
     15 N           8.1688   42.2290    7.7026 N.am    1  UNL1       -0.2679
     16 O           6.6825   43.9112    8.3741 O.2     1  UNL1       -0.2747
     17 H           8.4529   41.6983    6.9236 H       1  UNL1        0.1563
     18 C           7.1637   43.8440    6.0494 C.3     1  UNL1        0.0854
     19 C           6.4866   42.7746    5.2154 C.3     1  UNL1        0.0101
     20 C          16.9884   39.8114    9.6374 C.3     1  UNL1        0.2525
     21 O          15.7918   39.9299    8.8798 O.3     1  UNL1       -0.4714
     22 C           8.0080   40.8126   12.3854 C.3     1  UNL1        0.1292
     23 C           8.3490   41.8860   13.4108 C.3     1  UNL1        0.0264
     24 C           9.0373   40.4570   15.3337 C.3     1  UNL1        0.0001
     25 C           9.5112   41.4390   14.2788 C.3     1  UNL1        0.0021
@<TRIPOS>BOND
     1    24    25    1
     2    25    23    1
     3    23    22    1
     4    22    11    1
     5     1    15    1
     6     1     2   ar
     7    18    14    1
     8    18    19    1
     9     3     4   ar
    10     5     6   ar
    11     6    21    1
    12    20    21    1
    13     7     8   ar
    14     9    13   ar
    15     9     4   ar
    16    10    11   ar
    17    10     2   ar
    18    11    12   ar
    19    15    14   am
    20     1    12   ar
    21    14    16    2
    22     2     3   ar
    23     4     5   ar
    24     6     7   ar
    25     8     9   ar
    26    10    13   ar
    27    15    17    1
@<TRIPOS>MOLECULE
MolPort-002-633-366 5556652 CHEMBL1445989 LN00746763 PubChem-1623160 ZINC000005556652 ZINC05556652
 25 27 0 0 0
SMALL
GASTEIGER

@<TRIPOS>ATOM
      1 C          13.4706   42.4540    6.8769 C.ar    1  UNL1        0.1568
      2 C          13.6886   41.6148    7.9575 C.ar    1  UNL1        0.0689
      3 C          14.8186   41.0242    8.5145 C.ar    1  UNL1        0.0075
      4 C          14.6151   40.1648    9.6078 C.ar    1  UNL1        0.0209
      5 C          15.7013   39.5461   10.2292 C.ar    1  UNL1        0.0384
      6 C          15.4967   38.6850   11.3202 C.ar    1  UNL1        0.1388
      7 C          14.1960   38.4483   11.7812 C.ar    1  UNL1        0.0384
      8 C          13.0983   39.0593   11.1675 C.ar    1  UNL1        0.0223
      9 C          13.2912   39.9179   10.0838 C.ar    1  UNL1        0.0831
     10 C          12.4386   41.3435    8.4326 C.ar    1  UNL1        0.1621
     11 N          11.5144   41.9657    7.6840 N.ar    1  UNL1       -0.2329
     12 N          12.1368   42.6400    6.7202 N.ar    1  UNL1       -0.1527
     13 N          12.2171   40.5083    9.4789 N.ar    1  UNL1       -0.2268
     14 C          15.5846   43.7698    6.3200 C.2     1  UNL1        0.2272
     15 N          14.4418   42.9845    5.9666 N.am    1  UNL1       -0.2679
     16 O          15.6703   44.3181    7.4504 O.2     1  UNL1       -0.2747
     17 H          14.3109   42.7908    5.0102 H       1  UNL1        0.1563
     18 C          16.6419   44.0200    5.3039 C.3     1  UNL1        0.0854
     19 C          18.0064   43.7280    5.8961 C.3     1  UNL1        0.0101
     20 C          17.6838   37.5308   11.2593 C.3     1  UNL1        0.2525
     21 O          16.5648   38.0529   11.9628 O.3     1  UNL1       -0.4714
     22 C          10.0682   41.8895    7.8725 C.3     1  UNL1        0.1292
     23 C           9.3432   41.5938    6.5661 C.3     1  UNL1        0.0264
     24 C           7.2163   42.8848    6.4142 C.3     1  UNL1        0.0001
     25 C           7.8424   41.5550    6.7903 C.3     1  UNL1        0.0021
@<TRIPOS>BOND
     1    24    25    1
     2    25    23    1
     3    23    22    1
     4    22    11    1
     5     1    15    1
     6     1     2   ar
     7    18    14    1
     8    18    19    1
     9     3     4   ar
    10     5     6   ar
    11     6    21    1
    12    20    21    1
    13     7     8   ar
    14     9    13   ar
    15     9     4   ar
    16    10    11   ar
    17    10     2   ar
    18    11    12   ar
    19    15    14   am
    20     1    12   ar
    21    14    16    2
    22     2     3   ar
    23     4     5   ar
    24     6     7   ar
    25     8     9   ar
    26    10    13   ar
    27    15    17    1
@<TRIPOS>MOLECULE
MolPort-002-633-366 5556652 CHEMBL1445989 LN00746763 PubChem-1623160 ZINC000005556652 ZINC05556652
 25 27 0 0 0
SMALL
GASTEIGER

@<TRIPOS>ATOM
      1 C          12.1265   39.3513    8.3236 C.ar    1  UNL1        0.1568
      2 C          12.8278   40.4163    7.7816 C.ar    1  UNL1        0.0689
      3 C          14.0821   40.9712    8.0153 C.ar    1  UNL1        0.0075
      4 C          14.4189   42.1186    7.2766 C.ar    1  UNL1        0.0209
      5 C          15.6653   42.7242    7.4454 C.ar    1  UNL1        0.0384
      6 C          15.9999   43.8727    6.7087 C.ar    1  UNL1        0.1388
      7 C          15.0755   44.4091    5.8043 C.ar    1  UNL1        0.0384
      8 C          13.8227   43.8144    5.6263 C.ar    1  UNL1        0.0223
      9 C          13.4811   42.6721    6.3523 C.ar    1  UNL1        0.0831
     10 C          11.9543   40.9823    6.8992 C.ar    1  UNL1        0.1621
     11 N          10.7896   40.3152    6.9094 N.ar    1  UNL1       -0.2329
     12 N          10.8813   39.3203    7.7884 N.ar    1  UNL1       -0.1527
     13 N          12.2530   42.0962    6.1841 N.ar    1  UNL1       -0.2268
     14 C          11.8452   37.2956    9.8087 C.2     1  UNL1        0.2272
     15 N          12.5492   38.4584    9.3617 N.am    1  UNL1       -0.2679
     16 O          10.6306   37.1234    9.5242 O.2     1  UNL1       -0.2747
     17 H          13.4021   38.6639    9.8083 H       1  UNL1        0.1563
     18 C          12.5320   36.3238   10.7014 C.3     1  UNL1        0.0854
     19 C          13.7258   36.9842   11.3619 C.3     1  UNL1        0.0101
     20 C          18.2499   44.0094    7.7279 C.3     1  UNL1        0.2525
     21 O          17.2405   44.4994    6.8557 O.3     1  UNL1       -0.4714
     22 C           9.6084   40.6445    6.1161 C.3     1  UNL1        0.1292
     23 C           8.8334   39.3969    5.7126 C.3     1  UNL1        0.0264
     24 C           6.9401   40.8893    6.3462 C.3     1  UNL1        0.0001
     25 C           7.4187   39.4522    6.2599 C.3     1  UNL1        0.0021
@<TRIPOS>BOND
     1    24    25    1
     2    25    23    1
     3    23    22    1
     4    22    11    1
     5     1    15    1
     6     1     2   ar
     7    18    14    1
     8    18    19    1
     9     3     4   ar
    10     5     6   ar
    11     6    21    1
    12    20    21    1
    13     7     8   ar
    14     9    13   ar
    15     9     4   ar
    16    10    11   ar
    17    10     2   ar
    18    11    12   ar
    19    15    14   am
    20     1    12   ar
    21    14    16    2
    22     2     3   ar
    23     4     5   ar
    24     6     7   ar
    25     8     9   ar
    26    10    13   ar
    27    15    17    1
@<TRIPOS>MOLECULE
MolPort-002-633-366 5556652 CHEMBL1445989 LN00746763 PubChem-1623160 ZINC000005556652 ZINC05556652
 25 27 0 0 0
SMALL
GASTEIGER

@<TRIPOS>ATOM
      1 C          12.0442   41.5518    6.1502 C.ar    1  UNL1        0.1568
      2 C          12.1815   40.5917    7.1398 C.ar    1  UNL1        0.0689
      3 C          13.2403   40.1611    7.9331 C.ar    1  UNL1        0.0075
      4 C          12.9870   39.0900    8.8072 C.ar    1  UNL1        0.0209
      5 C          13.9955   38.6111    9.6452 C.ar    1  UNL1        0.0384
      6 C          13.7422   37.5385   10.5165 C.ar    1  UNL1        0.1388
      7 C          12.4720   36.9499   10.5393 C.ar    1  UNL1        0.0384
      8 C          11.4528   37.4176    9.7043 C.ar    1  UNL1        0.0223
      9 C          11.6939   38.4838    8.8361 C.ar    1  UNL1        0.0831
     10 C          10.9637   39.9780    7.1869 C.ar    1  UNL1        0.1621
     11 N          10.1382   40.5184    6.2768 N.ar    1  UNL1       -0.2329
     12 N          10.7953   41.4766    5.6279 N.ar    1  UNL1       -0.1527
     13 N          10.6997   38.9351    8.0139 N.ar    1  UNL1       -0.2268
     14 C          13.7660   43.4193    6.3914 C.2     1  UNL1        0.2272
     15 N          13.0491   42.4360    5.6386 N.am    1  UNL1       -0.2679
     16 O          13.3561   43.7977    7.5204 O.2     1  UNL1       -0.2747
     17 H          13.2661   42.3600    4.6813 H       1  UNL1        0.1563
     18 C          14.9599   44.0723    5.7903 C.3     1  UNL1        0.0854
     19 C          16.0579   44.1958    6.8279 C.3     1  UNL1        0.0101
     20 C          15.9464   37.7313   11.6227 C.3     1  UNL1        0.2525
     21 O          14.7318   37.0390   11.3678 O.3     1  UNL1       -0.4714
     22 C           8.7622   40.1036    6.0172 C.3     1  UNL1        0.1292
     23 C           8.7038   38.8377    5.1722 C.3     1  UNL1        0.0264
     24 C          10.5624   38.3219    3.5932 C.3     1  UNL1        0.0001
     25 C           9.2732   39.0973    3.7893 C.3     1  UNL1        0.0021
@<TRIPOS>BOND
     1    24    25    1
     2    25    23    1
     3    23    22    1
     4    22    11    1
     5     1    15    1
     6     1     2   ar
     7    18    14    1
     8    18    19    1
     9     3     4   ar
    10     5     6   ar
    11     6    21    1
    12    20    21    1
    13     7     8   ar
    14     9    13   ar
    15     9     4   ar
    16    10    11   ar
    17    10     2   ar
    18    11    12   ar
    19    15    14   am
    20     1    12   ar
    21    14    16    2
    22     2     3   ar
    23     4     5   ar
    24     6     7   ar
    25     8     9   ar
    26    10    13   ar
    27    15    17    1
@<TRIPOS>MOLECULE
MolPort-002-633-366 5556652 CHEMBL1445989 LN00746763 PubChem-1623160 ZINC000005556652 ZINC05556652
 25 27 0 0 0
SMALL
GASTEIGER

@<TRIPOS>ATOM
      1 C          12.8220   41.4659    7.4915 C.ar    1  UNL1        0.1568
      2 C          11.7259   41.5261    8.3370 C.ar    1  UNL1        0.0689
      3 C          11.5678   41.5654    9.7188 C.ar    1  UNL1        0.0075
      4 C          10.2508   41.5643   10.2096 C.ar    1  UNL1        0.0209
      5 C          10.0113   41.6168   11.5839 C.ar    1  UNL1        0.0384
      6 C           8.6945   41.6128   12.0737 C.ar    1  UNL1        0.1388
      7 C           7.6218   41.5541   11.1759 C.ar    1  UNL1        0.0384
      8 C           7.8465   41.4991    9.7970 C.ar    1  UNL1        0.0223
      9 C           9.1510   41.5042    9.3001 C.ar    1  UNL1        0.0831
     10 C          10.6498   41.4561    7.5010 C.ar    1  UNL1        0.1621
     11 N          11.0600   41.3472    6.2276 N.ar    1  UNL1       -0.2329
     12 N          12.3906   41.3406    6.2124 N.ar    1  UNL1       -0.1527
     13 N           9.3702   41.4418    7.9525 N.ar    1  UNL1       -0.2268
     14 C          15.2077   42.3702    7.4533 C.2     1  UNL1        0.2272
     15 N          14.2084   41.4267    7.8520 N.am    1  UNL1       -0.2679
     16 O          15.0070   43.1614    6.4944 O.2     1  UNL1       -0.2747
     17 H          14.5001   40.6825    8.4266 H       1  UNL1        0.1563
     18 C          16.5376   42.3513    8.1197 C.3     1  UNL1        0.0854
     19 C          17.3251   43.5881    7.7352 C.3     1  UNL1        0.0101
     20 C           9.2689   41.0663   14.4170 C.3     1  UNL1        0.2525
     21 O           8.4243   41.6660   13.4439 O.3     1  UNL1       -0.4714
     22 C          10.1944   41.2225    5.0579 C.3     1  UNL1        0.1292
     23 C          10.6639   40.1150    4.1235 C.3     1  UNL1        0.0264
     24 C           9.7488   38.0495    3.0700 C.3     1  UNL1        0.0001
     25 C           9.8569   38.8502    4.3541 C.3     1  UNL1        0.0021
@<TRIPOS>BOND
     1    24    25    1
     2    25    23    1
     3    23    22    1
     4    22    11    1
     5     1    15    1
     6     1     2   ar
     7    18    14    1
     8    18    19    1
     9     3     4   ar
    10     5     6   ar
    11     6    21    1
    12    20    21    1
    13     7     8   ar
    14     9    13   ar
    15     9     4   ar
    16    10    11   ar
    17    10     2   ar
    18    11    12   ar
    19    15    14   am
    20     1    12   ar
    21    14    16    2
    22     2     3   ar
    23     4     5   ar
    24     6     7   ar
    25     8     9   ar
    26    10    13   ar
    27    15    17    1
