@<TRIPOS>MOLECULE
Molport-020-295-104 MCULE-6578144194 PubChem-110267200
 28 31 0 0 0
SMALL
GASTEIGER

@<TRIPOS>ATOM
      1 C          13.2247   39.4433   11.6538 C.3     1  UNL1        0.0178
      2 C          12.4690   40.0888   10.5042 C.3     1  UNL1        0.0087
      3 C          12.5833   39.2084    9.2663 C.3     1  UNL1        0.0564
      4 C          14.0587   38.9660    8.9192 C.3     1  UNL1        0.0780
      5 C          14.6846   39.2152   11.2507 C.3     1  UNL1        0.0721
      6 N          14.8138   38.3886   10.0400 N.3     1  UNL1       -0.2720
      7 C          11.8517   39.8097    8.1087 C.ar    1  UNL1        0.0644
      8 C          11.7832   41.4297    6.3813 C.ar    1  UNL1        0.2214
      9 C           9.9729   39.9233    6.6217 C.ar    1  UNL1        0.1031
     10 C          10.6040   39.3200    7.7068 C.ar    1  UNL1        0.0355
     11 N          12.4116   40.8510    7.4387 N.ar    1  UNL1       -0.2179
     12 N          10.5695   40.9617    5.9812 N.ar    1  UNL1       -0.2120
     13 N          12.4149   42.5250    5.7075 N.pl3   1  UNL1       -0.2680
     14 H          11.9477   42.8929    4.9229 H       1  UNL1        0.1565
     15 C          13.6601   43.1370    6.0645 C.ar    1  UNL1        0.1343
     16 C          14.5631   42.4256    6.8593 C.ar    1  UNL1        0.0345
     17 C          15.7789   43.0140    7.2118 C.ar    1  UNL1        0.0045
     18 C          16.0816   44.3026    6.7698 C.ar    1  UNL1        0.0208
     19 C          15.1568   44.9849    5.9773 C.ar    1  UNL1        0.1003
     20 N          13.9774   44.3943    5.6444 N.ar    1  UNL1       -0.2290
     21 C          14.3481   37.0298   10.3009 C.3     1  UNL1        0.0768
     22 C          14.2319   36.2618    8.9947 C.3     1  UNL1        0.0437
     23 C          15.4164   35.3785    8.8015 C.ar    1  UNL1       -0.0208
     24 C          16.7006   35.9334    8.8022 C.ar    1  UNL1       -0.0042
     25 C          17.8197   35.1114    8.6367 C.ar    1  UNL1       -0.0003
     26 C          17.6567   33.7320    8.4750 C.ar    1  UNL1       -0.0000
     27 C          16.3748   33.1738    8.4808 C.ar    1  UNL1       -0.0003
     28 C          15.2555   33.9953    8.6462 C.ar    1  UNL1       -0.0042
@<TRIPOS>BOND
     1     1     2    1
     2     2     3    1
     3     3     4    1
     4     3     7    1
     5     4     6    1
     6     5     6    1
     7     5     1    1
     8    21     6    1
     9    21    22    1
    10    22    23    1
    11    24    25   ar
    12    26    27   ar
    13    28    23   ar
    14     8    11   ar
    15     8    13    1
    16     9    12   ar
    17    10     7   ar
    18    15    20   ar
    19    16    17   ar
    20    18    19   ar
    21    13    15    1
    22    23    24   ar
    23    25    26   ar
    24    27    28   ar
    25     7    11   ar
    26     8    12   ar
    27     9    10   ar
    28    15    16   ar
    29    17    18   ar
    30    19    20   ar
    31    13    14    1
@<TRIPOS>MOLECULE
Molport-020-295-104 MCULE-6578144194 PubChem-110267200
 28 31 0 0 0
SMALL
GASTEIGER

@<TRIPOS>ATOM
      1 C          11.0021   38.2544    9.1699 C.3     1  UNL1        0.0178
      2 C          12.5139   38.4070    9.1451 C.3     1  UNL1        0.0087
      3 C          12.9063   39.6757    9.8915 C.3     1  UNL1        0.0564
      4 C          12.1963   40.8930    9.2832 C.3     1  UNL1        0.0780
      5 C          10.3459   39.4979    8.5625 C.3     1  UNL1        0.0721
      6 N          10.7353   40.7371    9.2544 N.3     1  UNL1       -0.2720
      7 C          14.3900   39.8639    9.8900 C.ar    1  UNL1        0.0644
      8 C          16.2800   41.0240    9.0561 C.ar    1  UNL1        0.2214
      9 C          16.5951   39.2995   10.6471 C.ar    1  UNL1        0.1031
     10 C          15.2212   39.0760   10.6940 C.ar    1  UNL1        0.0355
     11 N          14.9369   40.8176    9.0911 N.ar    1  UNL1       -0.2179
     12 N          17.0982   40.2638    9.8339 N.ar    1  UNL1       -0.2120
     13 N          16.8081   42.0419    8.1973 N.pl3   1  UNL1       -0.2680
     14 H          17.7858   42.1571    8.1939 H       1  UNL1        0.1565
     15 C          16.0518   42.9084    7.3430 C.ar    1  UNL1        0.1343
     16 C          14.8068   42.4812    6.8732 C.ar    1  UNL1        0.0345
     17 C          14.0630   43.3189    6.0404 C.ar    1  UNL1        0.0045
     18 C          14.5665   44.5710    5.6850 C.ar    1  UNL1        0.0208
     19 C          15.8136   44.9662    6.1721 C.ar    1  UNL1        0.1003
     20 N          16.5232   44.1354    6.9826 N.ar    1  UNL1       -0.2290
     21 C          10.2111   40.7440   10.6169 C.3     1  UNL1        0.0768
     22 C          10.0249   42.1749   11.0935 C.3     1  UNL1        0.0437
     23 C           8.9892   42.8669   10.2754 C.ar    1  UNL1       -0.0208
     24 C           7.8746   42.1530    9.8227 C.ar    1  UNL1       -0.0042
     25 C           6.8894   42.7963    9.0670 C.ar    1  UNL1       -0.0003
     26 C           7.0149   44.1563    8.7669 C.ar    1  UNL1       -0.0000
     27 C           8.1244   44.8739    9.2239 C.ar    1  UNL1       -0.0003
     28 C           9.1098   44.2311    9.9794 C.ar    1  UNL1       -0.0042
@<TRIPOS>BOND
     1     1     2    1
     2     2     3    1
     3     3     4    1
     4     3     7    1
     5     4     6    1
     6     5     6    1
     7     5     1    1
     8    21     6    1
     9    21    22    1
    10    22    23    1
    11    24    25   ar
    12    26    27   ar
    13    28    23   ar
    14     8    11   ar
    15     8    13    1
    16     9    12   ar
    17    10     7   ar
    18    15    20   ar
    19    16    17   ar
    20    18    19   ar
    21    13    15    1
    22    23    24   ar
    23    25    26   ar
    24    27    28   ar
    25     7    11   ar
    26     8    12   ar
    27     9    10   ar
    28    15    16   ar
    29    17    18   ar
    30    19    20   ar
    31    13    14    1
@<TRIPOS>MOLECULE
Molport-020-295-104 MCULE-6578144194 PubChem-110267200
 28 31 0 0 0
SMALL
GASTEIGER

@<TRIPOS>ATOM
      1 C           9.0596   43.7356   11.1348 C.3     1  UNL1        0.0178
      2 C           9.9684   43.1526   10.0655 C.3     1  UNL1        0.0087
      3 C           9.3000   41.9331    9.4437 C.3     1  UNL1        0.0564
      4 C           8.9555   40.9031   10.5285 C.3     1  UNL1        0.0780
      5 C           8.7402   42.6654   12.1830 C.3     1  UNL1        0.0721
      6 N           8.1183   41.4677   11.5961 N.3     1  UNL1       -0.2720
      7 C          10.1641   41.3273    8.3839 C.ar    1  UNL1        0.0644
      8 C          11.6851   41.6369    6.5940 C.ar    1  UNL1        0.2214
      9 C          11.0613   39.4378    7.2097 C.ar    1  UNL1        0.1031
     10 C          10.2391   39.9403    8.2153 C.ar    1  UNL1        0.0355
     11 N          10.8869   42.1423    7.5714 N.ar    1  UNL1       -0.2179
     12 N          11.7661   40.2894    6.4208 N.ar    1  UNL1       -0.2120
     13 N          12.4275   42.5376    5.7632 N.pl3   1  UNL1       -0.2680
     14 H          12.0466   42.7427    4.8789 H       1  UNL1        0.1565
     15 C          13.6703   43.1690    6.0941 C.ar    1  UNL1        0.1343
     16 C          14.5694   42.5015    6.9303 C.ar    1  UNL1        0.0345
     17 C          15.7828   43.1090    7.2579 C.ar    1  UNL1        0.0045
     18 C          16.0869   44.3728    6.7501 C.ar    1  UNL1        0.0208
     19 C          15.1660   45.0114    5.9176 C.ar    1  UNL1        0.1003
     20 N          13.9889   44.4027    5.6100 N.ar    1  UNL1       -0.2290
     21 C           6.7956   41.7894   11.0683 C.3     1  UNL1        0.0768
     22 C           6.7441   41.4877    9.5798 C.3     1  UNL1        0.0437
     23 C           6.0131   42.5645    8.8540 C.ar    1  UNL1       -0.0208
     24 C           4.7484   42.9635    9.2994 C.ar    1  UNL1       -0.0042
     25 C           4.0604   43.9834    8.6346 C.ar    1  UNL1       -0.0003
     26 C           4.6383   44.6096    7.5258 C.ar    1  UNL1       -0.0000
     27 C           5.9051   44.2176    7.0826 C.ar    1  UNL1       -0.0003
     28 C           6.5934   43.1978    7.7470 C.ar    1  UNL1       -0.0042
@<TRIPOS>BOND
     1     1     2    1
     2     2     3    1
     3     3     4    1
     4     3     7    1
     5     4     6    1
     6     5     6    1
     7     5     1    1
     8    21     6    1
     9    21    22    1
    10    22    23    1
    11    24    25   ar
    12    26    27   ar
    13    28    23   ar
    14     8    11   ar
    15     8    13    1
    16     9    12   ar
    17    10     7   ar
    18    15    20   ar
    19    16    17   ar
    20    18    19   ar
    21    13    15    1
    22    23    24   ar
    23    25    26   ar
    24    27    28   ar
    25     7    11   ar
    26     8    12   ar
    27     9    10   ar
    28    15    16   ar
    29    17    18   ar
    30    19    20   ar
    31    13    14    1
@<TRIPOS>MOLECULE
Molport-020-295-104 MCULE-6578144194 PubChem-110267200
 28 31 0 0 0
SMALL
GASTEIGER

@<TRIPOS>ATOM
      1 C           9.5242   43.8219    9.9511 C.3     1  UNL1        0.0178
      2 C          10.8996   43.1814   10.0376 C.3     1  UNL1        0.0087
      3 C          10.7674   41.6741    9.8610 C.3     1  UNL1        0.0564
      4 C           9.7994   41.0983   10.9038 C.3     1  UNL1        0.0780
      5 C           8.5984   43.2047   11.0037 C.3     1  UNL1        0.0721
      6 N           8.4801   41.7444   10.8653 N.3     1  UNL1       -0.2720
      7 C          12.1021   41.0038    9.9402 C.ar    1  UNL1        0.0644
      8 C          14.3123   40.7955    9.1126 C.ar    1  UNL1        0.2214
      9 C          13.6176   39.4147   10.9056 C.ar    1  UNL1        0.1031
     10 C          12.3545   40.0010   10.8830 C.ar    1  UNL1        0.0355
     11 N          13.0842   41.3773    9.0784 N.ar    1  UNL1       -0.2179
     12 N          14.5693   39.8193   10.0255 N.ar    1  UNL1       -0.2120
     13 N          15.3144   41.2244    8.1829 N.pl3   1  UNL1       -0.2680
     14 H          16.1036   40.6447    8.0816 H       1  UNL1        0.1565
     15 C          15.2798   42.4147    7.3863 C.ar    1  UNL1        0.1343
     16 C          14.2102   42.6136    6.5090 C.ar    1  UNL1        0.0345
     17 C          14.1681   43.7705    5.7290 C.ar    1  UNL1        0.0045
     18 C          15.1902   44.7152    5.8309 C.ar    1  UNL1        0.0208
     19 C          16.2438   44.4849    6.7174 C.ar    1  UNL1        0.1003
     20 N          16.2666   43.3512    7.4689 N.ar    1  UNL1       -0.2290
     21 C           7.8009   41.4060    9.6181 C.3     1  UNL1        0.0768
     22 C           6.2957   41.4220    9.8266 C.3     1  UNL1        0.0437
     23 C           5.6747   42.5400    9.0616 C.ar    1  UNL1       -0.0208
     24 C           4.3796   42.9615    9.3813 C.ar    1  UNL1       -0.0042
     25 C           3.7933   44.0195    8.6797 C.ar    1  UNL1       -0.0003
     26 C           4.5031   44.6613    7.6602 C.ar    1  UNL1       -0.0000
     27 C           5.8003   44.2467    7.3431 C.ar    1  UNL1       -0.0003
     28 C           6.3870   43.1888    8.0442 C.ar    1  UNL1       -0.0042
@<TRIPOS>BOND
     1     1     2    1
     2     2     3    1
     3     3     4    1
     4     3     7    1
     5     4     6    1
     6     5     6    1
     7     5     1    1
     8    21     6    1
     9    21    22    1
    10    22    23    1
    11    24    25   ar
    12    26    27   ar
    13    28    23   ar
    14     8    11   ar
    15     8    13    1
    16     9    12   ar
    17    10     7   ar
    18    15    20   ar
    19    16    17   ar
    20    18    19   ar
    21    13    15    1
    22    23    24   ar
    23    25    26   ar
    24    27    28   ar
    25     7    11   ar
    26     8    12   ar
    27     9    10   ar
    28    15    16   ar
    29    17    18   ar
    30    19    20   ar
    31    13    14    1
@<TRIPOS>MOLECULE
Molport-020-295-104 MCULE-6578144194 PubChem-110267200
 28 31 0 0 0
SMALL
GASTEIGER

@<TRIPOS>ATOM
      1 C          10.9266   42.1244    9.0076 C.3     1  UNL1        0.0178
      2 C          11.7108   41.1233    9.8395 C.3     1  UNL1        0.0087
      3 C          13.1381   41.0372    9.3141 C.3     1  UNL1        0.0564
      4 C          13.1361   40.6690    7.8240 C.3     1  UNL1        0.0780
      5 C          10.9660   41.7154    7.5321 C.3     1  UNL1        0.0721
      6 N          12.3388   41.6007    7.0143 N.3     1  UNL1       -0.2720
      7 C          13.9457   40.0596   10.1072 C.ar    1  UNL1        0.0644
      8 C          15.9611   38.8413   10.3659 C.ar    1  UNL1        0.2214
      9 C          14.2416   38.5800   11.9719 C.ar    1  UNL1        0.1031
     10 C          13.4408   39.4844   11.2786 C.ar    1  UNL1        0.0355
     11 N          15.1913   39.7259    9.6783 N.ar    1  UNL1       -0.2179
     12 N          15.4807   38.2757   11.5067 N.ar    1  UNL1       -0.2120
     13 N          17.2678   38.5220    9.8728 N.pl3   1  UNL1       -0.2680
     14 H          17.8196   39.2738    9.5571 H       1  UNL1        0.1565
     15 C          17.8498   37.2152    9.7943 C.ar    1  UNL1        0.1343
     16 C          17.2286   36.2415    9.0074 C.ar    1  UNL1        0.0345
     17 C          17.7887   34.9655    8.9249 C.ar    1  UNL1        0.0045
     18 C          18.9594   34.6735    9.6261 C.ar    1  UNL1        0.0208
     19 C          19.5538   35.6697   10.4028 C.ar    1  UNL1        0.1003
     20 N          18.9926   36.9071   10.4703 N.ar    1  UNL1       -0.2290
     21 C          12.9835   42.9104    6.9906 C.3     1  UNL1        0.0768
     22 C          14.0141   42.9607    5.8749 C.3     1  UNL1        0.0437
     23 C          15.3708   43.2305    6.4294 C.ar    1  UNL1       -0.0208
     24 C          16.2182   44.1320    5.7764 C.ar    1  UNL1       -0.0042
     25 C          17.4874   44.4037    6.2966 C.ar    1  UNL1       -0.0003
     26 C          17.9097   43.7779    7.4736 C.ar    1  UNL1       -0.0000
     27 C          17.0622   42.8817    8.1321 C.ar    1  UNL1       -0.0003
     28 C          15.7930   42.6096    7.6124 C.ar    1  UNL1       -0.0042
@<TRIPOS>BOND
     1     1     2    1
     2     2     3    1
     3     3     4    1
     4     3     7    1
     5     4     6    1
     6     5     6    1
     7     5     1    1
     8    21     6    1
     9    21    22    1
    10    22    23    1
    11    24    25   ar
    12    26    27   ar
    13    28    23   ar
    14     8    11   ar
    15     8    13    1
    16     9    12   ar
    17    10     7   ar
    18    15    20   ar
    19    16    17   ar
    20    18    19   ar
    21    13    15    1
    22    23    24   ar
    23    25    26   ar
    24    27    28   ar
    25     7    11   ar
    26     8    12   ar
    27     9    10   ar
    28    15    16   ar
    29    17    18   ar
    30    19    20   ar
    31    13    14    1
@<TRIPOS>MOLECULE
Molport-020-295-104 MCULE-6578144194 PubChem-110267200
 28 31 0 0 0
SMALL
GASTEIGER

@<TRIPOS>ATOM
      1 C          12.3848   36.8273   10.7456 C.3     1  UNL1        0.0178
      2 C          13.8741   37.0904   10.5969 C.3     1  UNL1        0.0087
      3 C          14.1027   38.5756   10.3469 C.3     1  UNL1        0.0564
      4 C          13.3124   39.0363    9.1144 C.3     1  UNL1        0.0780
      5 C          11.6455   37.3144    9.4957 C.3     1  UNL1        0.0721
      6 N          11.8768   38.7419    9.2230 N.3     1  UNL1       -0.2720
      7 C          15.5595   38.8777   10.1939 C.ar    1  UNL1        0.0644
      8 C          17.2519   40.4275    9.6050 C.ar    1  UNL1        0.2214
      9 C          17.8736   38.2594   10.3241 C.ar    1  UNL1        0.1031
     10 C          16.5335   37.9170   10.4878 C.ar    1  UNL1        0.0355
     11 N          15.9398   40.1081    9.7600 N.ar    1  UNL1       -0.2179
     12 N          18.2081   39.5013    9.8881 N.ar    1  UNL1       -0.2120
     13 N          17.6020   41.7383    9.1449 N.pl3   1  UNL1       -0.2680
     14 H          18.4136   42.1421    9.5290 H       1  UNL1        0.1565
     15 C          16.8859   42.5189    8.1802 C.ar    1  UNL1        0.1343
     16 C          15.5971   42.1251    7.8100 C.ar    1  UNL1        0.0345
     17 C          14.8919   42.8797    6.8708 C.ar    1  UNL1        0.0045
     18 C          15.4772   44.0164    6.3113 C.ar    1  UNL1        0.0208
     19 C          16.7663   44.3812    6.7037 C.ar    1  UNL1        0.1003
     20 N          17.4371   43.6327    7.6205 N.ar    1  UNL1       -0.2290
     21 C          11.2828   39.5624   10.2743 C.3     1  UNL1        0.0768
     22 C          11.6829   41.0163   10.0855 C.3     1  UNL1        0.0437
     23 C          10.4754   41.8709    9.9060 C.ar    1  UNL1       -0.0208
     24 C          10.5052   43.2065   10.3211 C.ar    1  UNL1       -0.0042
     25 C           9.3826   44.0212   10.1436 C.ar    1  UNL1       -0.0003
     26 C           8.2296   43.5028    9.5459 C.ar    1  UNL1       -0.0000
     27 C           8.1993   42.1702    9.1237 C.ar    1  UNL1       -0.0003
     28 C           9.3215   41.3552    9.3011 C.ar    1  UNL1       -0.0042
@<TRIPOS>BOND
     1     1     2    1
     2     2     3    1
     3     3     4    1
     4     3     7    1
     5     4     6    1
     6     5     6    1
     7     5     1    1
     8    21     6    1
     9    21    22    1
    10    22    23    1
    11    24    25   ar
    12    26    27   ar
    13    28    23   ar
    14     8    11   ar
    15     8    13    1
    16     9    12   ar
    17    10     7   ar
    18    15    20   ar
    19    16    17   ar
    20    18    19   ar
    21    13    15    1
    22    23    24   ar
    23    25    26   ar
    24    27    28   ar
    25     7    11   ar
    26     8    12   ar
    27     9    10   ar
    28    15    16   ar
    29    17    18   ar
    30    19    20   ar
    31    13    14    1
@<TRIPOS>MOLECULE
Molport-020-295-104 MCULE-6578144194 PubChem-110267200
 28 31 0 0 0
SMALL
GASTEIGER

@<TRIPOS>ATOM
      1 C          12.4104   36.8345   10.8272 C.3     1  UNL1        0.0178
      2 C          13.9044   37.0785   10.6938 C.3     1  UNL1        0.0087
      3 C          14.1474   38.5351   10.3198 C.3     1  UNL1        0.0564
      4 C          13.3907   38.8880    9.0318 C.3     1  UNL1        0.0780
      5 C          11.7053   37.2118    9.5209 C.3     1  UNL1        0.0721
      6 N          11.9512   38.6090    9.1294 N.3     1  UNL1       -0.2720
      7 C          15.6092   38.8178   10.1778 C.ar    1  UNL1        0.0644
      8 C          17.3260   40.3385    9.5834 C.ar    1  UNL1        0.2214
      9 C          17.9143   38.1747   10.3423 C.ar    1  UNL1        0.1031
     10 C          16.5686   37.8505   10.4969 C.ar    1  UNL1        0.0355
     11 N          16.0086   40.0369    9.7292 N.ar    1  UNL1       -0.2179
     12 N          18.2681   39.4056    9.8909 N.ar    1  UNL1       -0.2120
     13 N          17.6964   41.6379    9.1069 N.pl3   1  UNL1       -0.2680
     14 H          18.5327   42.0188    9.4599 H       1  UNL1        0.1565
     15 C          16.9681   42.4369    8.1667 C.ar    1  UNL1        0.1343
     16 C          17.5852   43.5598    7.6086 C.ar    1  UNL1        0.0345
     17 C          16.8833   44.3441    6.6916 C.ar    1  UNL1        0.0045
     18 C          15.5765   44.0020    6.3410 C.ar    1  UNL1        0.0208
     19 C          14.9905   42.8737    6.9176 C.ar    1  UNL1        0.1003
     20 N          15.6911   42.1222    7.8093 N.ar    1  UNL1       -0.2290
     21 C          11.3356   39.5210   10.0889 C.3     1  UNL1        0.0768
     22 C          10.3777   40.4582    9.3724 C.3     1  UNL1        0.0437
     23 C          10.4586   40.2595    7.8977 C.ar    1  UNL1       -0.0208
     24 C           9.6358   39.3107    7.2813 C.ar    1  UNL1       -0.0042
     25 C           9.6930   39.1271    5.8962 C.ar    1  UNL1       -0.0003
     26 C          10.5699   39.8955    5.1243 C.ar    1  UNL1       -0.0000
     27 C          11.3885   40.8494    5.7368 C.ar    1  UNL1       -0.0003
     28 C          11.3316   41.0334    7.1217 C.ar    1  UNL1       -0.0042
@<TRIPOS>BOND
     1     1     2    1
     2     2     3    1
     3     3     4    1
     4     3     7    1
     5     4     6    1
     6     5     6    1
     7     5     1    1
     8    21     6    1
     9    21    22    1
    10    22    23    1
    11    24    25   ar
    12    26    27   ar
    13    28    23   ar
    14     8    11   ar
    15     8    13    1
    16     9    12   ar
    17    10     7   ar
    18    15    20   ar
    19    16    17   ar
    20    18    19   ar
    21    13    15    1
    22    23    24   ar
    23    25    26   ar
    24    27    28   ar
    25     7    11   ar
    26     8    12   ar
    27     9    10   ar
    28    15    16   ar
    29    17    18   ar
    30    19    20   ar
    31    13    14    1
@<TRIPOS>MOLECULE
Molport-020-295-104 MCULE-6578144194 PubChem-110267200
 28 31 0 0 0
SMALL
GASTEIGER

@<TRIPOS>ATOM
      1 C           9.5267   41.7682    5.9835 C.3     1  UNL1        0.0178
      2 C           9.0264   41.6716    7.4152 C.3     1  UNL1        0.0087
      3 C          10.2166   41.6354    8.3653 C.3     1  UNL1        0.0564
      4 C          11.1517   40.4730    8.0041 C.3     1  UNL1        0.0780
      5 C          10.4609   40.5929    5.6808 C.3     1  UNL1        0.0721
      6 N          11.6029   40.5261    6.6065 N.3     1  UNL1       -0.2720
      7 C           9.7667   41.5397    9.7884 C.ar    1  UNL1        0.0644
      8 C           8.0349   41.8040   11.3835 C.ar    1  UNL1        0.2214
      9 C          10.1593   41.0466   12.1029 C.ar    1  UNL1        0.1031
     10 C          10.6383   41.1137   10.7968 C.ar    1  UNL1        0.0355
     11 N           8.4879   41.8745   10.1038 N.ar    1  UNL1       -0.2179
     12 N           8.8736   41.3908   12.3725 N.ar    1  UNL1       -0.2120
     13 N           6.6781   42.1678   11.6650 N.pl3   1  UNL1       -0.2680
     14 H           6.5220   42.7124   12.4702 H       1  UNL1        0.1565
     15 C           5.5262   41.8161   10.8890 C.ar    1  UNL1        0.1343
     16 C           4.7958   40.6764   11.2363 C.ar    1  UNL1        0.0345
     17 C           3.6720   40.3262   10.4859 C.ar    1  UNL1        0.0045
     18 C           3.2885   41.1137    9.3994 C.ar    1  UNL1        0.0208
     19 C           4.0408   42.2455    9.0802 C.ar    1  UNL1        0.1003
     20 N           5.1328   42.5700    9.8238 N.ar    1  UNL1       -0.2290
     21 C          12.4802   41.6771    6.4144 C.3     1  UNL1        0.0768
     22 C          13.6650   41.5898    7.3620 C.3     1  UNL1        0.0437
     23 C          14.7052   42.5901    6.9906 C.ar    1  UNL1       -0.0208
     24 C          15.9508   42.5617    7.6269 C.ar    1  UNL1       -0.0042
     25 C          16.9391   43.4864    7.2752 C.ar    1  UNL1       -0.0003
     26 C          16.6852   44.4382    6.2828 C.ar    1  UNL1       -0.0000
     27 C          15.4436   44.4646    5.6403 C.ar    1  UNL1       -0.0003
     28 C          14.4550   43.5402    5.9916 C.ar    1  UNL1       -0.0042
@<TRIPOS>BOND
     1     1     2    1
     2     2     3    1
     3     3     4    1
     4     3     7    1
     5     4     6    1
     6     5     6    1
     7     5     1    1
     8    21     6    1
     9    21    22    1
    10    22    23    1
    11    24    25   ar
    12    26    27   ar
    13    28    23   ar
    14     8    11   ar
    15     8    13    1
    16     9    12   ar
    17    10     7   ar
    18    15    20   ar
    19    16    17   ar
    20    18    19   ar
    21    13    15    1
    22    23    24   ar
    23    25    26   ar
    24    27    28   ar
    25     7    11   ar
    26     8    12   ar
    27     9    10   ar
    28    15    16   ar
    29    17    18   ar
    30    19    20   ar
    31    13    14    1
@<TRIPOS>MOLECULE
Molport-020-295-104 MCULE-6578144194 PubChem-110267200
 28 31 0 0 0
SMALL
GASTEIGER

@<TRIPOS>ATOM
      1 C          11.7898   37.1062   10.2914 C.3     1  UNL1        0.0178
      2 C          13.3079   37.1654   10.3269 C.3     1  UNL1        0.0087
      3 C          13.7521   38.5994   10.5859 C.3     1  UNL1        0.0564
      4 C          13.1654   39.5391    9.5234 C.3     1  UNL1        0.0780
      5 C          11.2587   38.0679    9.2242 C.3     1  UNL1        0.0721
      6 N          11.7005   39.4545    9.4432 N.3     1  UNL1       -0.2720
      7 C          15.2436   38.7017   10.6279 C.ar    1  UNL1        0.0644
      8 C          17.2059   39.8915   10.0390 C.ar    1  UNL1        0.2214
      9 C          17.4031   37.8825   11.2757 C.ar    1  UNL1        0.1031
     10 C          16.0186   37.7310   11.2721 C.ar    1  UNL1        0.0355
     11 N          15.8533   39.7573   10.0272 N.ar    1  UNL1       -0.2179
     12 N          17.9699   38.9536   10.6628 N.ar    1  UNL1       -0.2120
     13 N          17.8012   41.0224    9.3915 N.pl3   1  UNL1       -0.2680
     14 H          18.7671   41.1549    9.5279 H       1  UNL1        0.1565
     15 C          17.1276   41.9794    8.5650 C.ar    1  UNL1        0.1343
     16 C          17.7624   43.1895    8.2720 C.ar    1  UNL1        0.0345
     17 C          17.1137   44.1278    7.4673 C.ar    1  UNL1        0.0045
     18 C          15.8418   43.8511    6.9641 C.ar    1  UNL1        0.0208
     19 C          15.2367   42.6324    7.2765 C.ar    1  UNL1        0.1003
     20 N          15.8853   41.7311    8.0623 N.ar    1  UNL1       -0.2290
     21 C          11.1076   39.9893   10.6654 C.3     1  UNL1        0.0768
     22 C          10.6054   41.4029   10.4225 C.3     1  UNL1        0.0437
     23 C           9.1161   41.4269   10.3765 C.ar    1  UNL1       -0.0208
     24 C           8.3890   41.5412   11.5663 C.ar    1  UNL1       -0.0042
     25 C           6.9916   41.5799   11.5331 C.ar    1  UNL1       -0.0003
     26 C           6.3187   41.5093   10.3094 C.ar    1  UNL1       -0.0000
     27 C           7.0430   41.4019    9.1181 C.ar    1  UNL1       -0.0003
     28 C           8.4403   41.3632    9.1508 C.ar    1  UNL1       -0.0042
@<TRIPOS>BOND
     1     1     2    1
     2     2     3    1
     3     3     4    1
     4     3     7    1
     5     4     6    1
     6     5     6    1
     7     5     1    1
     8    21     6    1
     9    21    22    1
    10    22    23    1
    11    24    25   ar
    12    26    27   ar
    13    28    23   ar
    14     8    11   ar
    15     8    13    1
    16     9    12   ar
    17    10     7   ar
    18    15    20   ar
    19    16    17   ar
    20    18    19   ar
    21    13    15    1
    22    23    24   ar
    23    25    26   ar
    24    27    28   ar
    25     7    11   ar
    26     8    12   ar
    27     9    10   ar
    28    15    16   ar
    29    17    18   ar
    30    19    20   ar
    31    13    14    1
@<TRIPOS>MOLECULE
Molport-020-295-104 MCULE-6578144194 PubChem-110267200
 28 31 0 0 0
SMALL
GASTEIGER

@<TRIPOS>ATOM
      1 C          10.0507   39.6918    7.8719 C.3     1  UNL1        0.0178
      2 C          11.4648   39.3628    8.3206 C.3     1  UNL1        0.0087
      3 C          11.7395   40.0349    9.6598 C.3     1  UNL1        0.0564
      4 C          11.5082   41.5486    9.5538 C.3     1  UNL1        0.0780
      5 C           9.8724   41.2110    7.7933 C.3     1  UNL1        0.0721
      6 N          10.1602   41.8804    9.0718 N.3     1  UNL1       -0.2720
      7 C          13.1247   39.7361   10.1380 C.ar    1  UNL1        0.0644
      8 C          15.4604   40.0451    9.8885 C.ar    1  UNL1        0.2214
      9 C          14.6606   38.6584   11.6325 C.ar    1  UNL1        0.1031
     10 C          13.3471   38.8984   11.2366 C.ar    1  UNL1        0.0355
     11 N          14.1838   40.2890    9.4903 N.ar    1  UNL1       -0.2179
     12 N          15.6888   39.2322   10.9559 N.ar    1  UNL1       -0.2120
     13 N          16.5432   40.6518    9.1729 N.pl3   1  UNL1       -0.2680
     14 H          17.3995   40.1662    9.1673 H       1  UNL1        0.1565
     15 C          16.5011   41.8964    8.4645 C.ar    1  UNL1        0.1343
     16 C          15.3963   42.1811    7.6572 C.ar    1  UNL1        0.0345
     17 C          15.3467   43.3914    6.9634 C.ar    1  UNL1        0.0045
     18 C          16.3963   44.3036    7.0810 C.ar    1  UNL1        0.0208
     19 C          17.4846   43.9873    7.8961 C.ar    1  UNL1        0.1003
     20 N          17.5143   42.8026    8.5640 N.ar    1  UNL1       -0.2290
     21 C           9.1702   41.5034   10.0764 C.3     1  UNL1        0.0768
     22 C           8.0737   42.5535   10.1432 C.3     1  UNL1        0.0437
     23 C           6.7307   41.9081   10.1168 C.ar    1  UNL1       -0.0208
     24 C           6.1635   41.4424   11.3078 C.ar    1  UNL1       -0.0042
     25 C           4.8973   40.8489   11.2962 C.ar    1  UNL1       -0.0003
     26 C           4.1940   40.7244   10.0941 C.ar    1  UNL1       -0.0000
     27 C           4.7556   41.1952    8.9033 C.ar    1  UNL1       -0.0003
     28 C           6.0215   41.7888    8.9142 C.ar    1  UNL1       -0.0042
@<TRIPOS>BOND
     1     1     2    1
     2     2     3    1
     3     3     4    1
     4     3     7    1
     5     4     6    1
     6     5     6    1
     7     5     1    1
     8    21     6    1
     9    21    22    1
    10    22    23    1
    11    24    25   ar
    12    26    27   ar
    13    28    23   ar
    14     8    11   ar
    15     8    13    1
    16     9    12   ar
    17    10     7   ar
    18    15    20   ar
    19    16    17   ar
    20    18    19   ar
    21    13    15    1
    22    23    24   ar
    23    25    26   ar
    24    27    28   ar
    25     7    11   ar
    26     8    12   ar
    27     9    10   ar
    28    15    16   ar
    29    17    18   ar
    30    19    20   ar
    31    13    14    1
