@<TRIPOS>MOLECULE
MolPort-046-958-708 MCULE-1415893023 PubChem-110094059
 23 25 0 0 0
SMALL
GASTEIGER

@<TRIPOS>ATOM
      1 C          12.5066   39.7330    8.3348 C.ar    1  UNL1        0.0808
      2 C          11.1597   39.3497    8.3147 C.ar    1  UNL1        0.1137
      3 C          10.7067   41.0215    6.7023 C.ar    1  UNL1        0.1332
      4 C          12.0521   41.4108    6.7167 C.ar    1  UNL1        0.1522
      5 N          10.2917   40.0025    7.4993 N.ar    1  UNL1       -0.2382
      6 N          12.9162   40.7532    7.5351 N.ar    1  UNL1       -0.2317
      7 C          17.8841   38.8799   11.4113 C.3     1  UNL1        0.0948
      8 C          16.9478   39.4807   10.4179 C.2     1  UNL1        0.2261
      9 C          14.9531   38.6877   11.7375 C.3     1  UNL1        0.0934
     10 C          13.8469   37.7253   11.3156 C.3     1  UNL1        0.0219
     11 C          12.8211   38.4519   10.4511 C.3     1  UNL1        0.0094
     12 C          13.4998   39.0450    9.2157 C.3     1  UNL1        0.0617
     13 C          14.6232   39.9990    9.6229 C.3     1  UNL1        0.0993
     14 O          17.4260   40.1187    9.4423 O.2     1  UNL1       -0.2749
     15 N          15.5272   39.3319   10.5574 N.am    1  UNL1       -0.2791
     16 N          12.5463   42.4793    5.8968 N.pl3   1  UNL1       -0.2809
     17 H          11.9944   42.7236    5.1190 H       1  UNL1        0.1551
     18 C          13.7528   43.2317    6.0815 C.ar    1  UNL1        0.1526
     19 C          15.0637   45.1729    5.7061 C.ar    1  UNL1        0.1210
     20 C          16.0937   44.6267    6.4730 C.ar    1  UNL1        0.1196
     21 C          14.7859   42.6885    6.8484 C.ar    1  UNL1        0.1332
     22 N          13.9177   44.4645    5.5274 N.ar    1  UNL1       -0.2258
     23 N          15.9324   43.3966    7.0274 N.ar    1  UNL1       -0.2378
@<TRIPOS>BOND
     1     7     8    1
     2     8    15   am
     3     9    15    1
     4     9    10    1
     5    10    11    1
     6    11    12    1
     7    12    13    1
     8    12     1    1
     9    13    15    1
    10     1     6   ar
    11     2     5   ar
    12     3     4   ar
    13     4    16    1
    14    19    22   ar
    15    20    23   ar
    16    21    18   ar
    17    16    18    1
    18     8    14    2
    19     1     2   ar
    20     3     5   ar
    21     4     6   ar
    22    18    22   ar
    23    19    20   ar
    24    21    23   ar
    25    16    17    1
@<TRIPOS>MOLECULE
MolPort-046-958-708 MCULE-1415893023 PubChem-110094059
 23 25 0 0 0
SMALL
GASTEIGER

@<TRIPOS>ATOM
      1 C          11.1000   41.4781    9.8204 C.ar    1  UNL1        0.0808
      2 C          11.8685   40.6119   10.6081 C.ar    1  UNL1        0.1137
      3 C          13.5607   40.6069    8.9538 C.ar    1  UNL1        0.1332
      4 C          12.7980   41.4731    8.1601 C.ar    1  UNL1        0.1522
      5 N          13.0803   40.1969   10.1567 N.ar    1  UNL1       -0.2382
      6 N          11.5858   41.8852    8.6177 N.ar    1  UNL1       -0.2317
      7 C           5.0318   42.9281    9.3902 C.3     1  UNL1        0.0948
      8 C           6.4033   42.5918    8.9102 C.2     1  UNL1        0.2261
      9 C           6.9855   41.5562   11.1323 C.3     1  UNL1        0.0934
     10 C           8.0714   41.9636   12.1236 C.3     1  UNL1        0.0219
     11 C           9.4254   41.4283   11.6675 C.3     1  UNL1        0.0094
     12 C           9.7600   41.9622   10.2741 C.3     1  UNL1        0.0617
     13 C           8.6709   41.5764    9.2726 C.3     1  UNL1        0.0993
     14 O           6.7136   42.8652    7.7201 O.2     1  UNL1       -0.2749
     15 N           7.3616   41.9765    9.7836 N.am    1  UNL1       -0.2791
     16 N          13.2548   41.9384    6.8822 N.pl3   1  UNL1       -0.2809
     17 H          12.8417   41.5202    6.0924 H       1  UNL1        0.1551
     18 C          14.2445   42.9434    6.6248 C.ar    1  UNL1        0.1526
     19 C          16.3542   43.9359    7.0626 C.ar    1  UNL1        0.1210
     20 C          16.1052   44.8992    6.0841 C.ar    1  UNL1        0.1196
     21 C          13.9990   43.9090    5.6461 C.ar    1  UNL1        0.1332
     22 N          15.4199   42.9808    7.3112 N.ar    1  UNL1       -0.2258
     23 N          14.9332   44.8647    5.3971 N.ar    1  UNL1       -0.2378
@<TRIPOS>BOND
     1     7     8    1
     2     8    15   am
     3     9    15    1
     4     9    10    1
     5    10    11    1
     6    11    12    1
     7    12    13    1
     8    12     1    1
     9    13    15    1
    10     1     6   ar
    11     2     5   ar
    12     3     4   ar
    13     4    16    1
    14    19    22   ar
    15    20    23   ar
    16    21    18   ar
    17    16    18    1
    18     8    14    2
    19     1     2   ar
    20     3     5   ar
    21     4     6   ar
    22    18    22   ar
    23    19    20   ar
    24    21    23   ar
    25    16    17    1
@<TRIPOS>MOLECULE
MolPort-046-958-708 MCULE-1415893023 PubChem-110094059
 23 25 0 0 0
SMALL
GASTEIGER

@<TRIPOS>ATOM
      1 C          14.3102   39.7289    9.7896 C.ar    1  UNL1        0.0808
      2 C          15.1616   38.9500   10.5832 C.ar    1  UNL1        0.1137
      3 C          17.0053   40.2669    9.8997 C.ar    1  UNL1        0.1332
      4 C          16.1603   41.0505    9.1035 C.ar    1  UNL1        0.1522
      5 N          16.4886   39.2372   10.6197 N.ar    1  UNL1       -0.2382
      6 N          14.8327   40.7581    9.0713 N.ar    1  UNL1       -0.2317
      7 C           8.3465   40.5823    8.1113 C.3     1  UNL1        0.0948
      8 C           9.7819   40.9324    8.3154 C.2     1  UNL1        0.2261
      9 C          10.4259   38.4968    8.3575 C.3     1  UNL1        0.0934
     10 C          11.0716   37.6963    9.4846 C.3     1  UNL1        0.0219
     11 C          12.5741   37.9591    9.5204 C.3     1  UNL1        0.0094
     12 C          12.8427   39.4518    9.7165 C.3     1  UNL1        0.0617
     13 C          12.1863   40.2688    8.6032 C.3     1  UNL1        0.0993
     14 O          10.1122   42.1480    8.3406 O.2     1  UNL1       -0.2749
     15 N          10.7742   39.9104    8.4901 N.am    1  UNL1       -0.2791
     16 N          16.6502   42.1497    8.3226 N.pl3   1  UNL1       -0.2809
     17 H          17.6024   42.3738    8.4337 H       1  UNL1        0.1551
     18 C          15.9104   42.9589    7.3986 C.ar    1  UNL1        0.1526
     19 C          15.6363   44.9586    6.1521 C.ar    1  UNL1        0.1210
     20 C          14.4445   44.4646    5.6200 C.ar    1  UNL1        0.1196
     21 C          14.7174   42.4680    6.8638 C.ar    1  UNL1        0.1332
     22 N          16.3418   44.1963    7.0285 N.ar    1  UNL1       -0.2258
     23 N          14.0112   43.2301    5.9873 N.ar    1  UNL1       -0.2378
@<TRIPOS>BOND
     1     7     8    1
     2     8    15   am
     3     9    15    1
     4     9    10    1
     5    10    11    1
     6    11    12    1
     7    12    13    1
     8    12     1    1
     9    13    15    1
    10     1     6   ar
    11     2     5   ar
    12     3     4   ar
    13     4    16    1
    14    19    22   ar
    15    20    23   ar
    16    21    18   ar
    17    16    18    1
    18     8    14    2
    19     1     2   ar
    20     3     5   ar
    21     4     6   ar
    22    18    22   ar
    23    19    20   ar
    24    21    23   ar
    25    16    17    1
@<TRIPOS>MOLECULE
MolPort-046-958-708 MCULE-1415893023 PubChem-110094059
 23 25 0 0 0
SMALL
GASTEIGER

@<TRIPOS>ATOM
      1 C          10.4352   41.1472    9.1562 C.ar    1  UNL1        0.0808
      2 C          10.8411   40.7226   10.4276 C.ar    1  UNL1        0.1137
      3 C          13.0874   40.6477    9.6866 C.ar    1  UNL1        0.1332
      4 C          12.6893   41.0720    8.4125 C.ar    1  UNL1        0.1522
      5 N          12.1571   40.4830   10.6629 N.ar    1  UNL1       -0.2382
      6 N          11.3705   41.3105    8.1832 N.ar    1  UNL1       -0.2317
      7 C           5.3443   44.5641    7.9237 C.3     1  UNL1        0.0948
      8 C           6.7373   44.2853    8.3782 C.2     1  UNL1        0.2261
      9 C           6.8020   42.1479    7.0455 C.3     1  UNL1        0.0934
     10 C           6.9833   40.7160    7.5402 C.3     1  UNL1        0.0219
     11 C           8.4587   40.4377    7.8113 C.3     1  UNL1        0.0094
     12 C           8.9982   41.4234    8.8486 C.3     1  UNL1        0.0617
     13 C           8.8073   42.8643    8.3740 C.3     1  UNL1        0.0993
     14 O           7.3129   45.1254    9.1202 O.2     1  UNL1       -0.2749
     15 N           7.4140   43.0806    7.9903 N.am    1  UNL1       -0.2791
     16 N          13.6273   41.2628    7.3439 N.pl3   1  UNL1       -0.2809
     17 H          13.9105   40.4524    6.8620 H       1  UNL1        0.1551
     18 C          14.1992   42.4999    6.8983 C.ar    1  UNL1        0.1526
     19 C          15.9712   44.0770    6.8790 C.ar    1  UNL1        0.1210
     20 C          15.2424   44.8867    6.0069 C.ar    1  UNL1        0.1196
     21 C          13.4729   43.3129    6.0254 C.ar    1  UNL1        0.1332
     22 N          15.4345   42.9034    7.3050 N.ar    1  UNL1       -0.2258
     23 N          14.0092   44.4870    5.5990 N.ar    1  UNL1       -0.2378
@<TRIPOS>BOND
     1     7     8    1
     2     8    15   am
     3     9    15    1
     4     9    10    1
     5    10    11    1
     6    11    12    1
     7    12    13    1
     8    12     1    1
     9    13    15    1
    10     1     6   ar
    11     2     5   ar
    12     3     4   ar
    13     4    16    1
    14    19    22   ar
    15    20    23   ar
    16    21    18   ar
    17    16    18    1
    18     8    14    2
    19     1     2   ar
    20     3     5   ar
    21     4     6   ar
    22    18    22   ar
    23    19    20   ar
    24    21    23   ar
    25    16    17    1
@<TRIPOS>MOLECULE
MolPort-046-958-708 MCULE-1415893023 PubChem-110094059
 23 25 0 0 0
SMALL
GASTEIGER

@<TRIPOS>ATOM
      1 C           9.5346   41.8011    8.4867 C.ar    1  UNL1        0.0808
      2 C           9.9720   41.4907    9.7804 C.ar    1  UNL1        0.1137
      3 C          12.2132   41.4770    9.0206 C.ar    1  UNL1        0.1332
      4 C          11.7836   41.7873    7.7240 C.ar    1  UNL1        0.1522
      5 N          11.3004   41.3361   10.0170 N.ar    1  UNL1       -0.2382
      6 N          10.4524   41.9411    7.4936 N.ar    1  UNL1       -0.2317
      7 C           3.3791   42.0132    9.5710 C.3     1  UNL1        0.0948
      8 C           4.8116   41.6897    9.8315 C.2     1  UNL1        0.2261
      9 C           5.5639   43.4813    8.2274 C.3     1  UNL1        0.0934
     10 C           6.3768   43.3379    6.9442 C.3     1  UNL1        0.0219
     11 C           7.8593   43.1958    7.2756 C.3     1  UNL1        0.0094
     12 C           8.0829   41.9807    8.1768 C.3     1  UNL1        0.0617
     13 C           7.2604   42.1021    9.4600 C.3     1  UNL1        0.0993
     14 O           5.0880   40.7968   10.6763 O.2     1  UNL1       -0.2749
     15 N           5.8623   42.3712    9.1306 N.am    1  UNL1       -0.2791
     16 N          12.7020   41.9480    6.6337 N.pl3   1  UNL1       -0.2809
     17 H          12.5020   41.4377    5.8158 H       1  UNL1        0.1551
     18 C          13.8782   42.7673    6.5999 C.ar    1  UNL1        0.1526
     19 C          16.1132   43.2143    7.2574 C.ar    1  UNL1        0.1210
     20 C          16.1050   44.3827    6.4945 C.ar    1  UNL1        0.1196
     21 C          13.8739   43.9374    5.8374 C.ar    1  UNL1        0.1332
     22 N          15.0014   42.4336    7.2935 N.ar    1  UNL1       -0.2258
     23 N          14.9857   44.7187    5.8011 N.ar    1  UNL1       -0.2378
@<TRIPOS>BOND
     1     7     8    1
     2     8    15   am
     3     9    15    1
     4     9    10    1
     5    10    11    1
     6    11    12    1
     7    12    13    1
     8    12     1    1
     9    13    15    1
    10     1     6   ar
    11     2     5   ar
    12     3     4   ar
    13     4    16    1
    14    19    22   ar
    15    20    23   ar
    16    21    18   ar
    17    16    18    1
    18     8    14    2
    19     1     2   ar
    20     3     5   ar
    21     4     6   ar
    22    18    22   ar
    23    19    20   ar
    24    21    23   ar
    25    16    17    1
@<TRIPOS>MOLECULE
MolPort-046-958-708 MCULE-1415893023 PubChem-110094059
 23 25 0 0 0
SMALL
GASTEIGER

@<TRIPOS>ATOM
      1 C          10.3840   40.6785    8.2365 C.ar    1  UNL1        0.0808
      2 C          11.1909   39.7883    8.9562 C.ar    1  UNL1        0.1137
      3 C          13.1042   40.6142    7.8349 C.ar    1  UNL1        0.1332
      4 C          12.3040   41.5074    7.1111 C.ar    1  UNL1        0.1522
      5 N          12.5314   39.7770    8.7387 N.ar    1  UNL1       -0.2382
      6 N          10.9626   41.5140    7.3335 N.ar    1  UNL1       -0.2317
      7 C           4.9979   41.7163   11.2404 C.3     1  UNL1        0.0948
      8 C           6.4676   41.5200   11.0793 C.2     1  UNL1        0.2261
      9 C           6.3362   42.1311    8.6383 C.3     1  UNL1        0.0934
     10 C           6.6857   41.2836    7.4188 C.3     1  UNL1        0.0219
     11 C           8.1957   41.2759    7.2007 C.3     1  UNL1        0.0094
     12 C           8.9036   40.7280    8.4406 C.3     1  UNL1        0.0617
     13 C           8.5488   41.5574    9.6751 C.3     1  UNL1        0.0993
     14 O           7.1528   41.2106   12.0903 O.2     1  UNL1       -0.2749
     15 N           7.0970   41.6694    9.7981 N.am    1  UNL1       -0.2791
     16 N          12.8540   42.4138    6.1447 N.pl3   1  UNL1       -0.2809
     17 H          12.3365   42.5348    5.3160 H       1  UNL1        0.1551
     18 C          14.0718   43.1635    6.2488 C.ar    1  UNL1        0.1526
     19 C          16.2630   43.4497    7.1114 C.ar    1  UNL1        0.1210
     20 C          16.3845   44.6486    6.4078 C.ar    1  UNL1        0.1196
     21 C          14.1972   44.3638    5.5460 C.ar    1  UNL1        0.1332
     22 N          15.1112   42.7347    7.0168 N.ar    1  UNL1       -0.2258
     23 N          15.3490   45.0795    5.6404 N.ar    1  UNL1       -0.2378
@<TRIPOS>BOND
     1     7     8    1
     2     8    15   am
     3     9    15    1
     4     9    10    1
     5    10    11    1
     6    11    12    1
     7    12    13    1
     8    12     1    1
     9    13    15    1
    10     1     6   ar
    11     2     5   ar
    12     3     4   ar
    13     4    16    1
    14    19    22   ar
    15    20    23   ar
    16    21    18   ar
    17    16    18    1
    18     8    14    2
    19     1     2   ar
    20     3     5   ar
    21     4     6   ar
    22    18    22   ar
    23    19    20   ar
    24    21    23   ar
    25    16    17    1
@<TRIPOS>MOLECULE
MolPort-046-958-708 MCULE-1415893023 PubChem-110094059
 23 25 0 0 0
SMALL
GASTEIGER

@<TRIPOS>ATOM
      1 C          11.4822   41.7581    9.2061 C.ar    1  UNL1        0.0808
      2 C          11.7667   40.8383   10.2231 C.ar    1  UNL1        0.1137
      3 C          13.9185   40.4853    9.3036 C.ar    1  UNL1        0.1332
      4 C          13.6415   41.4039    8.2831 C.ar    1  UNL1        0.1522
      5 N          12.9776   40.2237   10.2481 N.ar    1  UNL1       -0.2382
      6 N          12.4275   42.0160    8.2637 N.ar    1  UNL1       -0.2317
      7 C           5.2757   42.3579    8.7264 C.3     1  UNL1        0.0948
      8 C           6.6029   41.6822    8.6456 C.2     1  UNL1        0.2261
      9 C           7.6023   43.3327   10.2660 C.3     1  UNL1        0.0934
     10 C           8.7494   44.3147   10.0474 C.3     1  UNL1        0.0219
     11 C          10.0879   43.5915   10.1617 C.3     1  UNL1        0.0094
     12 C          10.1636   42.4597    9.1361 C.3     1  UNL1        0.0617
     13 C           9.0094   41.4762    9.3317 C.3     1  UNL1        0.0993
     14 O           6.7150   40.6483    7.9344 O.2     1  UNL1       -0.2749
     15 N           7.7393   42.1986    9.3539 N.am    1  UNL1       -0.2791
     16 N          14.5965   41.7190    7.2600 N.pl3   1  UNL1       -0.2809
     17 H          14.4379   41.3158    6.3759 H       1  UNL1        0.1551
     18 C          15.7557   42.5544    7.3788 C.ar    1  UNL1        0.1526
     19 C          17.8467   43.0699    8.3735 C.ar    1  UNL1        0.1210
     20 C          17.9569   44.1981    7.5596 C.ar    1  UNL1        0.1196
     21 C          15.8697   43.6843    6.5658 C.ar    1  UNL1        0.1332
     22 N          16.7503   42.2743    8.2656 N.ar    1  UNL1       -0.2258
     23 N          16.9661   44.4806    6.6735 N.ar    1  UNL1       -0.2378
@<TRIPOS>BOND
     1     7     8    1
     2     8    15   am
     3     9    15    1
     4     9    10    1
     5    10    11    1
     6    11    12    1
     7    12    13    1
     8    12     1    1
     9    13    15    1
    10     1     6   ar
    11     2     5   ar
    12     3     4   ar
    13     4    16    1
    14    19    22   ar
    15    20    23   ar
    16    21    18   ar
    17    16    18    1
    18     8    14    2
    19     1     2   ar
    20     3     5   ar
    21     4     6   ar
    22    18    22   ar
    23    19    20   ar
    24    21    23   ar
    25    16    17    1
@<TRIPOS>MOLECULE
MolPort-046-958-708 MCULE-1415893023 PubChem-110094059
 23 25 0 0 0
SMALL
GASTEIGER

@<TRIPOS>ATOM
      1 C          12.3413   41.1663    7.3729 C.ar    1  UNL1        0.0808
      2 C          12.5126   42.1719    6.4132 C.ar    1  UNL1        0.1137
      3 C          14.7839   42.3867    7.0420 C.ar    1  UNL1        0.1332
      4 C          14.6206   41.3819    8.0041 C.ar    1  UNL1        0.1522
      5 N          13.7293   42.7582    6.2703 N.ar    1  UNL1       -0.2382
      6 N          13.4001   40.7986    8.1422 N.ar    1  UNL1       -0.2317
      7 C           6.3646   39.7256    6.2266 C.3     1  UNL1        0.0948
      8 C           7.6346   40.5023    6.1347 C.2     1  UNL1        0.2261
      9 C           8.9737   38.5054    6.8882 C.3     1  UNL1        0.0934
     10 C           9.8479   38.3516    8.1292 C.3     1  UNL1        0.0219
     11 C          11.2048   39.0101    7.8998 C.3     1  UNL1        0.0094
     12 C          11.0213   40.4916    7.5678 C.3     1  UNL1        0.0617
     13 C          10.1323   40.6622    6.3356 C.3     1  UNL1        0.0993
     14 O           7.5892   41.6929    5.7249 O.2     1  UNL1       -0.2749
     15 N           8.8886   39.9157    6.5129 N.am    1  UNL1       -0.2791
     16 N          15.6983   40.9494    8.8465 N.pl3   1  UNL1       -0.2809
     17 H          16.5294   41.4747    8.7961 H       1  UNL1        0.1551
     18 C          15.7023   39.8388    9.7534 C.ar    1  UNL1        0.1526
     19 C          16.6762   37.8392   10.5785 C.ar    1  UNL1        0.1210
     20 C          15.6541   37.7297   11.5223 C.ar    1  UNL1        0.1196
     21 C          14.6812   39.7258   10.6995 C.ar    1  UNL1        0.1332
     22 N          16.6777   38.8895    9.7161 N.ar    1  UNL1       -0.2258
     23 N          14.6790   38.6754   11.5623 N.ar    1  UNL1       -0.2378
@<TRIPOS>BOND
     1     7     8    1
     2     8    15   am
     3     9    15    1
     4     9    10    1
     5    10    11    1
     6    11    12    1
     7    12    13    1
     8    12     1    1
     9    13    15    1
    10     1     6   ar
    11     2     5   ar
    12     3     4   ar
    13     4    16    1
    14    19    22   ar
    15    20    23   ar
    16    21    18   ar
    17    16    18    1
    18     8    14    2
    19     1     2   ar
    20     3     5   ar
    21     4     6   ar
    22    18    22   ar
    23    19    20   ar
    24    21    23   ar
    25    16    17    1
@<TRIPOS>MOLECULE
MolPort-046-958-708 MCULE-1415893023 PubChem-110094059
 23 25 0 0 0
SMALL
GASTEIGER

@<TRIPOS>ATOM
      1 C          13.7801   42.2727    7.3018 C.ar    1  UNL1        0.0808
      2 C          14.4289   43.3862    6.7536 C.ar    1  UNL1        0.1137
      3 C          16.4476   42.7250    7.7966 C.ar    1  UNL1        0.1332
      4 C          15.8059   41.6091    8.3488 C.ar    1  UNL1        0.1522
      5 N          15.7469   43.5862    7.0136 N.ar    1  UNL1       -0.2382
      6 N          14.4864   41.4143    8.0846 N.ar    1  UNL1       -0.2317
      7 C           8.7620   39.3616    4.9664 C.3     1  UNL1        0.0948
      8 C          10.2026   39.7220    5.1059 C.2     1  UNL1        0.2261
      9 C           9.8249   40.5440    7.4576 C.3     1  UNL1        0.0934
     10 C          10.0278   41.9451    8.0265 C.3     1  UNL1        0.0219
     11 C          11.5058   42.1827    8.3207 C.3     1  UNL1        0.0094
     12 C          12.3307   42.0102    7.0447 C.3     1  UNL1        0.0617
     13 C          12.1239   40.6156    6.4529 C.3     1  UNL1        0.0993
     14 O          10.9851   39.4750    4.1497 O.2     1  UNL1       -0.2749
     15 N          10.6955   40.3477    6.2997 N.am    1  UNL1       -0.2791
     16 N          16.4954   40.6670    9.1823 N.pl3   1  UNL1       -0.2809
     17 H          17.4741   40.6299    9.0818 H       1  UNL1        0.1551
     18 C          15.9211   39.7732   10.1453 C.ar    1  UNL1        0.1526
     19 C          14.0588   38.9688   11.3751 C.ar    1  UNL1        0.1210
     20 C          14.8780   38.0297   12.0031 C.ar    1  UNL1        0.1196
     21 C          16.7376   38.8319   10.7758 C.ar    1  UNL1        0.1332
     22 N          14.5974   39.8187   10.4616 N.ar    1  UNL1       -0.2258
     23 N          16.1995   37.9816   11.6897 N.ar    1  UNL1       -0.2378
@<TRIPOS>BOND
     1     7     8    1
     2     8    15   am
     3     9    15    1
     4     9    10    1
     5    10    11    1
     6    11    12    1
     7    12    13    1
     8    12     1    1
     9    13    15    1
    10     1     6   ar
    11     2     5   ar
    12     3     4   ar
    13     4    16    1
    14    19    22   ar
    15    20    23   ar
    16    21    18   ar
    17    16    18    1
    18     8    14    2
    19     1     2   ar
    20     3     5   ar
    21     4     6   ar
    22    18    22   ar
    23    19    20   ar
    24    21    23   ar
    25    16    17    1
@<TRIPOS>MOLECULE
MolPort-046-958-708 MCULE-1415893023 PubChem-110094059
 23 25 0 0 0
SMALL
GASTEIGER

@<TRIPOS>ATOM
      1 C           9.0589   41.6103   10.4287 C.ar    1  UNL1        0.0808
      2 C           9.7021   41.1570   11.5872 C.ar    1  UNL1        0.1137
      3 C          11.6167   40.6059   10.3102 C.ar    1  UNL1        0.1332
      4 C          10.9802   41.0573    9.1469 C.ar    1  UNL1        0.1522
      5 N          10.9653   40.6657   11.5009 N.ar    1  UNL1       -0.2382
      6 N           9.7156   41.5482    9.2399 N.ar    1  UNL1       -0.2317
      7 C           3.8524   44.3337    8.2872 C.3     1  UNL1        0.0948
      8 C           5.2860   43.9220    8.2961 C.2     1  UNL1        0.2261
      9 C           4.7937   42.0478    9.9066 C.3     1  UNL1        0.0934
     10 C           5.3340   41.8302   11.3168 C.3     1  UNL1        0.0219
     11 C           6.7365   41.2329   11.2547 C.3     1  UNL1        0.0094
     12 C           7.6688   42.1592   10.4729 C.3     1  UNL1        0.0617
     13 C           7.1308   42.4007    9.0622 C.3     1  UNL1        0.0993
     14 O           6.0999   44.5425    7.5614 O.2     1  UNL1       -0.2749
     15 N           5.7406   42.8461    9.1300 N.am    1  UNL1       -0.2791
     16 N          11.6192   41.0183    7.8631 N.pl3   1  UNL1       -0.2809
     17 H          11.1746   40.4781    7.1705 H       1  UNL1        0.1551
     18 C          12.8321   41.6769    7.4742 C.ar    1  UNL1        0.1526
     19 C          15.1661   42.0306    7.7080 C.ar    1  UNL1        0.1210
     20 C          15.1266   42.9756    6.6819 C.ar    1  UNL1        0.1196
     21 C          12.7967   42.6230    6.4476 C.ar    1  UNL1        0.1332
     22 N          14.0198   41.4032    8.0812 N.ar    1  UNL1       -0.2258
     23 N          13.9429   43.2511    6.0740 N.ar    1  UNL1       -0.2378
@<TRIPOS>BOND
     1     7     8    1
     2     8    15   am
     3     9    15    1
     4     9    10    1
     5    10    11    1
     6    11    12    1
     7    12    13    1
     8    12     1    1
     9    13    15    1
    10     1     6   ar
    11     2     5   ar
    12     3     4   ar
    13     4    16    1
    14    19    22   ar
    15    20    23   ar
    16    21    18   ar
    17    16    18    1
    18     8    14    2
    19     1     2   ar
    20     3     5   ar
    21     4     6   ar
    22    18    22   ar
    23    19    20   ar
    24    21    23   ar
    25    16    17    1
