@<TRIPOS>MOLECULE
MolPort-006-609-967 ChemDiv-V013-4409 MCULE-6473052264 PubChem-46070051 ZINC000034735463 ZINC34735463
 33 36 0 0 0
SMALL
GASTEIGER

@<TRIPOS>ATOM
      1 C          13.3338   37.2653   10.1367 C.ar    1  UNL1        0.0565
      2 C          12.8096   36.1272   10.7717 C.ar    1  UNL1        0.0150
      3 C          11.4368   35.8713   10.7558 C.ar    1  UNL1        0.0026
      4 C          10.5703   36.7476   10.0997 C.ar    1  UNL1        0.0148
      5 C          11.0714   37.8865    9.4538 C.ar    1  UNL1        0.0516
      6 C          12.4477   38.1346    9.4768 C.ar    1  UNL1        0.0296
      7 C          17.5560   37.9529    9.5002 C.3     1  UNL1        0.0971
      8 C          16.7508   36.7851    8.9399 C.3     1  UNL1        0.0435
      9 C          15.6819   36.3977    9.9490 C.3     1  UNL1        0.1015
     10 C          15.3274   38.8317   10.2969 C.2     1  UNL1        0.3112
     11 O          14.6424   39.7778   10.7751 O.2     1  UNL1       -0.2520
     12 N          16.6876   39.0666    9.8863 N.am    1  UNL1       -0.2596
     13 N          14.7579   37.5140   10.1468 N.am    1  UNL1       -0.2430
     14 C          17.2910   40.3844   10.0463 C.3     1  UNL1        0.1217
     15 C          15.5875   43.1914    7.2722 C.ar    1  UNL1        0.1387
     16 C          14.8877   42.0219    7.6163 C.ar    1  UNL1        0.0366
     17 C          15.4445   41.1069    8.5144 C.ar    1  UNL1        0.0005
     18 C          16.7043   41.3507    9.0712 C.ar    1  UNL1       -0.0021
     19 C          17.4022   42.5153    8.7336 C.ar    1  UNL1        0.0005
     20 C          16.8449   43.4310    7.8364 C.ar    1  UNL1        0.0366
     21 C          15.8405   45.1672    5.8028 C.3     1  UNL1        0.2525
     22 O          15.0582   44.1257    6.3787 O.3     1  UNL1       -0.4714
     23 C          10.1525   40.2349    8.9906 C.2     1  UNL1        0.2305
     24 O          10.8605   40.7957    9.8691 O.2     1  UNL1       -0.2744
     25 N          10.2127   38.8181    8.7801 N.am    1  UNL1       -0.2836
     26 H           9.6020   38.4459    8.1035 H       1  UNL1        0.1549
     27 C           9.2493   41.0624    8.1394 C.3     1  UNL1        0.1116
     28 C           7.9171   41.2196    8.7894 C.ar    1  UNL1       -0.0131
     29 C           6.7472   41.0214    8.0488 C.ar    1  UNL1       -0.0038
     30 C           5.4984   41.1566    8.6631 C.ar    1  UNL1       -0.0003
     31 C           5.4182   41.4886   10.0194 C.ar    1  UNL1       -0.0000
     32 C           6.5862   41.6795   10.7621 C.ar    1  UNL1       -0.0003
     33 C           7.8355   41.5438   10.1487 C.ar    1  UNL1       -0.0038
@<TRIPOS>BOND
     1    21    22    1
     2    15    22    1
     3    16    17   ar
     4    18    19   ar
     5    14    18    1
     6    14    12    1
     7     7    12    1
     8     7     8    1
     9     8     9    1
    10     9    13    1
    11    10    12   am
    12     2     3   ar
    13     4     5   ar
    14     5    25    1
    15    27    23    1
    16    27    28    1
    17    29    30   ar
    18    31    32   ar
    19    33    28   ar
    20     6     1   ar
    21    20    15   ar
    22    13    10   am
    23    13     1    1
    24    25    23   am
    25    15    16   ar
    26    17    18   ar
    27    10    11    2
    28     1     2   ar
    29     3     4   ar
    30     5     6   ar
    31    23    24    2
    32    28    29   ar
    33    30    31   ar
    34    32    33   ar
    35    19    20   ar
    36    25    26    1
@<TRIPOS>MOLECULE
MolPort-006-609-967 ChemDiv-V013-4409 MCULE-6473052264 PubChem-46070051 ZINC000034735463 ZINC34735463
 33 36 0 0 0
SMALL
GASTEIGER

@<TRIPOS>ATOM
      1 C           9.8645   40.9561    7.6965 C.ar    1  UNL1        0.0565
      2 C           9.1011   40.2637    6.7420 C.ar    1  UNL1        0.0150
      3 C           9.5118   40.2038    5.4085 C.ar    1  UNL1        0.0026
      4 C          10.6948   40.8310    5.0130 C.ar    1  UNL1        0.0148
      5 C          11.4762   41.5224    5.9493 C.ar    1  UNL1        0.0516
      6 C          11.0552   41.5778    7.2820 C.ar    1  UNL1        0.0296
      7 C           8.6728   41.7517   11.7771 C.3     1  UNL1        0.0971
      8 C           9.9518   42.2488   11.1112 C.3     1  UNL1        0.0435
      9 C          10.4352   41.1936   10.1295 C.3     1  UNL1        0.1015
     10 C           8.0547   40.9102    9.4787 C.2     1  UNL1        0.3112
     11 O           7.1863   40.4395    8.6929 O.2     1  UNL1       -0.2520
     12 N           7.6646   41.3722   10.7856 N.am    1  UNL1       -0.2596
     13 N           9.4381   41.0004    9.0772 N.am    1  UNL1       -0.2430
     14 C           6.2765   41.2732   11.2210 C.3     1  UNL1        0.1217
     15 C           3.7534   43.7904    8.8179 C.ar    1  UNL1        0.1387
     16 C           3.1915   42.7769    9.6136 C.ar    1  UNL1        0.0366
     17 C           4.0129   41.9553   10.3907 C.ar    1  UNL1        0.0005
     18 C           5.3999   42.1366   10.3756 C.ar    1  UNL1       -0.0021
     19 C           5.9623   43.1465    9.5875 C.ar    1  UNL1        0.0005
     20 C           5.1408   43.9690    8.8111 C.ar    1  UNL1        0.0366
     21 C           3.5100   45.6052    7.1524 C.3     1  UNL1        0.2525
     22 O           2.9599   44.6284    8.0309 O.3     1  UNL1       -0.4714
     23 C          13.3887   43.1839    6.3435 C.2     1  UNL1        0.2305
     24 O          12.9349   43.6020    7.4421 O.2     1  UNL1       -0.2744
     25 N          12.6910   42.1910    5.5802 N.am    1  UNL1       -0.2836
     26 H          13.0860   41.9423    4.7134 H       1  UNL1        0.1549
     27 C          14.6865   43.7167    5.8365 C.3     1  UNL1        0.1116
     28 C          15.7873   43.4102    6.7939 C.ar    1  UNL1       -0.0131
     29 C          16.8871   44.2683    6.8967 C.ar    1  UNL1       -0.0038
     30 C          17.9127   43.9863    7.8043 C.ar    1  UNL1       -0.0003
     31 C          17.8386   42.8465    8.6116 C.ar    1  UNL1       -0.0000
     32 C          16.7369   41.9926    8.5152 C.ar    1  UNL1       -0.0003
     33 C          15.7105   42.2743    7.6082 C.ar    1  UNL1       -0.0038
@<TRIPOS>BOND
     1    21    22    1
     2    15    22    1
     3    16    17   ar
     4    18    19   ar
     5    14    18    1
     6    14    12    1
     7     7    12    1
     8     7     8    1
     9     8     9    1
    10     9    13    1
    11    10    12   am
    12     2     3   ar
    13     4     5   ar
    14     5    25    1
    15    27    23    1
    16    27    28    1
    17    29    30   ar
    18    31    32   ar
    19    33    28   ar
    20     6     1   ar
    21    20    15   ar
    22    13    10   am
    23    13     1    1
    24    25    23   am
    25    15    16   ar
    26    17    18   ar
    27    10    11    2
    28     1     2   ar
    29     3     4   ar
    30     5     6   ar
    31    23    24    2
    32    28    29   ar
    33    30    31   ar
    34    32    33   ar
    35    19    20   ar
    36    25    26    1
@<TRIPOS>MOLECULE
MolPort-006-609-967 ChemDiv-V013-4409 MCULE-6473052264 PubChem-46070051 ZINC000034735463 ZINC34735463
 33 36 0 0 0
SMALL
GASTEIGER

@<TRIPOS>ATOM
      1 C           5.9469   41.5223   10.3180 C.ar    1  UNL1        0.0565
      2 C           5.3276   41.2808    9.0805 C.ar    1  UNL1        0.0150
      3 C           3.9381   41.1753    8.9877 C.ar    1  UNL1        0.0026
      4 C           3.1490   41.3155   10.1310 C.ar    1  UNL1        0.0148
      5 C           3.7445   41.5632   11.3757 C.ar    1  UNL1        0.0516
      6 C           5.1370   41.6655   11.4581 C.ar    1  UNL1        0.0296
      7 C          10.2200   41.3445   10.9610 C.3     1  UNL1        0.0971
      8 C           9.1551   41.3283   12.0527 C.3     1  UNL1        0.0435
      9 C           7.9887   42.1982   11.6125 C.3     1  UNL1        0.1015
     10 C           8.2761   41.1976    9.3571 C.2     1  UNL1        0.3112
     11 O           7.8486   41.0066    8.1849 O.2     1  UNL1       -0.2520
     12 N           9.6631   40.9598    9.6628 N.am    1  UNL1       -0.2596
     13 N           7.3851   41.6438   10.4013 N.am    1  UNL1       -0.2430
     14 C          10.5864   40.5278    8.6202 C.3     1  UNL1        0.1217
     15 C          14.4051   39.5699   10.3458 C.ar    1  UNL1        0.1387
     16 C          14.2885   40.6256    9.4250 C.ar    1  UNL1        0.0366
     17 C          13.0475   40.9332    8.8602 C.ar    1  UNL1        0.0005
     18 C          11.9162   40.1870    9.2070 C.ar    1  UNL1       -0.0021
     19 C          12.0280   39.1378   10.1256 C.ar    1  UNL1        0.0005
     20 C          13.2688   38.8308   10.6914 C.ar    1  UNL1        0.0366
     21 C          15.8460   38.0113   11.6191 C.3     1  UNL1        0.2525
     22 O          15.6306   39.2380   10.9283 O.3     1  UNL1       -0.4714
     23 C           1.6175   42.1667   12.6738 C.2     1  UNL1        0.2305
     24 O           0.9855   42.5581   11.6564 O.2     1  UNL1       -0.2744
     25 N           2.9695   41.7003   12.5755 N.am    1  UNL1       -0.2836
     26 H           3.4119   41.4480   13.4181 H       1  UNL1        0.1549
     27 C           0.9402   42.1693   14.0029 C.3     1  UNL1        0.1116
     28 C           0.1601   43.4257   14.1897 C.ar    1  UNL1       -0.0131
     29 C           0.8128   44.6104   14.5462 C.ar    1  UNL1       -0.0038
     30 C           0.0815   45.7910   14.7086 C.ar    1  UNL1       -0.0003
     31 C          -1.3035   45.7886   14.5130 C.ar    1  UNL1       -0.0000
     32 C          -1.9556   44.6075   14.1495 C.ar    1  UNL1       -0.0003
     33 C          -1.2248   43.4265   13.9862 C.ar    1  UNL1       -0.0038
@<TRIPOS>BOND
     1    21    22    1
     2    15    22    1
     3    16    17   ar
     4    18    19   ar
     5    14    18    1
     6    14    12    1
     7     7    12    1
     8     7     8    1
     9     8     9    1
    10     9    13    1
    11    10    12   am
    12     2     3   ar
    13     4     5   ar
    14     5    25    1
    15    27    23    1
    16    27    28    1
    17    29    30   ar
    18    31    32   ar
    19    33    28   ar
    20     6     1   ar
    21    20    15   ar
    22    13    10   am
    23    13     1    1
    24    25    23   am
    25    15    16   ar
    26    17    18   ar
    27    10    11    2
    28     1     2   ar
    29     3     4   ar
    30     5     6   ar
    31    23    24    2
    32    28    29   ar
    33    30    31   ar
    34    32    33   ar
    35    19    20   ar
    36    25    26    1
@<TRIPOS>MOLECULE
MolPort-006-609-967 ChemDiv-V013-4409 MCULE-6473052264 PubChem-46070051 ZINC000034735463 ZINC34735463
 33 36 0 0 0
SMALL
GASTEIGER

@<TRIPOS>ATOM
      1 C          10.0481   41.0057   10.8819 C.ar    1  UNL1        0.0565
      2 C          10.2970   40.9359   12.2627 C.ar    1  UNL1        0.0150
      3 C           9.3180   41.3164   13.1832 C.ar    1  UNL1        0.0026
      4 C           8.0747   41.7666   12.7348 C.ar    1  UNL1        0.0148
      5 C           7.8016   41.8387   11.3616 C.ar    1  UNL1        0.0516
      6 C           8.7894   41.4568   10.4480 C.ar    1  UNL1        0.0296
      7 C          12.6347   39.3303    7.8476 C.3     1  UNL1        0.0971
      8 C          11.8878   38.5382    8.9158 C.3     1  UNL1        0.0435
      9 C          11.8211   39.3705   10.1861 C.3     1  UNL1        0.1015
     10 C          11.3427   41.3166    8.7183 C.2     1  UNL1        0.3112
     11 O          10.9740   42.5160    8.5810 O.2     1  UNL1       -0.2520
     12 N          12.0403   40.6532    7.6474 N.am    1  UNL1       -0.2596
     13 N          11.0632   40.5963    9.9374 N.am    1  UNL1       -0.2430
     14 C          12.3514   41.3663    6.4141 C.3     1  UNL1        0.1217
     15 C          15.8634   43.7866    6.9479 C.ar    1  UNL1        0.1387
     16 C          14.8477   44.1965    6.0669 C.ar    1  UNL1        0.0366
     17 C          13.7084   43.4064    5.8897 C.ar    1  UNL1        0.0005
     18 C          13.5772   42.2008    6.5868 C.ar    1  UNL1       -0.0021
     19 C          14.5845   41.7914    7.4670 C.ar    1  UNL1        0.0005
     20 C          15.7235   42.5819    7.6451 C.ar    1  UNL1        0.0366
     21 C          18.2083   44.0164    7.7064 C.3     1  UNL1        0.2525
     22 O          17.0137   44.5537    7.1475 O.3     1  UNL1       -0.4714
     23 C           5.2780   41.6378   10.9557 C.2     1  UNL1        0.2305
     24 O           5.1821   40.4953   11.4782 O.2     1  UNL1       -0.2744
     25 N           6.5416   42.3083   10.8607 N.am    1  UNL1       -0.2836
     26 H           6.5452   43.1808   10.4047 H       1  UNL1        0.1549
     27 C           4.0512   42.3150   10.4445 C.3     1  UNL1        0.1116
     28 C           4.3751   43.1581    9.2586 C.ar    1  UNL1       -0.0131
     29 C           3.4845   44.1522    8.8402 C.ar    1  UNL1       -0.0038
     30 C           3.7955   44.9509    7.7354 C.ar    1  UNL1       -0.0003
     31 C           4.9986   44.7574    7.0487 C.ar    1  UNL1       -0.0000
     32 C           5.8925   43.7696    7.4703 C.ar    1  UNL1       -0.0003
     33 C           5.5825   42.9709    8.5755 C.ar    1  UNL1       -0.0038
@<TRIPOS>BOND
     1    21    22    1
     2    15    22    1
     3    16    17   ar
     4    18    19   ar
     5    14    18    1
     6    14    12    1
     7     7    12    1
     8     7     8    1
     9     8     9    1
    10     9    13    1
    11    10    12   am
    12     2     3   ar
    13     4     5   ar
    14     5    25    1
    15    27    23    1
    16    27    28    1
    17    29    30   ar
    18    31    32   ar
    19    33    28   ar
    20     6     1   ar
    21    20    15   ar
    22    13    10   am
    23    13     1    1
    24    25    23   am
    25    15    16   ar
    26    17    18   ar
    27    10    11    2
    28     1     2   ar
    29     3     4   ar
    30     5     6   ar
    31    23    24    2
    32    28    29   ar
    33    30    31   ar
    34    32    33   ar
    35    19    20   ar
    36    25    26    1
@<TRIPOS>MOLECULE
MolPort-006-609-967 ChemDiv-V013-4409 MCULE-6473052264 PubChem-46070051 ZINC000034735463 ZINC34735463
 33 36 0 0 0
SMALL
GASTEIGER

@<TRIPOS>ATOM
      1 C          15.2438   42.5295    7.7292 C.ar    1  UNL1        0.0565
      2 C          15.8521   43.7115    7.2751 C.ar    1  UNL1        0.0150
      3 C          17.2173   43.9310    7.4715 C.ar    1  UNL1        0.0026
      4 C          17.9935   42.9685    8.1198 C.ar    1  UNL1        0.0148
      5 C          17.4093   41.7785    8.5760 C.ar    1  UNL1        0.0516
      6 C          16.0410   41.5691    8.3758 C.ar    1  UNL1        0.0296
      7 C          11.2176   41.4515    6.5747 C.3     1  UNL1        0.0971
      8 C          12.3062   41.9598    5.6351 C.3     1  UNL1        0.0435
      9 C          13.1699   42.9628    6.3827 C.3     1  UNL1        0.1015
     10 C          13.0382   41.4175    8.3232 C.2     1  UNL1        0.3112
     11 O          13.4361   41.0669    9.4686 O.2     1  UNL1       -0.2520
     12 N          11.7851   40.9215    7.8159 N.am    1  UNL1       -0.2596
     13 N          13.8326   42.3055    7.5086 N.am    1  UNL1       -0.2430
     14 C          10.9559   40.0390    8.6282 C.3     1  UNL1        0.1217
     15 C           6.9210   41.5166    8.7465 C.ar    1  UNL1        0.1387
     16 C           7.8547   41.9279    9.7134 C.ar    1  UNL1        0.0366
     17 C           9.1652   41.4429    9.6776 C.ar    1  UNL1        0.0005
     18 C           9.5511   40.5416    8.6798 C.ar    1  UNL1       -0.0021
     19 C           8.6253   40.1328    7.7139 C.ar    1  UNL1        0.0005
     20 C           7.3151   40.6185    7.7490 C.ar    1  UNL1        0.0366
     21 C           5.2724   43.3423    9.0215 C.3     1  UNL1        0.2525
     22 O           5.6044   41.9833    8.7544 O.3     1  UNL1       -0.4714
     23 C          17.6532   39.7228   10.0887 C.2     1  UNL1        0.2305
     24 O          16.4206   39.6299   10.3328 O.2     1  UNL1       -0.2744
     25 N          18.1699   40.7710    9.2583 N.am    1  UNL1       -0.2836
     26 H          19.1473   40.8029    9.1444 H       1  UNL1        0.1549
     27 C          18.5910   38.7116   10.6573 C.3     1  UNL1        0.1116
     28 C          18.6666   37.5135    9.7736 C.ar    1  UNL1       -0.0131
     29 C          19.5637   37.4885    8.7007 C.ar    1  UNL1       -0.0038
     30 C          19.6427   36.3589    7.8803 C.ar    1  UNL1       -0.0003
     31 C          18.8256   35.2522    8.1332 C.ar    1  UNL1       -0.0000
     32 C          17.9344   35.2731    9.2092 C.ar    1  UNL1       -0.0003
     33 C          17.8554   36.4021   10.0305 C.ar    1  UNL1       -0.0038
@<TRIPOS>BOND
     1    21    22    1
     2    15    22    1
     3    16    17   ar
     4    18    19   ar
     5    14    18    1
     6    14    12    1
     7     7    12    1
     8     7     8    1
     9     8     9    1
    10     9    13    1
    11    10    12   am
    12     2     3   ar
    13     4     5   ar
    14     5    25    1
    15    27    23    1
    16    27    28    1
    17    29    30   ar
    18    31    32   ar
    19    33    28   ar
    20     6     1   ar
    21    20    15   ar
    22    13    10   am
    23    13     1    1
    24    25    23   am
    25    15    16   ar
    26    17    18   ar
    27    10    11    2
    28     1     2   ar
    29     3     4   ar
    30     5     6   ar
    31    23    24    2
    32    28    29   ar
    33    30    31   ar
    34    32    33   ar
    35    19    20   ar
    36    25    26    1
@<TRIPOS>MOLECULE
MolPort-006-609-967 ChemDiv-V013-4409 MCULE-6473052264 PubChem-46070051 ZINC000034735463 ZINC34735463
 33 36 0 0 0
SMALL
GASTEIGER

@<TRIPOS>ATOM
      1 C          10.0792   39.6280    7.6422 C.ar    1  UNL1        0.0565
      2 C          10.1835   39.3498    6.2692 C.ar    1  UNL1        0.0150
      3 C           9.2024   39.7877    5.3770 C.ar    1  UNL1        0.0026
      4 C           8.1063   40.5147    5.8455 C.ar    1  UNL1        0.0148
      5 C           7.9843   40.8096    7.2106 C.ar    1  UNL1        0.0516
      6 C           8.9715   40.3651    8.0961 C.ar    1  UNL1        0.0296
      7 C          13.4254   37.9938    9.8414 C.3     1  UNL1        0.0971
      8 C          12.4893   37.2055    8.9312 C.3     1  UNL1        0.0435
      9 C          11.0935   37.7994    9.0311 C.3     1  UNL1        0.1015
     10 C          12.1916   40.0274    8.9957 C.2     1  UNL1        0.3112
     11 O          12.1108   41.2829    8.8938 O.2     1  UNL1       -0.2520
     12 N          13.3791   39.4270    9.5462 N.am    1  UNL1       -0.2596
     13 N          11.1072   39.1825    8.5558 N.am    1  UNL1       -0.2430
     14 C          14.4796   40.2607   10.0155 C.3     1  UNL1        0.1217
     15 C          15.8765   42.8545    6.8853 C.ar    1  UNL1        0.1387
     16 C          14.5575   42.3688    6.8672 C.ar    1  UNL1        0.0366
     17 C          14.1055   41.5211    7.8825 C.ar    1  UNL1        0.0005
     18 C          14.9674   41.1493    8.9196 C.ar    1  UNL1       -0.0021
     19 C          16.2798   41.6335    8.9427 C.ar    1  UNL1        0.0005
     20 C          16.7316   42.4821    7.9279 C.ar    1  UNL1        0.0366
     21 C          17.7437   43.8171    5.5763 C.3     1  UNL1        0.2525
     22 O          16.3583   43.7036    5.8862 O.3     1  UNL1       -0.4714
     23 C           6.8734   42.8981    8.1996 C.2     1  UNL1        0.2305
     24 O           7.9365   43.5737    8.2295 O.2     1  UNL1       -0.2744
     25 N           6.8667   41.5424    7.7332 N.am    1  UNL1       -0.2836
     26 H           6.0068   41.0651    7.7759 H       1  UNL1        0.1549
     27 C           5.5936   43.5261    8.6385 C.3     1  UNL1        0.1116
     28 C           4.9016   42.6609    9.6358 C.ar    1  UNL1       -0.0131
     29 C           5.6411   41.7869   10.4393 C.ar    1  UNL1       -0.0038
     30 C           4.9920   40.9853   11.3834 C.ar    1  UNL1       -0.0003
     31 C           3.6025   41.0582   11.5261 C.ar    1  UNL1       -0.0000
     32 C           2.8636   41.9364   10.7292 C.ar    1  UNL1       -0.0003
     33 C           3.5120   42.7389    9.7854 C.ar    1  UNL1       -0.0038
@<TRIPOS>BOND
     1    21    22    1
     2    15    22    1
     3    16    17   ar
     4    18    19   ar
     5    14    18    1
     6    14    12    1
     7     7    12    1
     8     7     8    1
     9     8     9    1
    10     9    13    1
    11    10    12   am
    12     2     3   ar
    13     4     5   ar
    14     5    25    1
    15    27    23    1
    16    27    28    1
    17    29    30   ar
    18    31    32   ar
    19    33    28   ar
    20     6     1   ar
    21    20    15   ar
    22    13    10   am
    23    13     1    1
    24    25    23   am
    25    15    16   ar
    26    17    18   ar
    27    10    11    2
    28     1     2   ar
    29     3     4   ar
    30     5     6   ar
    31    23    24    2
    32    28    29   ar
    33    30    31   ar
    34    32    33   ar
    35    19    20   ar
    36    25    26    1
@<TRIPOS>MOLECULE
MolPort-006-609-967 ChemDiv-V013-4409 MCULE-6473052264 PubChem-46070051 ZINC000034735463 ZINC34735463
 33 36 0 0 0
SMALL
GASTEIGER

@<TRIPOS>ATOM
      1 C           6.6682   42.0128    9.9832 C.ar    1  UNL1        0.0565
      2 C           6.1105   42.4446    8.7684 C.ar    1  UNL1        0.0150
      3 C           4.7379   42.6770    8.6573 C.ar    1  UNL1        0.0026
      4 C           3.9053   42.4858    9.7617 C.ar    1  UNL1        0.0148
      5 C           4.4404   42.0613   10.9859 C.ar    1  UNL1        0.0516
      6 C           5.8161   41.8299   11.0863 C.ar    1  UNL1        0.0296
      7 C          10.7665   40.8601   10.7449 C.3     1  UNL1        0.0971
      8 C           9.7253   41.1968   11.8074 C.3     1  UNL1        0.0435
      9 C           8.8080   42.2824   11.2679 C.3     1  UNL1        0.1015
     10 C           8.8518   41.0513    9.1108 C.2     1  UNL1        0.3112
     11 O           8.3954   40.8693    7.9481 O.2     1  UNL1       -0.2520
     12 N          10.1377   40.5115    9.4695 N.am    1  UNL1       -0.2596
     13 N           8.0923   41.7886   10.0920 N.am    1  UNL1       -0.2430
     14 C          10.9321   39.7801    8.4896 C.3     1  UNL1        0.1217
     15 C          14.0618   42.2997    6.9618 C.ar    1  UNL1        0.1387
     16 C          12.7533   42.4124    6.4606 C.ar    1  UNL1        0.0366
     17 C          11.7372   41.5891    6.9540 C.ar    1  UNL1        0.0005
     18 C          12.0208   40.6457    7.9471 C.ar    1  UNL1       -0.0021
     19 C          13.3212   40.5331    8.4507 C.ar    1  UNL1        0.0005
     20 C          14.3372   41.3571    7.9581 C.ar    1  UNL1        0.0366
     21 C          14.9848   43.8925    5.3072 C.3     1  UNL1        0.2525
     22 O          15.0990   43.1080    6.4903 O.3     1  UNL1       -0.4714
     23 C           2.1944   42.0012   12.2211 C.2     1  UNL1        0.2305
     24 O           1.5265   42.4174   11.2371 O.2     1  UNL1       -0.2744
     25 N           3.6167   41.8407   12.1400 N.am    1  UNL1       -0.2836
     26 H           4.0756   41.5490   12.9607 H       1  UNL1        0.1549
     27 C           1.4905   41.6494   13.4883 C.3     1  UNL1        0.1116
     28 C           0.3873   42.6148   13.7590 C.ar    1  UNL1       -0.0131
     29 C          -0.9458   42.2080   13.6409 C.ar    1  UNL1       -0.0038
     30 C          -1.9795   43.1110   13.9076 C.ar    1  UNL1       -0.0003
     31 C          -1.6811   44.4216   14.2944 C.ar    1  UNL1       -0.0000
     32 C          -0.3499   44.8270   14.4199 C.ar    1  UNL1       -0.0003
     33 C           0.6845   43.9243   14.1542 C.ar    1  UNL1       -0.0038
@<TRIPOS>BOND
     1    21    22    1
     2    15    22    1
     3    16    17   ar
     4    18    19   ar
     5    14    18    1
     6    14    12    1
     7     7    12    1
     8     7     8    1
     9     8     9    1
    10     9    13    1
    11    10    12   am
    12     2     3   ar
    13     4     5   ar
    14     5    25    1
    15    27    23    1
    16    27    28    1
    17    29    30   ar
    18    31    32   ar
    19    33    28   ar
    20     6     1   ar
    21    20    15   ar
    22    13    10   am
    23    13     1    1
    24    25    23   am
    25    15    16   ar
    26    17    18   ar
    27    10    11    2
    28     1     2   ar
    29     3     4   ar
    30     5     6   ar
    31    23    24    2
    32    28    29   ar
    33    30    31   ar
    34    32    33   ar
    35    19    20   ar
    36    25    26    1
@<TRIPOS>MOLECULE
MolPort-006-609-967 ChemDiv-V013-4409 MCULE-6473052264 PubChem-46070051 ZINC000034735463 ZINC34735463
 33 36 0 0 0
SMALL
GASTEIGER

@<TRIPOS>ATOM
      1 C          13.2882   37.1571   10.2450 C.ar    1  UNL1        0.0565
      2 C          12.7614   36.1281   11.0431 C.ar    1  UNL1        0.0150
      3 C          11.3913   35.8573   11.0435 C.ar    1  UNL1        0.0026
      4 C          10.5305   36.6087   10.2412 C.ar    1  UNL1        0.0148
      5 C          11.0344   37.6364    9.4318 C.ar    1  UNL1        0.0516
      6 C          12.4079   37.9006    9.4398 C.ar    1  UNL1        0.0296
      7 C          17.4935   37.9050    9.5656 C.3     1  UNL1        0.0971
      8 C          16.6920   36.7434    8.9871 C.3     1  UNL1        0.0435
      9 C          15.6420   36.3193   10.0012 C.3     1  UNL1        0.1015
     10 C          15.2681   38.7397   10.4165 C.2     1  UNL1        0.3112
     11 O          14.5806   39.6661   10.9286 O.2     1  UNL1       -0.2520
     12 N          16.6196   38.9993    9.9926 N.am    1  UNL1       -0.2596
     13 N          14.7098   37.4203   10.2409 N.am    1  UNL1       -0.2430
     14 C          17.2119   40.3188   10.1776 C.3     1  UNL1        0.1217
     15 C          15.7206   43.0887    7.2484 C.ar    1  UNL1        0.1387
     16 C          14.9689   41.9533    7.5969 C.ar    1  UNL1        0.0366
     17 C          15.4568   41.0501    8.5456 C.ar    1  UNL1        0.0005
     18 C          16.6992   41.2717    9.1491 C.ar    1  UNL1       -0.0021
     19 C          17.4485   42.4025    8.8071 C.ar    1  UNL1        0.0005
     20 C          16.9601   43.3064    7.8592 C.ar    1  UNL1        0.0366
     21 C          16.0862   45.0412    5.7715 C.3     1  UNL1        0.2525
     22 O          15.2607   44.0104    6.3047 O.3     1  UNL1       -0.4714
     23 C           9.8365   39.8159    8.8087 C.2     1  UNL1        0.2305
     24 O          10.2458   40.4487    9.8184 O.2     1  UNL1       -0.2744
     25 N          10.1812   38.4396    8.6035 N.am    1  UNL1       -0.2836
     26 H           9.7925   38.0002    7.8129 H       1  UNL1        0.1549
     27 C           8.9941   40.5168    7.7967 C.3     1  UNL1        0.1116
     28 C           9.4596   40.1972    6.4171 C.ar    1  UNL1       -0.0131
     29 C          10.6752   40.7084    5.9507 C.ar    1  UNL1       -0.0038
     30 C          11.1168   40.3973    4.6610 C.ar    1  UNL1       -0.0003
     31 C          10.3438   39.5730    3.8367 C.ar    1  UNL1       -0.0000
     32 C           9.1329   39.0557    4.3042 C.ar    1  UNL1       -0.0003
     33 C           8.6910   39.3658    5.5941 C.ar    1  UNL1       -0.0038
@<TRIPOS>BOND
     1    21    22    1
     2    15    22    1
     3    16    17   ar
     4    18    19   ar
     5    14    18    1
     6    14    12    1
     7     7    12    1
     8     7     8    1
     9     8     9    1
    10     9    13    1
    11    10    12   am
    12     2     3   ar
    13     4     5   ar
    14     5    25    1
    15    27    23    1
    16    27    28    1
    17    29    30   ar
    18    31    32   ar
    19    33    28   ar
    20     6     1   ar
    21    20    15   ar
    22    13    10   am
    23    13     1    1
    24    25    23   am
    25    15    16   ar
    26    17    18   ar
    27    10    11    2
    28     1     2   ar
    29     3     4   ar
    30     5     6   ar
    31    23    24    2
    32    28    29   ar
    33    30    31   ar
    34    32    33   ar
    35    19    20   ar
    36    25    26    1
@<TRIPOS>MOLECULE
MolPort-006-609-967 ChemDiv-V013-4409 MCULE-6473052264 PubChem-46070051 ZINC000034735463 ZINC34735463
 33 36 0 0 0
SMALL
GASTEIGER

@<TRIPOS>ATOM
      1 C          11.0520   39.1360    8.1838 C.ar    1  UNL1        0.0565
      2 C           9.8363   38.7301    7.6088 C.ar    1  UNL1        0.0150
      3 C           9.3318   39.3768    6.4784 C.ar    1  UNL1        0.0026
      4 C          10.0395   40.4349    5.9047 C.ar    1  UNL1        0.0148
      5 C          11.2580   40.8532    6.4576 C.ar    1  UNL1        0.0516
      6 C          11.7538   40.1999    7.5906 C.ar    1  UNL1        0.0296
      7 C          12.9340   36.6980   11.2200 C.3     1  UNL1        0.0971
      8 C          12.1411   36.1765   10.0261 C.3     1  UNL1        0.0435
      9 C          11.0158   37.1519    9.7213 C.3     1  UNL1        0.1015
     10 C          12.6619   38.9642   10.1414 C.2     1  UNL1        0.3112
     11 O          12.9809   40.1841   10.0847 O.2     1  UNL1       -0.2520
     12 N          13.3952   38.0699   10.9995 N.am    1  UNL1       -0.2596
     13 N          11.5727   38.4510    9.3455 N.am    1  UNL1       -0.2430
     14 C          14.4867   38.5689   11.8277 C.3     1  UNL1        0.1217
     15 C          18.2790   37.8641    9.9305 C.ar    1  UNL1        0.1387
     16 C          18.1339   38.9115   10.8566 C.ar    1  UNL1        0.0366
     17 C          16.8992   39.1436   11.4692 C.ar    1  UNL1        0.0005
     18 C          15.8006   38.3351   11.1586 C.ar    1  UNL1       -0.0021
     19 C          15.9422   37.2897   10.2398 C.ar    1  UNL1        0.0005
     20 C          17.1773   37.0568    9.6279 C.ar    1  UNL1        0.0366
     21 C          19.6503   36.6076    8.2973 C.3     1  UNL1        0.2525
     22 O          19.4994   37.6059    9.3018 O.3     1  UNL1       -0.4714
     23 C          13.1693   42.5620    6.4771 C.2     1  UNL1        0.2305
     24 O          13.6175   42.1999    7.5976 O.2     1  UNL1       -0.2744
     25 N          12.0085   41.9446    5.9057 N.am    1  UNL1       -0.2836
     26 H          11.6939   42.3066    5.0459 H       1  UNL1        0.1549
     27 C          13.8709   43.6395    5.7208 C.3     1  UNL1        0.1116
     28 C          15.2893   43.7519    6.1655 C.ar    1  UNL1       -0.0131
     29 C          15.5934   43.8272    7.5287 C.ar    1  UNL1       -0.0038
     30 C          16.9251   43.9196    7.9448 C.ar    1  UNL1       -0.0003
     31 C          17.9545   43.9351    6.9979 C.ar    1  UNL1       -0.0000
     32 C          17.6523   43.8524    5.6363 C.ar    1  UNL1       -0.0003
     33 C          16.3208   43.7592    5.2193 C.ar    1  UNL1       -0.0038
@<TRIPOS>BOND
     1    21    22    1
     2    15    22    1
     3    16    17   ar
     4    18    19   ar
     5    14    18    1
     6    14    12    1
     7     7    12    1
     8     7     8    1
     9     8     9    1
    10     9    13    1
    11    10    12   am
    12     2     3   ar
    13     4     5   ar
    14     5    25    1
    15    27    23    1
    16    27    28    1
    17    29    30   ar
    18    31    32   ar
    19    33    28   ar
    20     6     1   ar
    21    20    15   ar
    22    13    10   am
    23    13     1    1
    24    25    23   am
    25    15    16   ar
    26    17    18   ar
    27    10    11    2
    28     1     2   ar
    29     3     4   ar
    30     5     6   ar
    31    23    24    2
    32    28    29   ar
    33    30    31   ar
    34    32    33   ar
    35    19    20   ar
    36    25    26    1
@<TRIPOS>MOLECULE
MolPort-006-609-967 ChemDiv-V013-4409 MCULE-6473052264 PubChem-46070051 ZINC000034735463 ZINC34735463
 33 36 0 0 0
SMALL
GASTEIGER

@<TRIPOS>ATOM
      1 C          11.5677   40.0360    8.6574 C.ar    1  UNL1        0.0565
      2 C          11.7112   39.6541    7.3133 C.ar    1  UNL1        0.0150
      3 C          10.6007   39.5882    6.4689 C.ar    1  UNL1        0.0026
      4 C           9.3324   39.9090    6.9564 C.ar    1  UNL1        0.0148
      5 C           9.1659   40.2989    8.2927 C.ar    1  UNL1        0.0516
      6 C          10.2842   40.3601    9.1305 C.ar    1  UNL1        0.0296
      7 C          15.0352   39.6020   11.2056 C.3     1  UNL1        0.0971
      8 C          13.7025   38.8829   11.3873 C.3     1  UNL1        0.0435
      9 C          12.5815   39.8084   10.9426 C.3     1  UNL1        0.1015
     10 C          14.0470   40.4384    9.0383 C.2     1  UNL1        0.3112
     11 O          14.2035   41.0087    7.9233 O.2     1  UNL1       -0.2520
     12 N          15.1955   40.0963    9.8368 N.am    1  UNL1       -0.2596
     13 N          12.7254   40.1147    9.5198 N.am    1  UNL1       -0.2430
     14 C          16.5394   40.4308    9.3805 C.3     1  UNL1        0.1217
     15 C          16.4678   44.0949    7.1340 C.ar    1  UNL1        0.1387
     16 C          15.6164   43.0326    6.7841 C.ar    1  UNL1        0.0366
     17 C          15.6439   41.8394    7.5116 C.ar    1  UNL1        0.0005
     18 C          16.5237   41.6970    8.5898 C.ar    1  UNL1       -0.0021
     19 C          17.3701   42.7535    8.9431 C.ar    1  UNL1        0.0005
     20 C          17.3419   43.9471    8.2162 C.ar    1  UNL1        0.0366
     21 C          15.3734   45.7060    5.6065 C.3     1  UNL1        0.2525
     22 O          16.4640   45.3000    6.4276 O.3     1  UNL1       -0.4714
     23 C           7.5819   41.6625    9.7776 C.2     1  UNL1        0.2305
     24 O           8.4941   42.3827   10.2642 O.2     1  UNL1       -0.2744
     25 N           7.8777   40.6236    8.8351 N.am    1  UNL1       -0.2836
     26 H           7.1189   40.0765    8.5284 H       1  UNL1        0.1549
     27 C           6.1648   41.9081   10.1735 C.3     1  UNL1        0.1116
     28 C           5.5457   42.9365    9.2897 C.ar    1  UNL1       -0.0131
     29 C           6.3281   43.6188    8.3522 C.ar    1  UNL1       -0.0038
     30 C           5.7435   44.5740    7.5150 C.ar    1  UNL1       -0.0003
     31 C           4.3751   44.8468    7.6133 C.ar    1  UNL1       -0.0000
     32 C           3.5912   44.1605    8.5443 C.ar    1  UNL1       -0.0003
     33 C           4.1749   43.2046    9.3814 C.ar    1  UNL1       -0.0038
@<TRIPOS>BOND
     1    21    22    1
     2    15    22    1
     3    16    17   ar
     4    18    19   ar
     5    14    18    1
     6    14    12    1
     7     7    12    1
     8     7     8    1
     9     8     9    1
    10     9    13    1
    11    10    12   am
    12     2     3   ar
    13     4     5   ar
    14     5    25    1
    15    27    23    1
    16    27    28    1
    17    29    30   ar
    18    31    32   ar
    19    33    28   ar
    20     6     1   ar
    21    20    15   ar
    22    13    10   am
    23    13     1    1
    24    25    23   am
    25    15    16   ar
    26    17    18   ar
    27    10    11    2
    28     1     2   ar
    29     3     4   ar
    30     5     6   ar
    31    23    24    2
    32    28    29   ar
    33    30    31   ar
    34    32    33   ar
    35    19    20   ar
    36    25    26    1
