@<TRIPOS>MOLECULE
MolPort-047-073-956 MCULE-6453999601 PubChem-132772398
 33 36 0 0 0
SMALL
GASTEIGER

@<TRIPOS>ATOM
      1 N          10.6014   38.1440    9.5853 N.pl3   1  UNL1       -0.2782
      2 H          10.0510   38.3953   10.3620 H       1  UNL1        0.1555
      3 C          11.5758   37.1130    9.7924 C.ar    1  UNL1        0.1332
      4 C          11.3139   36.0044   10.6090 C.ar    1  UNL1        0.0344
      5 C          12.2943   35.0272   10.7798 C.ar    1  UNL1        0.0041
      6 C          13.5252   35.1603   10.1384 C.ar    1  UNL1        0.0149
      7 C          13.7591   36.2795    9.3281 C.ar    1  UNL1        0.0614
      8 N          12.7857   37.2185    9.1780 N.ar    1  UNL1       -0.2348
      9 C          15.0657   36.4618    8.6237 C.3     1  UNL1        0.0563
     10 C          15.7041   35.1052    8.2997 C.3     1  UNL1        0.0087
     11 C          17.1930   35.2612    7.9957 C.3     1  UNL1        0.0178
     12 C          17.9357   36.0279    9.1054 C.3     1  UNL1        0.0731
     13 C          16.0036   37.3778    9.4242 C.3     1  UNL1        0.0789
     14 N          17.0287   36.5917   10.1101 N.3     1  UNL1       -0.2596
     15 C          17.8123   37.5133   10.9147 C.3     1  UNL1        0.1795
     16 C          17.8839   38.8172   10.2487 C.1     1  UNL1        0.0912
     17 N          17.9403   39.8468    9.7235 N.1     1  UNL1       -0.1944
     18 C          10.5818   40.3716    6.7380 C.ar    1  UNL1        0.1429
     19 C           9.5007   39.6697    6.1975 C.ar    1  UNL1        0.0619
     20 C          10.3477   38.8456    8.3622 C.ar    1  UNL1        0.1648
     21 S           9.1368   38.4332    7.2837 S.2     1  UNL1       -0.0507
     22 N          11.0478   39.9145    7.9331 N.ar    1  UNL1       -0.2193
     23 C          11.1883   41.5294    6.0687 C.2     1  UNL1        0.2644
     24 N          12.5350   41.9076    6.3704 N.am    1  UNL1       -0.2944
     25 O          10.5188   42.1852    5.2251 O.2     1  UNL1       -0.2685
     26 H          13.0496   41.3538    7.0010 H       1  UNL1        0.1501
     27 C          13.1775   43.0764    5.7851 C.3     1  UNL1        0.1360
     28 C          14.5523   43.2423    6.3375 C.ar    1  UNL1        0.0788
     29 C          15.0169   42.3748    7.3303 C.ar    1  UNL1        0.0165
     30 C          16.2991   42.5586    7.8509 C.ar    1  UNL1        0.0029
     31 C          17.0976   43.6027    7.3806 C.ar    1  UNL1        0.0207
     32 C          16.5960   44.4521    6.3917 C.ar    1  UNL1        0.0985
     33 N          15.3441   44.2575    5.8961 N.ar    1  UNL1       -0.2464
@<TRIPOS>BOND
     1    18    23    1
     2    18    22   ar
     3    19    21   ar
     4    20    21   ar
     5    20     1    1
     6     3     8   ar
     7     4     5   ar
     8     6     7   ar
     9     9     7    1
    10     9    10    1
    11    10    11    1
    12    11    12    1
    13    12    14    1
    14    15    14    1
    15    15    16    1
    16    13    14    1
    17    13     9    1
    18    23    24   am
    19    27    24    1
    20    27    28    1
    21    28    33   ar
    22    29    30   ar
    23    31    32   ar
    24     1     3    1
    25    18    19   ar
    26    20    22   ar
    27     3     4   ar
    28     5     6   ar
    29     7     8   ar
    30    23    25    2
    31    28    29   ar
    32    30    31   ar
    33    32    33   ar
    34    16    17    3
    35     1     2    1
    36    24    26    1
@<TRIPOS>MOLECULE
MolPort-047-073-956 MCULE-6453999601 PubChem-132772398
 33 36 0 0 0
SMALL
GASTEIGER

@<TRIPOS>ATOM
      1 N          13.3427   42.2790    6.7674 N.pl3   1  UNL1       -0.2782
      2 H          13.3198   42.6980    5.8769 H       1  UNL1        0.1555
      3 C          14.6255   42.1791    7.3999 C.ar    1  UNL1        0.1332
      4 C          15.6745   43.0523    7.0812 C.ar    1  UNL1        0.0344
      5 C          16.9048   42.9151    7.7237 C.ar    1  UNL1        0.0041
      6 C          17.0816   41.9123    8.6761 C.ar    1  UNL1        0.0149
      7 C          16.0150   41.0536    8.9744 C.ar    1  UNL1        0.0614
      8 N          14.8249   41.2089    8.3333 N.ar    1  UNL1       -0.2348
      9 C          16.1627   39.9639    9.9881 C.3     1  UNL1        0.0563
     10 C          17.6409   39.6115   10.1979 C.3     1  UNL1        0.0087
     11 C          17.7868   38.2463   10.8676 C.3     1  UNL1        0.0178
     12 C          17.0043   37.1478   10.1248 C.3     1  UNL1        0.0731
     13 C          15.3131   38.7401    9.6137 C.3     1  UNL1        0.0789
     14 N          16.1537   37.6812    9.0561 N.3     1  UNL1       -0.2596
     15 C          15.2717   36.6032    8.6425 C.3     1  UNL1        0.1795
     16 C          14.4467   36.1738    9.7756 C.1     1  UNL1        0.0912
     17 N          13.7953   35.8354   10.6701 N.1     1  UNL1       -0.1944
     18 C          10.2866   41.7604    8.6278 C.ar    1  UNL1        0.1429
     19 C           9.9746   40.6710    7.8096 C.ar    1  UNL1        0.0619
     20 C          12.0909   41.8306    7.3006 C.ar    1  UNL1        0.1648
     21 S          11.2327   40.5272    6.6972 S.2     1  UNL1       -0.0507
     22 N          11.4555   42.3991    8.3446 N.ar    1  UNL1       -0.2193
     23 C           9.4166   42.2008    9.7257 C.2     1  UNL1        0.2644
     24 N           8.3909   41.3338   10.2196 N.am    1  UNL1       -0.2944
     25 O           9.5803   43.3435   10.2331 O.2     1  UNL1       -0.2685
     26 H           8.3117   40.4311    9.8347 H       1  UNL1        0.1501
     27 C           7.4589   41.7287   11.2669 C.3     1  UNL1        0.1360
     28 C           6.0601   41.4084   10.8629 C.ar    1  UNL1        0.0788
     29 C           5.5803   41.8198    9.6160 C.ar    1  UNL1        0.0165
     30 C           4.2611   41.5296    9.2633 C.ar    1  UNL1        0.0029
     31 C           3.4386   40.8394   10.1555 C.ar    1  UNL1        0.0207
     32 C           3.9526   40.4498   11.3945 C.ar    1  UNL1        0.0985
     33 N           5.2407   40.7413   11.7207 N.ar    1  UNL1       -0.2464
@<TRIPOS>BOND
     1    18    23    1
     2    18    22   ar
     3    19    21   ar
     4    20    21   ar
     5    20     1    1
     6     3     8   ar
     7     4     5   ar
     8     6     7   ar
     9     9     7    1
    10     9    10    1
    11    10    11    1
    12    11    12    1
    13    12    14    1
    14    15    14    1
    15    15    16    1
    16    13    14    1
    17    13     9    1
    18    23    24   am
    19    27    24    1
    20    27    28    1
    21    28    33   ar
    22    29    30   ar
    23    31    32   ar
    24     1     3    1
    25    18    19   ar
    26    20    22   ar
    27     3     4   ar
    28     5     6   ar
    29     7     8   ar
    30    23    25    2
    31    28    29   ar
    32    30    31   ar
    33    32    33   ar
    34    16    17    3
    35     1     2    1
    36    24    26    1
@<TRIPOS>MOLECULE
MolPort-047-073-956 MCULE-6453999601 PubChem-132772398
 33 36 0 0 0
SMALL
GASTEIGER

@<TRIPOS>ATOM
      1 N          12.0512   40.2472   10.8655 N.pl3   1  UNL1       -0.2782
      2 H          11.7029   40.2048   11.7853 H       1  UNL1        0.1555
      3 C          13.4488   39.9784   10.6925 C.ar    1  UNL1        0.1332
      4 C          14.1261   39.0509   11.4958 C.ar    1  UNL1        0.0344
      5 C          15.4866   38.8239   11.2892 C.ar    1  UNL1        0.0041
      6 C          16.1614   39.5201   10.2873 C.ar    1  UNL1        0.0149
      7 C          15.4586   40.4417    9.4995 C.ar    1  UNL1        0.0614
      8 N          14.1315   40.6445    9.7216 N.ar    1  UNL1       -0.2348
      9 C          16.1444   41.2107    8.4156 C.3     1  UNL1        0.0563
     10 C          17.1112   42.2437    9.0083 C.3     1  UNL1        0.0087
     11 C          17.4738   43.3081    7.9742 C.3     1  UNL1        0.0178
     12 C          16.2269   43.9462    7.3349 C.3     1  UNL1        0.0731
     13 C          15.1258   41.8413    7.4541 C.3     1  UNL1        0.0789
     14 N          14.9833   43.2721    7.7214 N.3     1  UNL1       -0.2596
     15 C          13.9417   43.7736    6.8413 C.3     1  UNL1        0.1795
     16 C          14.4844   43.9777    5.4949 C.1     1  UNL1        0.0912
     17 N          14.9132   44.1386    4.4323 N.1     1  UNL1       -0.1944
     18 C           9.1327   40.9377    8.8469 C.ar    1  UNL1        0.1429
     19 C           9.9554   41.1917    7.7459 C.ar    1  UNL1        0.0619
     20 C          11.1103   40.5714    9.8349 C.ar    1  UNL1        0.1648
     21 S          11.5425   40.9701    8.2685 S.2     1  UNL1       -0.0507
     22 N           9.7727   40.5956    9.9992 N.ar    1  UNL1       -0.2193
     23 C           7.6688   41.0324    8.7799 C.2     1  UNL1        0.2644
     24 N           6.9463   41.7113    9.8118 N.am    1  UNL1       -0.2944
     25 O           7.0528   40.5167    7.8079 O.2     1  UNL1       -0.2685
     26 H           7.4542   42.1415   10.5373 H       1  UNL1        0.1501
     27 C           5.4924   41.7936    9.8355 C.3     1  UNL1        0.1360
     28 C           5.0275   42.9700    9.0465 C.ar    1  UNL1        0.0788
     29 C           5.9464   43.7315    8.3185 C.ar    1  UNL1        0.0165
     30 C           5.4960   44.8423    7.6027 C.ar    1  UNL1        0.0029
     31 C           4.1419   45.1813    7.6244 C.ar    1  UNL1        0.0207
     32 C           3.2553   44.3991    8.3681 C.ar    1  UNL1        0.0985
     33 N           3.7124   43.3202    9.0592 N.ar    1  UNL1       -0.2464
@<TRIPOS>BOND
     1    18    23    1
     2    18    22   ar
     3    19    21   ar
     4    20    21   ar
     5    20     1    1
     6     3     8   ar
     7     4     5   ar
     8     6     7   ar
     9     9     7    1
    10     9    10    1
    11    10    11    1
    12    11    12    1
    13    12    14    1
    14    15    14    1
    15    15    16    1
    16    13    14    1
    17    13     9    1
    18    23    24   am
    19    27    24    1
    20    27    28    1
    21    28    33   ar
    22    29    30   ar
    23    31    32   ar
    24     1     3    1
    25    18    19   ar
    26    20    22   ar
    27     3     4   ar
    28     5     6   ar
    29     7     8   ar
    30    23    25    2
    31    28    29   ar
    32    30    31   ar
    33    32    33   ar
    34    16    17    3
    35     1     2    1
    36    24    26    1
@<TRIPOS>MOLECULE
MolPort-047-073-956 MCULE-6453999601 PubChem-132772398
 33 36 0 0 0
SMALL
GASTEIGER

@<TRIPOS>ATOM
      1 N          16.0814   41.6765    8.4746 N.pl3   1  UNL1       -0.2782
      2 H          16.9277   42.1785    8.4435 H       1  UNL1        0.1555
      3 C          16.0200   40.5727    9.3876 C.ar    1  UNL1        0.1332
      4 C          17.1780   40.0013    9.9324 C.ar    1  UNL1        0.0344
      5 C          17.0669   38.9284   10.8165 C.ar    1  UNL1        0.0041
      6 C          15.8071   38.4331   11.1509 C.ar    1  UNL1        0.0149
      7 C          14.6667   39.0241   10.5906 C.ar    1  UNL1        0.0614
      8 N          14.8027   40.0699    9.7307 N.ar    1  UNL1       -0.2348
      9 C          13.2970   38.5227   10.9212 C.3     1  UNL1        0.0563
     10 C          13.2052   37.0066   10.7067 C.3     1  UNL1        0.0087
     11 C          11.7487   36.5564   10.6082 C.3     1  UNL1        0.0178
     12 C          10.9607   37.3628    9.5596 C.3     1  UNL1        0.0731
     13 C          12.2215   39.2939   10.1412 C.3     1  UNL1        0.0789
     14 N          11.7241   38.4937    9.0226 N.3     1  UNL1       -0.2596
     15 C          10.7862   39.3216    8.2837 C.3     1  UNL1        0.1795
     16 C           9.7490   38.4799    7.6799 C.1     1  UNL1        0.0912
     17 N           8.9306   37.8149    7.2032 N.1     1  UNL1       -0.1944
     18 C          13.0629   42.1409    6.5400 C.ar    1  UNL1        0.1429
     19 C          13.5929   43.3145    5.9967 C.ar    1  UNL1        0.0619
     20 C          15.0355   42.1226    7.6031 C.ar    1  UNL1        0.1648
     21 S          15.1241   43.5108    6.6734 S.2     1  UNL1       -0.0507
     22 N          13.8612   41.4847    7.4269 N.ar    1  UNL1       -0.2193
     23 C          11.7295   41.6368    6.1875 C.2     1  UNL1        0.2644
     24 N          10.5641   42.2126    6.7859 N.am    1  UNL1       -0.2944
     25 O          11.6165   40.6983    5.3529 O.2     1  UNL1       -0.2685
     26 H          10.6775   42.9720    7.4020 H       1  UNL1        0.1501
     27 C           9.2174   41.7239    6.5231 C.3     1  UNL1        0.1360
     28 C           8.2089   42.6166    7.1621 C.ar    1  UNL1        0.0788
     29 C           7.0976   43.0510    6.4338 C.ar    1  UNL1        0.0165
     30 C           6.1747   43.9039    7.0419 C.ar    1  UNL1        0.0029
     31 C           6.3719   44.3148    8.3614 C.ar    1  UNL1        0.0207
     32 C           7.4975   43.8638    9.0547 C.ar    1  UNL1        0.0985
     33 N           8.3860   43.0329    8.4458 N.ar    1  UNL1       -0.2464
@<TRIPOS>BOND
     1    18    23    1
     2    18    22   ar
     3    19    21   ar
     4    20    21   ar
     5    20     1    1
     6     3     8   ar
     7     4     5   ar
     8     6     7   ar
     9     9     7    1
    10     9    10    1
    11    10    11    1
    12    11    12    1
    13    12    14    1
    14    15    14    1
    15    15    16    1
    16    13    14    1
    17    13     9    1
    18    23    24   am
    19    27    24    1
    20    27    28    1
    21    28    33   ar
    22    29    30   ar
    23    31    32   ar
    24     1     3    1
    25    18    19   ar
    26    20    22   ar
    27     3     4   ar
    28     5     6   ar
    29     7     8   ar
    30    23    25    2
    31    28    29   ar
    32    30    31   ar
    33    32    33   ar
    34    16    17    3
    35     1     2    1
    36    24    26    1
@<TRIPOS>MOLECULE
MolPort-047-073-956 MCULE-6453999601 PubChem-132772398
 33 36 0 0 0
SMALL
GASTEIGER

@<TRIPOS>ATOM
      1 N          10.0783   40.2076   10.7118 N.pl3   1  UNL1       -0.2782
      2 H           9.5715   39.7568   11.4254 H       1  UNL1        0.1555
      3 C           9.6321   41.5161   10.3323 C.ar    1  UNL1        0.1332
      4 C          10.3623   42.6673   10.6580 C.ar    1  UNL1        0.0344
      5 C           9.8869   43.9187   10.2667 C.ar    1  UNL1        0.0041
      6 C           8.6912   44.0151    9.5561 C.ar    1  UNL1        0.0149
      7 C           7.9822   42.8471    9.2446 C.ar    1  UNL1        0.0614
      8 N           8.4679   41.6384    9.6380 N.ar    1  UNL1       -0.2348
      9 C           6.6948   42.9059    8.4856 C.3     1  UNL1        0.0563
     10 C           6.2707   44.3601    8.2439 C.3     1  UNL1        0.0087
     11 C           4.7893   44.4432    7.8799 C.3     1  UNL1        0.0178
     12 C           3.8975   43.7169    8.9035 C.3     1  UNL1        0.0731
     13 C           5.6022   42.0820    9.1835 C.3     1  UNL1        0.0789
     14 N           4.6705   42.9587    9.8923 N.3     1  UNL1       -0.2596
     15 C           3.7294   42.1066   10.5989 C.3     1  UNL1        0.1795
     16 C           2.7985   41.4965    9.6450 C.1     1  UNL1        0.0912
     17 N           2.0639   41.0145    8.8918 N.1     1  UNL1       -0.1944
     18 C          13.2875   39.0648    9.5015 C.ar    1  UNL1        0.1429
     19 C          12.7107   37.8494    9.1225 C.ar    1  UNL1        0.0619
     20 C          11.1873   39.4897   10.1575 C.ar    1  UNL1        0.1648
     21 S          11.0782   37.9417    9.5321 S.2     1  UNL1       -0.0507
     22 N          12.4444   39.9687   10.0730 N.ar    1  UNL1       -0.2193
     23 C          14.7122   39.3607    9.3041 C.2     1  UNL1        0.2644
     24 N          15.1769   40.7132    9.3526 N.am    1  UNL1       -0.2944
     25 O          15.5234   38.4180    9.0961 O.2     1  UNL1       -0.2685
     26 H          14.5301   41.4262    9.5586 H       1  UNL1        0.1501
     27 C          16.5653   41.0809    9.1104 C.3     1  UNL1        0.1360
     28 C          16.6380   42.2491    8.1871 C.ar    1  UNL1        0.0788
     29 C          15.5432   42.5723    7.3802 C.ar    1  UNL1        0.0165
     30 C          15.6370   43.6568    6.5061 C.ar    1  UNL1        0.0029
     31 C          16.8171   44.4002    6.4444 C.ar    1  UNL1        0.0207
     32 C          17.8913   44.0428    7.2625 C.ar    1  UNL1        0.0985
     33 N          17.7815   42.9829    8.1082 N.ar    1  UNL1       -0.2464
@<TRIPOS>BOND
     1    18    23    1
     2    18    22   ar
     3    19    21   ar
     4    20    21   ar
     5    20     1    1
     6     3     8   ar
     7     4     5   ar
     8     6     7   ar
     9     9     7    1
    10     9    10    1
    11    10    11    1
    12    11    12    1
    13    12    14    1
    14    15    14    1
    15    15    16    1
    16    13    14    1
    17    13     9    1
    18    23    24   am
    19    27    24    1
    20    27    28    1
    21    28    33   ar
    22    29    30   ar
    23    31    32   ar
    24     1     3    1
    25    18    19   ar
    26    20    22   ar
    27     3     4   ar
    28     5     6   ar
    29     7     8   ar
    30    23    25    2
    31    28    29   ar
    32    30    31   ar
    33    32    33   ar
    34    16    17    3
    35     1     2    1
    36    24    26    1
@<TRIPOS>MOLECULE
MolPort-047-073-956 MCULE-6453999601 PubChem-132772398
 33 36 0 0 0
SMALL
GASTEIGER

@<TRIPOS>ATOM
      1 N          11.6048   40.5934   10.3789 N.pl3   1  UNL1       -0.2782
      2 H          12.3290   40.1785   10.9011 H       1  UNL1        0.1555
      3 C          11.8633   40.8230    8.9876 C.ar    1  UNL1        0.1332
      4 C          11.3470   39.9812    7.9930 C.ar    1  UNL1        0.0344
      5 C          11.6265   40.2459    6.6525 C.ar    1  UNL1        0.0041
      6 C          12.4161   41.3436    6.3125 C.ar    1  UNL1        0.0149
      7 C          12.9190   42.1679    7.3281 C.ar    1  UNL1        0.0614
      8 N          12.6313   41.8877    8.6283 N.ar    1  UNL1       -0.2348
      9 C          13.7712   43.3543    7.0072 C.3     1  UNL1        0.0563
     10 C          13.9962   43.4703    5.4943 C.3     1  UNL1        0.0087
     11 C          15.1877   44.3758    5.1875 C.3     1  UNL1        0.0178
     12 C          16.4533   43.9512    5.9548 C.3     1  UNL1        0.0731
     13 C          15.0880   43.3206    7.7975 C.3     1  UNL1        0.0789
     14 N          16.1928   42.8955    6.9386 N.3     1  UNL1       -0.2596
     15 C          17.3767   42.7984    7.7753 C.3     1  UNL1        0.1795
     16 C          17.2433   41.6649    8.6953 C.1     1  UNL1        0.0912
     17 N          17.1385   40.7703    9.4218 N.1     1  UNL1       -0.1944
     18 C           8.2224   41.3099   11.4353 C.ar    1  UNL1        0.1429
     19 C           8.6677   41.4682   12.7506 C.ar    1  UNL1        0.0619
     20 C          10.3989   40.9067   11.0862 C.ar    1  UNL1        0.1648
     21 S          10.3322   41.2031   12.7315 S.2     1  UNL1       -0.0507
     22 N           9.1801   40.9997   10.5182 N.ar    1  UNL1       -0.2193
     23 C           6.8130   41.4632   11.0527 C.2     1  UNL1        0.2644
     24 N           6.3793   41.0786    9.7444 N.am    1  UNL1       -0.2944
     25 O           5.9872   41.9308   11.8830 O.2     1  UNL1       -0.2685
     26 H           7.0355   40.6771    9.1299 H       1  UNL1        0.1501
     27 C           5.0095   41.2555    9.2821 C.3     1  UNL1        0.1360
     28 C           4.8404   42.6033    8.6678 C.ar    1  UNL1        0.0788
     29 C           5.8600   43.1465    7.8808 C.ar    1  UNL1        0.0165
     30 C           5.6928   44.4189    7.3313 C.ar    1  UNL1        0.0029
     31 C           4.5181   45.1328    7.5751 C.ar    1  UNL1        0.0207
     32 C           3.5244   44.5586    8.3712 C.ar    1  UNL1        0.0985
     33 N           3.7050   43.3175    8.8981 N.ar    1  UNL1       -0.2464
@<TRIPOS>BOND
     1    18    23    1
     2    18    22   ar
     3    19    21   ar
     4    20    21   ar
     5    20     1    1
     6     3     8   ar
     7     4     5   ar
     8     6     7   ar
     9     9     7    1
    10     9    10    1
    11    10    11    1
    12    11    12    1
    13    12    14    1
    14    15    14    1
    15    15    16    1
    16    13    14    1
    17    13     9    1
    18    23    24   am
    19    27    24    1
    20    27    28    1
    21    28    33   ar
    22    29    30   ar
    23    31    32   ar
    24     1     3    1
    25    18    19   ar
    26    20    22   ar
    27     3     4   ar
    28     5     6   ar
    29     7     8   ar
    30    23    25    2
    31    28    29   ar
    32    30    31   ar
    33    32    33   ar
    34    16    17    3
    35     1     2    1
    36    24    26    1
@<TRIPOS>MOLECULE
MolPort-047-073-956 MCULE-6453999601 PubChem-132772398
 33 36 0 0 0
SMALL
GASTEIGER

@<TRIPOS>ATOM
      1 N          12.1111   42.1738    5.6912 N.pl3   1  UNL1       -0.2782
      2 H          12.1490   42.9468    5.0827 H       1  UNL1        0.1555
      3 C          13.2275   41.9918    6.5722 C.ar    1  UNL1        0.1332
      4 C          14.3413   42.8419    6.5362 C.ar    1  UNL1        0.0344
      5 C          15.4032   42.6240    7.4136 C.ar    1  UNL1        0.0041
      6 C          15.3492   41.5643    8.3181 C.ar    1  UNL1        0.0149
      7 C          14.2230   40.7305    8.3314 C.ar    1  UNL1        0.0614
      8 N          13.2003   40.9648    7.4649 N.ar    1  UNL1       -0.2348
      9 C          14.1253   39.5817    9.2841 C.3     1  UNL1        0.0563
     10 C          13.4673   40.0187   10.5990 C.3     1  UNL1        0.0087
     11 C          13.7538   39.0136   11.7132 C.3     1  UNL1        0.0178
     12 C          15.2584   38.7212   11.8596 C.3     1  UNL1        0.0731
     13 C          15.4966   38.9245    9.5019 C.3     1  UNL1        0.0789
     14 N          16.0603   39.3249   10.7907 N.3     1  UNL1       -0.2596
     15 C          17.3882   38.7422   10.8803 C.3     1  UNL1        0.1795
     16 C          17.3558   37.3562   10.4040 C.1     1  UNL1        0.0912
     17 N          17.3301   36.2623   10.0275 N.1     1  UNL1       -0.1944
     18 C           8.8859   40.5796    6.0459 C.ar    1  UNL1        0.1429
     19 C           9.2429   39.6429    5.0719 C.ar    1  UNL1        0.0619
     20 C          10.9460   41.3444    5.6071 C.ar    1  UNL1        0.1648
     21 S          10.8069   40.0322    4.5785 S.2     1  UNL1       -0.0507
     22 N           9.8278   41.5182    6.3395 N.ar    1  UNL1       -0.2193
     23 C           7.5797   40.5656    6.7168 C.2     1  UNL1        0.2644
     24 N           7.4437   41.1111    8.0327 N.am    1  UNL1       -0.2944
     25 O           6.5792   40.0749    6.1267 O.2     1  UNL1       -0.2685
     26 H           8.2308   41.5262    8.4540 H       1  UNL1        0.1501
     27 C           6.1915   41.0792    8.7759 C.3     1  UNL1        0.1360
     28 C           5.4284   42.3414    8.5590 C.ar    1  UNL1        0.0788
     29 C           5.9976   43.3856    7.8243 C.ar    1  UNL1        0.0165
     30 C           5.2767   44.5683    7.6496 C.ar    1  UNL1        0.0029
     31 C           4.0046   44.6967    8.2102 C.ar    1  UNL1        0.0207
     32 C           3.4720   43.6331    8.9425 C.ar    1  UNL1        0.0985
     33 N           4.1892   42.4882    9.1021 N.ar    1  UNL1       -0.2464
@<TRIPOS>BOND
     1    18    23    1
     2    18    22   ar
     3    19    21   ar
     4    20    21   ar
     5    20     1    1
     6     3     8   ar
     7     4     5   ar
     8     6     7   ar
     9     9     7    1
    10     9    10    1
    11    10    11    1
    12    11    12    1
    13    12    14    1
    14    15    14    1
    15    15    16    1
    16    13    14    1
    17    13     9    1
    18    23    24   am
    19    27    24    1
    20    27    28    1
    21    28    33   ar
    22    29    30   ar
    23    31    32   ar
    24     1     3    1
    25    18    19   ar
    26    20    22   ar
    27     3     4   ar
    28     5     6   ar
    29     7     8   ar
    30    23    25    2
    31    28    29   ar
    32    30    31   ar
    33    32    33   ar
    34    16    17    3
    35     1     2    1
    36    24    26    1
@<TRIPOS>MOLECULE
MolPort-047-073-956 MCULE-6453999601 PubChem-132772398
 33 36 0 0 0
SMALL
GASTEIGER

@<TRIPOS>ATOM
      1 N          14.2849   39.3863    9.5998 N.pl3   1  UNL1       -0.2782
      2 H          15.2042   39.6704    9.8084 H       1  UNL1        0.1555
      3 C          14.0220   37.9774    9.6354 C.ar    1  UNL1        0.1332
      4 C          12.9337   37.4481   10.3424 C.ar    1  UNL1        0.0344
      5 C          12.7195   36.0700   10.3474 C.ar    1  UNL1        0.0041
      6 C          13.5880   35.2307    9.6506 C.ar    1  UNL1        0.0149
      7 C          14.6679   35.7879    8.9527 C.ar    1  UNL1        0.0614
      8 N          14.8545   37.1358    8.9637 N.ar    1  UNL1       -0.2348
      9 C          15.6241   34.9236    8.1940 C.3     1  UNL1        0.0563
     10 C          15.3731   33.4403    8.4934 C.3     1  UNL1        0.0087
     11 C          16.5799   32.5917    8.0969 C.3     1  UNL1        0.0178
     12 C          17.8888   33.1184    8.7134 C.3     1  UNL1        0.0731
     13 C          17.0785   35.3402    8.4603 C.3     1  UNL1        0.0789
     14 N          17.7187   34.4089    9.3886 N.3     1  UNL1       -0.2596
     15 C          19.0511   34.9199    9.6617 C.3     1  UNL1        0.1795
     16 C          18.9568   36.2131   10.3456 C.1     1  UNL1        0.0912
     17 N          18.8820   37.2337   10.8858 N.1     1  UNL1       -0.1944
     18 C          11.6381   41.8486    9.5649 C.ar    1  UNL1        0.1429
     19 C          12.0039   42.2220    8.2687 C.ar    1  UNL1        0.0619
     20 C          13.3449   40.4225    9.2914 C.ar    1  UNL1        0.1648
     21 S          13.3119   41.2502    7.8377 S.2     1  UNL1       -0.0507
     22 N          12.3801   40.8550   10.1276 N.ar    1  UNL1       -0.2193
     23 C          10.5271   42.4811   10.2873 C.2     1  UNL1        0.2644
     24 N           9.4698   41.6784   10.8215 N.am    1  UNL1       -0.2944
     25 O          10.5116   43.7329   10.4379 O.2     1  UNL1       -0.2685
     26 H           9.5274   40.7001   10.7268 H       1  UNL1        0.1501
     27 C           8.3120   42.2456   11.4991 C.3     1  UNL1        0.1360
     28 C           7.0527   41.7677   10.8601 C.ar    1  UNL1        0.0788
     29 C           6.9541   41.7073    9.4670 C.ar    1  UNL1        0.0165
     30 C           5.7597   41.2775    8.8859 C.ar    1  UNL1        0.0029
     31 C           4.6815   40.9186    9.6969 C.ar    1  UNL1        0.0207
     32 C           4.8166   40.9976   11.0849 C.ar    1  UNL1        0.0985
     33 N           5.9883   41.4185   11.6332 N.ar    1  UNL1       -0.2464
@<TRIPOS>BOND
     1    18    23    1
     2    18    22   ar
     3    19    21   ar
     4    20    21   ar
     5    20     1    1
     6     3     8   ar
     7     4     5   ar
     8     6     7   ar
     9     9     7    1
    10     9    10    1
    11    10    11    1
    12    11    12    1
    13    12    14    1
    14    15    14    1
    15    15    16    1
    16    13    14    1
    17    13     9    1
    18    23    24   am
    19    27    24    1
    20    27    28    1
    21    28    33   ar
    22    29    30   ar
    23    31    32   ar
    24     1     3    1
    25    18    19   ar
    26    20    22   ar
    27     3     4   ar
    28     5     6   ar
    29     7     8   ar
    30    23    25    2
    31    28    29   ar
    32    30    31   ar
    33    32    33   ar
    34    16    17    3
    35     1     2    1
    36    24    26    1
@<TRIPOS>MOLECULE
MolPort-047-073-956 MCULE-6453999601 PubChem-132772398
 33 36 0 0 0
SMALL
GASTEIGER

@<TRIPOS>ATOM
      1 N          11.5115   39.3378   10.4633 N.pl3   1  UNL1       -0.2782
      2 H          11.1031   38.4492   10.5771 H       1  UNL1        0.1555
      3 C          10.6354   40.4679   10.5672 C.ar    1  UNL1        0.1332
      4 C          10.2405   40.9828   11.8096 C.ar    1  UNL1        0.0344
      5 C           9.3862   42.0841   11.8591 C.ar    1  UNL1        0.0041
      6 C           8.9322   42.6634   10.6749 C.ar    1  UNL1        0.0149
      7 C           9.3434   42.1272    9.4472 C.ar    1  UNL1        0.0614
      8 N          10.1775   41.0522    9.4265 N.ar    1  UNL1       -0.2348
      9 C           8.8786   42.7170    8.1538 C.3     1  UNL1        0.0563
     10 C           7.5413   43.4459    8.3367 C.3     1  UNL1        0.0087
     11 C           6.8490   43.6617    6.9921 C.3     1  UNL1        0.0178
     12 C           6.7187   42.3545    6.1889 C.3     1  UNL1        0.0731
     13 C           8.8225   41.6523    7.0479 C.3     1  UNL1        0.0789
     14 N           7.4417   41.2366    6.8034 N.3     1  UNL1       -0.2596
     15 C           7.4808   40.1687    5.8191 C.3     1  UNL1        0.1795
     16 C           8.1579   38.9973    6.3834 C.1     1  UNL1        0.0912
     17 N           8.6920   38.0727    6.8292 N.1     1  UNL1       -0.1944
     18 C          15.0672   38.7259   10.2348 C.ar    1  UNL1        0.1429
     19 C          15.2236   39.9110    9.5106 C.ar    1  UNL1        0.0619
     20 C          12.9213   39.3710   10.2107 C.ar    1  UNL1        0.1648
     21 S          13.6891   40.5928    9.3638 S.2     1  UNL1       -0.0507
     22 N          13.7951   38.4298   10.6200 N.ar    1  UNL1       -0.2193
     23 C          16.1947   37.8448   10.5645 C.2     1  UNL1        0.2644
     24 N          17.1213   37.4547    9.5462 N.am    1  UNL1       -0.2944
     25 O          16.3444   37.4376   11.7484 O.2     1  UNL1       -0.2685
     26 H          17.0060   37.8205    8.6395 H       1  UNL1        0.1501
     27 C          18.2277   36.5401    9.7928 C.3     1  UNL1        0.1360
     28 C          17.8757   35.1662    9.3336 C.ar    1  UNL1        0.0788
     29 C          16.7503   34.9641    8.5293 C.ar    1  UNL1        0.0165
     30 C          16.4240   33.6679    8.1264 C.ar    1  UNL1        0.0029
     31 C          17.2176   32.5931    8.5316 C.ar    1  UNL1        0.0207
     32 C          18.3310   32.8347    9.3398 C.ar    1  UNL1        0.0985
     33 N          18.6335   34.1046    9.7224 N.ar    1  UNL1       -0.2464
@<TRIPOS>BOND
     1    18    23    1
     2    18    22   ar
     3    19    21   ar
     4    20    21   ar
     5    20     1    1
     6     3     8   ar
     7     4     5   ar
     8     6     7   ar
     9     9     7    1
    10     9    10    1
    11    10    11    1
    12    11    12    1
    13    12    14    1
    14    15    14    1
    15    15    16    1
    16    13    14    1
    17    13     9    1
    18    23    24   am
    19    27    24    1
    20    27    28    1
    21    28    33   ar
    22    29    30   ar
    23    31    32   ar
    24     1     3    1
    25    18    19   ar
    26    20    22   ar
    27     3     4   ar
    28     5     6   ar
    29     7     8   ar
    30    23    25    2
    31    28    29   ar
    32    30    31   ar
    33    32    33   ar
    34    16    17    3
    35     1     2    1
    36    24    26    1
@<TRIPOS>MOLECULE
MolPort-047-073-956 MCULE-6453999601 PubChem-132772398
 33 36 0 0 0
SMALL
GASTEIGER

@<TRIPOS>ATOM
      1 N          12.1415   42.1985    5.7688 N.pl3   1  UNL1       -0.2782
      2 H          12.2179   42.9203    5.1036 H       1  UNL1        0.1555
      3 C          13.2642   42.0020    6.6385 C.ar    1  UNL1        0.1332
      4 C          14.3830   42.8453    6.6001 C.ar    1  UNL1        0.0344
      5 C          15.4510   42.6133    7.4665 C.ar    1  UNL1        0.0041
      6 C          15.3980   41.5463    8.3624 C.ar    1  UNL1        0.0149
      7 C          14.2667   40.7195    8.3784 C.ar    1  UNL1        0.0614
      8 N          13.2381   40.9676    7.5227 N.ar    1  UNL1       -0.2348
      9 C          14.1699   39.5633    9.3221 C.3     1  UNL1        0.0563
     10 C          13.5058   39.9882   10.6380 C.3     1  UNL1        0.0087
     11 C          13.7921   38.9757   11.7456 C.3     1  UNL1        0.0178
     12 C          15.2972   38.6876   11.8950 C.3     1  UNL1        0.0731
     13 C          15.5427   38.9094    9.5397 C.3     1  UNL1        0.0789
     14 N          16.1006   39.3022   10.8334 N.3     1  UNL1       -0.2596
     15 C          17.4302   38.7235   10.9232 C.3     1  UNL1        0.1795
     16 C          17.4090   37.3483   10.4158 C.1     1  UNL1        0.0912
     17 N          17.3917   36.2628   10.0152 N.1     1  UNL1       -0.1944
     18 C           8.7479   40.9909    6.0765 C.ar    1  UNL1        0.1429
     19 C           9.1417   39.7547    5.5567 C.ar    1  UNL1        0.0619
     20 C          10.9196   41.4506    5.7699 C.ar    1  UNL1        0.1648
     21 S          10.7935   39.8683    5.2408 S.2     1  UNL1       -0.0507
     22 N           9.7312   41.9257    6.1930 N.ar    1  UNL1       -0.2193
     23 C           7.3637   41.2781    6.4737 C.2     1  UNL1        0.2644
     24 N           7.0786   42.3923    7.3252 N.am    1  UNL1       -0.2944
     25 O           6.4284   40.5415    6.0581 O.2     1  UNL1       -0.2685
     26 H           7.8217   42.9762    7.6011 H       1  UNL1        0.1501
     27 C           5.7370   42.7001    7.8014 C.3     1  UNL1        0.1360
     28 C           5.4602   41.9746    9.0740 C.ar    1  UNL1        0.0788
     29 C           4.2606   41.2749    9.2339 C.ar    1  UNL1        0.0165
     30 C           4.0093   40.6192   10.4404 C.ar    1  UNL1        0.0029
     31 C           4.9508   40.6719   11.4699 C.ar    1  UNL1        0.0207
     32 C           6.1353   41.3859   11.2742 C.ar    1  UNL1        0.0985
     33 N           6.3629   42.0185   10.0916 N.ar    1  UNL1       -0.2464
@<TRIPOS>BOND
     1    18    23    1
     2    18    22   ar
     3    19    21   ar
     4    20    21   ar
     5    20     1    1
     6     3     8   ar
     7     4     5   ar
     8     6     7   ar
     9     9     7    1
    10     9    10    1
    11    10    11    1
    12    11    12    1
    13    12    14    1
    14    15    14    1
    15    15    16    1
    16    13    14    1
    17    13     9    1
    18    23    24   am
    19    27    24    1
    20    27    28    1
    21    28    33   ar
    22    29    30   ar
    23    31    32   ar
    24     1     3    1
    25    18    19   ar
    26    20    22   ar
    27     3     4   ar
    28     5     6   ar
    29     7     8   ar
    30    23    25    2
    31    28    29   ar
    32    30    31   ar
    33    32    33   ar
    34    16    17    3
    35     1     2    1
    36    24    26    1
