@<TRIPOS>MOLECULE
MolPort-051-656-764 MCULE-2965618442
 29 31 0 0 0
SMALL
GASTEIGER

@<TRIPOS>ATOM
      1 C           7.9438   41.5457    9.7532 C.3     1  UNL1        0.1106
      2 C           8.7501   41.4108   12.1605 C.2     1  UNL1        0.2227
      3 C          10.1789   41.2798   11.7318 C.3     1  UNL1        0.0865
      4 C          10.2758   40.8171   10.2834 C.3     1  UNL1        0.0273
      5 C           9.4267   41.7119    9.3910 C.3     1  UNL1        0.0772
      6 N           7.7162   41.6343   11.1961 N.am    1  UNL1       -0.3009
      7 O           8.4653   41.3901   13.3855 O.2     1  UNL1       -0.2751
      8 H           6.8127   41.8573   11.5174 H       1  UNL1        0.1497
      9 C           7.0731   42.5280    9.0285 C.ar    1  UNL1        0.0243
     10 C           7.6414   43.4953    8.1857 C.ar    1  UNL1       -0.0004
     11 C           6.8251   44.4002    7.5018 C.ar    1  UNL1       -0.0001
     12 C           5.4376   44.3441    7.6565 C.ar    1  UNL1        0.0023
     13 C           4.8658   43.3842    8.4959 C.ar    1  UNL1        0.0294
     14 C           5.6790   42.4777    9.1829 C.ar    1  UNL1        0.1377
     15 F           5.1069   41.5484    9.9885 F       1  UNL1       -0.2044
     16 N           9.6407   41.3477    8.0004 N.3     1  UNL1       -0.2932
     17 H           9.9054   42.1705    7.4588 H       1  UNL1        0.1236
     18 C          10.7162   40.3694    7.9817 C.3     1  UNL1        0.0956
     19 C          12.0100   41.0398    7.6759 C.ar    1  UNL1       -0.0063
     20 C          13.1687   40.6955    8.3809 C.ar    1  UNL1       -0.0017
     21 C          14.3832   41.3180    8.0796 C.ar    1  UNL1        0.0144
     22 C          14.4516   42.2855    7.0710 C.ar    1  UNL1        0.0503
     23 C          13.2876   42.6224    6.3628 C.ar    1  UNL1        0.0144
     24 C          12.0722   42.0005    6.6630 C.ar    1  UNL1       -0.0017
     25 C          15.9790   43.9110    5.8082 C.2     1  UNL1        0.2266
     26 C          17.3605   44.4365    5.6575 C.3     1  UNL1        0.0949
     27 N          15.7160   42.9021    6.7915 N.am    1  UNL1       -0.2839
     28 O          15.0635   44.3610    5.0700 O.2     1  UNL1       -0.2748
     29 H          16.4826   42.6012    7.3309 H       1  UNL1        0.1549
@<TRIPOS>BOND
     1     1     6    1
     2     1     9    1
     3     3     2    1
     4     3     4    1
     5     4     5    1
     6     5    16    1
     7     5     1    1
     8    18    16    1
     9    18    19    1
    10    20    21   ar
    11    22    27    1
    12    22    23   ar
    13    26    25    1
    14    24    19   ar
    15    10    11   ar
    16    12    13   ar
    17    14    15    1
    18    14     9   ar
    19     6     2   am
    20    27    25   am
    21     2     7    2
    22    19    20   ar
    23    21    22   ar
    24    25    28    2
    25    23    24   ar
    26     9    10   ar
    27    11    12   ar
    28    13    14   ar
    29     6     8    1
    30    16    17    1
    31    27    29    1
@<TRIPOS>MOLECULE
MolPort-051-656-764 MCULE-2965618442
 29 31 0 0 0
SMALL
GASTEIGER

@<TRIPOS>ATOM
      1 C           5.7301   40.8666    9.2359 C.3     1  UNL1        0.1106
      2 C           3.2412   41.3150    9.4957 C.2     1  UNL1        0.2227
      3 C           3.4230   41.8207   10.8934 C.3     1  UNL1        0.0865
      4 C           4.7418   41.3374   11.4835 C.3     1  UNL1        0.0273
      5 C           5.8889   41.6654   10.5376 C.3     1  UNL1        0.0772
      6 N           4.3733   40.9585    8.6955 N.am    1  UNL1       -0.3009
      7 O           2.0868   41.2661    8.9986 O.2     1  UNL1       -0.2751
      8 H           4.2330   40.7668    7.7401 H       1  UNL1        0.1497
      9 C           6.7318   41.2757    8.1978 C.ar    1  UNL1        0.0243
     10 C           7.7445   40.3900    7.7989 C.ar    1  UNL1       -0.0004
     11 C           8.6677   40.7706    6.8214 C.ar    1  UNL1       -0.0001
     12 C           8.5848   42.0375    6.2379 C.ar    1  UNL1        0.0023
     13 C           7.5797   42.9246    6.6323 C.ar    1  UNL1        0.0294
     14 C           6.6546   42.5482    7.6109 C.ar    1  UNL1        0.1377
     15 F           5.6816   43.4193    7.9771 F       1  UNL1       -0.2044
     16 N           7.1506   41.3278   11.1752 N.3     1  UNL1       -0.2932
     17 H           7.5641   40.5115   10.7246 H       1  UNL1        0.1236
     18 C           8.0230   42.4805   11.0201 C.3     1  UNL1        0.0956
     19 C           9.3832   42.0384   10.6062 C.ar    1  UNL1       -0.0063
     20 C          10.1006   42.7621    9.6472 C.ar    1  UNL1       -0.0017
     21 C          11.3827   42.3504    9.2732 C.ar    1  UNL1        0.0144
     22 C          11.9599   41.2164    9.8552 C.ar    1  UNL1        0.0503
     23 C          11.2384   40.4979   10.8212 C.ar    1  UNL1        0.0144
     24 C           9.9560   40.9085   11.1964 C.ar    1  UNL1       -0.0017
     25 C          14.2116   40.0401   10.1961 C.2     1  UNL1        0.2266
     26 C          15.5405   39.7316    9.6078 C.3     1  UNL1        0.0949
     27 N          13.2774   40.8254    9.4448 N.am    1  UNL1       -0.2839
     28 O          13.9290   39.6064   11.3441 O.2     1  UNL1       -0.2748
     29 H          13.5704   41.1278    8.5549 H       1  UNL1        0.1549
@<TRIPOS>BOND
     1     1     6    1
     2     1     9    1
     3     3     2    1
     4     3     4    1
     5     4     5    1
     6     5    16    1
     7     5     1    1
     8    18    16    1
     9    18    19    1
    10    20    21   ar
    11    22    27    1
    12    22    23   ar
    13    26    25    1
    14    24    19   ar
    15    10    11   ar
    16    12    13   ar
    17    14    15    1
    18    14     9   ar
    19     6     2   am
    20    27    25   am
    21     2     7    2
    22    19    20   ar
    23    21    22   ar
    24    25    28    2
    25    23    24   ar
    26     9    10   ar
    27    11    12   ar
    28    13    14   ar
    29     6     8    1
    30    16    17    1
    31    27    29    1
@<TRIPOS>MOLECULE
MolPort-051-656-764 MCULE-2965618442
 29 31 0 0 0
SMALL
GASTEIGER

@<TRIPOS>ATOM
      1 C           7.3587   42.1177    8.7552 C.3     1  UNL1        0.1106
      2 C           7.4492   42.7418    6.2923 C.2     1  UNL1        0.2227
      3 C           8.6479   41.8746    6.0608 C.3     1  UNL1        0.0865
      4 C           9.3675   41.5742    7.3696 C.3     1  UNL1        0.0273
      5 C           8.3818   41.0309    8.3951 C.3     1  UNL1        0.0772
      6 N           6.7975   42.7611    7.5667 N.am    1  UNL1       -0.3009
      7 O           6.9719   43.4085    5.3385 O.2     1  UNL1       -0.2751
      8 H           5.9342   43.2274    7.6471 H       1  UNL1        0.1497
      9 C           6.2599   41.5903    9.6285 C.ar    1  UNL1        0.0243
     10 C           5.0843   41.0768    9.0599 C.ar    1  UNL1       -0.0004
     11 C           4.0684   40.5740    9.8771 C.ar    1  UNL1       -0.0001
     12 C           4.2210   40.5819   11.2660 C.ar    1  UNL1        0.0023
     13 C           5.3887   41.0938   11.8382 C.ar    1  UNL1        0.0294
     14 C           6.4071   41.5989   11.0242 C.ar    1  UNL1        0.1377
     15 F           7.5365   42.0859   11.5961 F       1  UNL1       -0.2044
     16 N           9.1049   40.6172    9.5860 N.3     1  UNL1       -0.2932
     17 H           9.5780   39.7291    9.4185 H       1  UNL1        0.1236
     18 C          10.0801   41.6576    9.8697 C.3     1  UNL1        0.0956
     19 C          11.4280   41.0547   10.0607 C.ar    1  UNL1       -0.0063
     20 C          11.6805   40.2198   11.1549 C.ar    1  UNL1       -0.0017
     21 C          12.9436   39.6452   11.3212 C.ar    1  UNL1        0.0144
     22 C          13.9627   39.8961   10.3958 C.ar    1  UNL1        0.0503
     23 C          13.7021   40.7292    9.2967 C.ar    1  UNL1        0.0144
     24 C          12.4392   41.3045    9.1290 C.ar    1  UNL1       -0.0017
     25 C          15.8322   38.2396    9.8203 C.2     1  UNL1        0.2266
     26 C          17.1798   37.7301   10.1830 C.3     1  UNL1        0.0949
     27 N          15.2456   39.2886   10.6010 N.am    1  UNL1       -0.2839
     28 O          15.2289   37.7415    8.8336 O.2     1  UNL1       -0.2748
     29 H          15.7785   39.6272   11.3565 H       1  UNL1        0.1549
@<TRIPOS>BOND
     1     1     6    1
     2     1     9    1
     3     3     2    1
     4     3     4    1
     5     4     5    1
     6     5    16    1
     7     5     1    1
     8    18    16    1
     9    18    19    1
    10    20    21   ar
    11    22    27    1
    12    22    23   ar
    13    26    25    1
    14    24    19   ar
    15    10    11   ar
    16    12    13   ar
    17    14    15    1
    18    14     9   ar
    19     6     2   am
    20    27    25   am
    21     2     7    2
    22    19    20   ar
    23    21    22   ar
    24    25    28    2
    25    23    24   ar
    26     9    10   ar
    27    11    12   ar
    28    13    14   ar
    29     6     8    1
    30    16    17    1
    31    27    29    1
@<TRIPOS>MOLECULE
MolPort-051-656-764 MCULE-2965618442
 29 31 0 0 0
SMALL
GASTEIGER

@<TRIPOS>ATOM
      1 C           8.7009   41.0888    9.5246 C.3     1  UNL1        0.1106
      2 C           8.6086   41.4992   12.0318 C.2     1  UNL1        0.2227
      3 C          10.0991   41.4233   12.1540 C.3     1  UNL1        0.0865
      4 C          10.7103   40.7002   10.9604 C.3     1  UNL1        0.0273
      5 C          10.2125   41.3210    9.6623 C.3     1  UNL1        0.0772
      6 N           7.9771   41.4331   10.7489 N.am    1  UNL1       -0.3009
      7 O           7.9104   41.6893   13.0607 O.2     1  UNL1       -0.2751
      8 H           7.0140   41.6277   10.6875 H       1  UNL1        0.1497
      9 C           8.1219   41.8254    8.3540 C.ar    1  UNL1        0.0243
     10 C           8.6146   41.6023    7.0591 C.ar    1  UNL1       -0.0004
     11 C           8.0629   42.2811    5.9694 C.ar    1  UNL1       -0.0001
     12 C           7.0171   43.1864    6.1671 C.ar    1  UNL1        0.0023
     13 C           6.5235   43.4143    7.4544 C.ar    1  UNL1        0.0294
     14 C           7.0734   42.7380    8.5477 C.ar    1  UNL1        0.1377
     15 F           6.5778   42.9664    9.7894 F       1  UNL1       -0.2044
     16 N          10.9109   40.7163    8.5403 N.3     1  UNL1       -0.2932
     17 H          11.8426   41.1208    8.4477 H       1  UNL1        0.1236
     18 C          11.0091   39.2933    8.8225 C.3     1  UNL1        0.0956
     19 C          12.4362   38.9048    8.9935 C.ar    1  UNL1       -0.0063
     20 C          13.4401   39.8797    8.9866 C.ar    1  UNL1       -0.0017
     21 C          14.7766   39.5105    9.1619 C.ar    1  UNL1        0.0144
     22 C          15.1212   38.1673    9.3487 C.ar    1  UNL1        0.0503
     23 C          14.1096   37.1944    9.3611 C.ar    1  UNL1        0.0144
     24 C          12.7724   37.5621    9.1860 C.ar    1  UNL1       -0.0017
     25 C          17.1442   37.4495   10.7496 C.2     1  UNL1        0.2266
     26 C          18.5954   37.1311   10.7427 C.3     1  UNL1        0.0949
     27 N          16.5036   37.8280    9.5247 N.am    1  UNL1       -0.2839
     28 O          16.5023   37.3811   11.8308 O.2     1  UNL1       -0.2748
     29 H          17.0712   37.8582    8.7209 H       1  UNL1        0.1549
@<TRIPOS>BOND
     1     1     6    1
     2     1     9    1
     3     3     2    1
     4     3     4    1
     5     4     5    1
     6     5    16    1
     7     5     1    1
     8    18    16    1
     9    18    19    1
    10    20    21   ar
    11    22    27    1
    12    22    23   ar
    13    26    25    1
    14    24    19   ar
    15    10    11   ar
    16    12    13   ar
    17    14    15    1
    18    14     9   ar
    19     6     2   am
    20    27    25   am
    21     2     7    2
    22    19    20   ar
    23    21    22   ar
    24    25    28    2
    25    23    24   ar
    26     9    10   ar
    27    11    12   ar
    28    13    14   ar
    29     6     8    1
    30    16    17    1
    31    27    29    1
@<TRIPOS>MOLECULE
MolPort-051-656-764 MCULE-2965618442
 29 31 0 0 0
SMALL
GASTEIGER

@<TRIPOS>ATOM
      1 C          13.7051   41.2327    8.2634 C.3     1  UNL1        0.1106
      2 C          14.7082   39.1723    9.3642 C.2     1  UNL1        0.2227
      3 C          13.6315   38.2881    8.8153 C.3     1  UNL1        0.0865
      4 C          12.4074   39.1011    8.4127 C.3     1  UNL1        0.0273
      5 C          12.8180   40.2436    7.4938 C.3     1  UNL1        0.0772
      6 N          14.7711   40.5560    9.0029 N.am    1  UNL1       -0.3009
      7 O          15.6034   38.6784   10.0968 O.2     1  UNL1       -0.2751
      8 H          15.5662   41.0749    9.2634 H       1  UNL1        0.1497
      9 C          14.2828   42.2869    7.3671 C.ar    1  UNL1        0.0243
     10 C          13.4622   42.9805    6.4645 C.ar    1  UNL1       -0.0004
     11 C          14.0023   43.9715    5.6406 C.ar    1  UNL1       -0.0001
     12 C          15.3644   44.2744    5.7133 C.ar    1  UNL1        0.0023
     13 C          16.1871   43.5858    6.6087 C.ar    1  UNL1        0.0294
     14 C          15.6509   42.5927    7.4342 C.ar    1  UNL1        0.1377
     15 F          16.4625   41.9388    8.3021 F       1  UNL1       -0.2044
     16 N          11.6281   40.9210    7.0064 N.3     1  UNL1       -0.2932
     17 H          11.6503   40.9805    5.9884 H       1  UNL1        0.1236
     18 C          10.4866   40.1296    7.4364 C.3     1  UNL1        0.0956
     19 C           9.2426   40.9437    7.3561 C.ar    1  UNL1       -0.0063
     20 C           8.2367   40.6095    6.4425 C.ar    1  UNL1       -0.0017
     21 C           7.0649   41.3688    6.3816 C.ar    1  UNL1        0.0144
     22 C           6.8864   42.4644    7.2335 C.ar    1  UNL1        0.0503
     23 C           7.8958   42.7912    8.1523 C.ar    1  UNL1        0.0144
     24 C           9.0683   42.0327    8.2144 C.ar    1  UNL1       -0.0017
     25 C           5.3388   44.4044    7.8751 C.2     1  UNL1        0.2266
     26 C           4.0233   45.0563    7.6476 C.3     1  UNL1        0.0949
     27 N           5.6704   43.2193    7.1406 N.am    1  UNL1       -0.2839
     28 O           6.1395   44.9041    8.7086 O.2     1  UNL1       -0.2748
     29 H           4.9934   42.8892    6.5066 H       1  UNL1        0.1549
@<TRIPOS>BOND
     1     1     6    1
     2     1     9    1
     3     3     2    1
     4     3     4    1
     5     4     5    1
     6     5    16    1
     7     5     1    1
     8    18    16    1
     9    18    19    1
    10    20    21   ar
    11    22    27    1
    12    22    23   ar
    13    26    25    1
    14    24    19   ar
    15    10    11   ar
    16    12    13   ar
    17    14    15    1
    18    14     9   ar
    19     6     2   am
    20    27    25   am
    21     2     7    2
    22    19    20   ar
    23    21    22   ar
    24    25    28    2
    25    23    24   ar
    26     9    10   ar
    27    11    12   ar
    28    13    14   ar
    29     6     8    1
    30    16    17    1
    31    27    29    1
@<TRIPOS>MOLECULE
MolPort-051-656-764 MCULE-2965618442
 29 31 0 0 0
SMALL
GASTEIGER

@<TRIPOS>ATOM
      1 C           8.5944   41.1973    7.7865 C.3     1  UNL1        0.1106
      2 C           7.5924   43.4759    8.3035 C.2     1  UNL1        0.2227
      3 C           8.4060   43.6104    9.5534 C.3     1  UNL1        0.0865
      4 C           8.9035   42.2522   10.0319 C.3     1  UNL1        0.0273
      5 C           9.6060   41.5228    8.8949 C.3     1  UNL1        0.0772
      6 N           7.7763   42.3569    7.4299 N.am    1  UNL1       -0.3009
      7 O           6.7873   44.3885    7.9858 O.2     1  UNL1       -0.2751
      8 H           7.3330   42.3680    6.5509 H       1  UNL1        0.1497
      9 C           9.2580   40.6342    6.5655 C.ar    1  UNL1        0.0243
     10 C          10.5016   41.1266    6.1411 C.ar    1  UNL1       -0.0004
     11 C          11.1227   40.5897    5.0103 C.ar    1  UNL1       -0.0001
     12 C          10.5049   39.5590    4.2973 C.ar    1  UNL1        0.0023
     13 C           9.2656   39.0658    4.7138 C.ar    1  UNL1        0.0294
     14 C           8.6402   39.6009    5.8441 C.ar    1  UNL1        0.1377
     15 F           7.4404   39.1059    6.2381 F       1  UNL1       -0.2044
     16 N          10.1969   40.2957    9.4022 N.3     1  UNL1       -0.2932
     17 H          10.8535   39.9146    8.7210 H       1  UNL1        0.1236
     18 C          10.8942   40.6402   10.6307 C.3     1  UNL1        0.0956
     19 C          12.3245   40.2381   10.5349 C.ar    1  UNL1       -0.0063
     20 C          12.9253   39.5110   11.5686 C.ar    1  UNL1       -0.0017
     21 C          14.2644   39.1239   11.4667 C.ar    1  UNL1        0.0144
     22 C          15.0128   39.4561   10.3320 C.ar    1  UNL1        0.0503
     23 C          14.4033   40.1800    9.2954 C.ar    1  UNL1        0.0144
     24 C          13.0641   40.5677    9.3959 C.ar    1  UNL1       -0.0017
     25 C          17.0002   37.9907   11.0197 C.2     1  UNL1        0.2266
     26 C          18.4430   37.6999   10.8176 C.3     1  UNL1        0.0949
     27 N          16.3841   39.0415   10.2646 N.am    1  UNL1       -0.2839
     28 O          16.3436   37.3092   11.8505 O.2     1  UNL1       -0.2748
     29 H          16.9621   39.5292    9.6343 H       1  UNL1        0.1549
@<TRIPOS>BOND
     1     1     6    1
     2     1     9    1
     3     3     2    1
     4     3     4    1
     5     4     5    1
     6     5    16    1
     7     5     1    1
     8    18    16    1
     9    18    19    1
    10    20    21   ar
    11    22    27    1
    12    22    23   ar
    13    26    25    1
    14    24    19   ar
    15    10    11   ar
    16    12    13   ar
    17    14    15    1
    18    14     9   ar
    19     6     2   am
    20    27    25   am
    21     2     7    2
    22    19    20   ar
    23    21    22   ar
    24    25    28    2
    25    23    24   ar
    26     9    10   ar
    27    11    12   ar
    28    13    14   ar
    29     6     8    1
    30    16    17    1
    31    27    29    1
@<TRIPOS>MOLECULE
MolPort-051-656-764 MCULE-2965618442
 29 31 0 0 0
SMALL
GASTEIGER

@<TRIPOS>ATOM
      1 C           6.1296   41.7087    8.1807 C.3     1  UNL1        0.1106
      2 C           6.6150   39.8942    6.4675 C.2     1  UNL1        0.2227
      3 C           8.0879   39.9667    6.7278 C.3     1  UNL1        0.0865
      4 C           8.4630   41.2875    7.3882 C.3     1  UNL1        0.0273
      5 C           7.5912   41.5250    8.6138 C.3     1  UNL1        0.0772
      6 N           5.6972   40.6688    7.2464 N.am    1  UNL1       -0.3009
      7 O           6.1766   39.0953    5.6006 O.2     1  UNL1       -0.2751
      8 H           4.7332   40.4943    7.1493 H       1  UNL1        0.1497
      9 C           5.1981   41.7733    9.3539 C.ar    1  UNL1        0.0243
     10 C           3.9057   42.3001    9.2075 C.ar    1  UNL1       -0.0004
     11 C           3.0363   42.3459   10.3005 C.ar    1  UNL1       -0.0001
     12 C           3.4530   41.8667   11.5451 C.ar    1  UNL1        0.0023
     13 C           4.7395   41.3428   11.6976 C.ar    1  UNL1        0.0294
     14 C           5.6130   41.2960   10.6068 C.ar    1  UNL1        0.1377
     15 F           6.8558   40.7783   10.7711 F       1  UNL1       -0.2044
     16 N           8.0543   42.7130    9.3113 N.3     1  UNL1       -0.2932
     17 H           8.0647   42.5474   10.3177 H       1  UNL1        0.1236
     18 C           9.4013   42.9832    8.8350 C.3     1  UNL1        0.0956
     19 C          10.3741   42.0907    9.5233 C.ar    1  UNL1       -0.0063
     20 C          11.6054   41.7945    8.9283 C.ar    1  UNL1       -0.0017
     21 C          12.5206   40.9676    9.5857 C.ar    1  UNL1        0.0144
     22 C          12.2158   40.4333   10.8425 C.ar    1  UNL1        0.0503
     23 C          10.9819   40.7389   11.4375 C.ar    1  UNL1        0.0144
     24 C          10.0657   41.5658   10.7812 C.ar    1  UNL1       -0.0017
     25 C          14.5256   39.3427   11.0561 C.2     1  UNL1        0.2266
     26 C          15.3874   38.4313   11.8522 C.3     1  UNL1        0.0949
     27 N          13.1805   39.5887   11.4852 N.am    1  UNL1       -0.2839
     28 O          14.9916   39.8833   10.0186 O.2     1  UNL1       -0.2748
     29 H          12.8885   39.1304   12.3061 H       1  UNL1        0.1549
@<TRIPOS>BOND
     1     1     6    1
     2     1     9    1
     3     3     2    1
     4     3     4    1
     5     4     5    1
     6     5    16    1
     7     5     1    1
     8    18    16    1
     9    18    19    1
    10    20    21   ar
    11    22    27    1
    12    22    23   ar
    13    26    25    1
    14    24    19   ar
    15    10    11   ar
    16    12    13   ar
    17    14    15    1
    18    14     9   ar
    19     6     2   am
    20    27    25   am
    21     2     7    2
    22    19    20   ar
    23    21    22   ar
    24    25    28    2
    25    23    24   ar
    26     9    10   ar
    27    11    12   ar
    28    13    14   ar
    29     6     8    1
    30    16    17    1
    31    27    29    1
@<TRIPOS>MOLECULE
MolPort-051-656-764 MCULE-2965618442
 29 31 0 0 0
SMALL
GASTEIGER

@<TRIPOS>ATOM
      1 C          13.2599   38.7323    8.1701 C.3     1  UNL1        0.1106
      2 C          14.6186   40.8369    8.6034 C.2     1  UNL1        0.2227
      3 C          13.5176   41.7171    8.0980 C.3     1  UNL1        0.0865
      4 C          12.5485   40.9334    7.2218 C.3     1  UNL1        0.0273
      5 C          12.0752   39.6848    7.9535 C.3     1  UNL1        0.0772
      6 N          14.4286   39.4226    8.7168 N.am    1  UNL1       -0.3009
      7 O          15.6968   41.3539    8.9939 O.2     1  UNL1       -0.2751
      8 H          15.1141   38.8913    9.1827 H       1  UNL1        0.1497
      9 C          12.8934   37.5649    9.0369 C.ar    1  UNL1        0.0243
     10 C          11.7110   37.5838    9.7923 C.ar    1  UNL1       -0.0004
     11 C          11.3667   36.4881   10.5883 C.ar    1  UNL1       -0.0001
     12 C          12.2014   35.3685   10.6345 C.ar    1  UNL1        0.0023
     13 C          13.3812   35.3446    9.8860 C.ar    1  UNL1        0.0294
     14 C          13.7300   36.4393    9.0890 C.ar    1  UNL1        0.1377
     15 F          14.8755   36.3965    8.3639 F       1  UNL1       -0.2044
     16 N          11.0471   39.0254    7.1657 N.3     1  UNL1       -0.2932
     17 H          10.3701   38.5734    7.7802 H       1  UNL1        0.1236
     18 C          10.3949   40.0573    6.3758 C.3     1  UNL1        0.0956
     19 C           8.9967   40.2535    6.8483 C.ar    1  UNL1       -0.0063
     20 C           8.7438   40.9297    8.0470 C.ar    1  UNL1       -0.0017
     21 C           7.4285   41.1234    8.4783 C.ar    1  UNL1        0.0144
     22 C           6.3563   40.6475    7.7157 C.ar    1  UNL1        0.0503
     23 C           6.6155   39.9756    6.5110 C.ar    1  UNL1        0.0144
     24 C           7.9304   39.7811    6.0783 C.ar    1  UNL1       -0.0017
     25 C           4.5888   41.8936    9.0917 C.2     1  UNL1        0.2266
     26 C           3.1561   41.9665    9.4780 C.3     1  UNL1        0.0949
     27 N           5.0210   40.8654    8.1917 N.am    1  UNL1       -0.2839
     28 O           5.3983   42.7362    9.5612 O.2     1  UNL1       -0.2748
     29 H           4.3297   40.2444    7.8666 H       1  UNL1        0.1549
@<TRIPOS>BOND
     1     1     6    1
     2     1     9    1
     3     3     2    1
     4     3     4    1
     5     4     5    1
     6     5    16    1
     7     5     1    1
     8    18    16    1
     9    18    19    1
    10    20    21   ar
    11    22    27    1
    12    22    23   ar
    13    26    25    1
    14    24    19   ar
    15    10    11   ar
    16    12    13   ar
    17    14    15    1
    18    14     9   ar
    19     6     2   am
    20    27    25   am
    21     2     7    2
    22    19    20   ar
    23    21    22   ar
    24    25    28    2
    25    23    24   ar
    26     9    10   ar
    27    11    12   ar
    28    13    14   ar
    29     6     8    1
    30    16    17    1
    31    27    29    1
@<TRIPOS>MOLECULE
MolPort-051-656-764 MCULE-2965618442
 29 31 0 0 0
SMALL
GASTEIGER

@<TRIPOS>ATOM
      1 C           9.6316   40.6711    8.2370 C.3     1  UNL1        0.1106
      2 C           7.0940   40.8073    8.1657 C.2     1  UNL1        0.2227
      3 C           7.0677   40.5548    6.6899 C.3     1  UNL1        0.0865
      4 C           8.4203   40.8590    6.0581 C.3     1  UNL1        0.0273
      5 C           9.5238   40.1238    6.8064 C.3     1  UNL1        0.0772
      6 N           8.3263   40.7598    8.8924 N.am    1  UNL1       -0.3009
      7 O           6.0142   40.9973    8.7821 O.2     1  UNL1       -0.2751
      8 H           8.2942   40.7880    9.8760 H       1  UNL1        0.1497
      9 C          10.5814   39.8705    9.0767 C.ar    1  UNL1        0.0243
     10 C          10.7018   38.4851    8.8892 C.ar    1  UNL1       -0.0004
     11 C          11.5981   37.7450    9.6649 C.ar    1  UNL1       -0.0001
     12 C          12.3781   38.3843   10.6320 C.ar    1  UNL1        0.0023
     13 C          12.2612   39.7634   10.8247 C.ar    1  UNL1        0.0294
     14 C          11.3649   40.5076   10.0514 C.ar    1  UNL1        0.1377
     15 F          11.2690   41.8463   10.2473 F       1  UNL1       -0.2044
     16 N          10.7852   40.3093    6.1087 N.3     1  UNL1       -0.2932
     17 H          10.7188   39.9408    5.1599 H       1  UNL1        0.1236
     18 C          11.0404   41.7403    6.0727 C.3     1  UNL1        0.0956
     19 C          12.4571   42.0148    6.4394 C.ar    1  UNL1       -0.0063
     20 C          13.1547   43.0635    5.8298 C.ar    1  UNL1       -0.0017
     21 C          14.4799   43.3255    6.1884 C.ar    1  UNL1        0.0144
     22 C          15.1176   42.5459    7.1598 C.ar    1  UNL1        0.0503
     23 C          14.4111   41.4994    7.7726 C.ar    1  UNL1        0.0144
     24 C          13.0856   41.2362    7.4150 C.ar    1  UNL1       -0.0017
     25 C          17.2169   44.0164    7.1299 C.2     1  UNL1        0.2266
     26 C          18.6272   44.1574    7.5754 C.3     1  UNL1        0.0949
     27 N          16.4782   42.8455    7.5004 N.am    1  UNL1       -0.2839
     28 O          16.6951   44.9276    6.4348 O.2     1  UNL1       -0.2748
     29 H          16.9540   42.1776    8.0452 H       1  UNL1        0.1549
@<TRIPOS>BOND
     1     1     6    1
     2     1     9    1
     3     3     2    1
     4     3     4    1
     5     4     5    1
     6     5    16    1
     7     5     1    1
     8    18    16    1
     9    18    19    1
    10    20    21   ar
    11    22    27    1
    12    22    23   ar
    13    26    25    1
    14    24    19   ar
    15    10    11   ar
    16    12    13   ar
    17    14    15    1
    18    14     9   ar
    19     6     2   am
    20    27    25   am
    21     2     7    2
    22    19    20   ar
    23    21    22   ar
    24    25    28    2
    25    23    24   ar
    26     9    10   ar
    27    11    12   ar
    28    13    14   ar
    29     6     8    1
    30    16    17    1
    31    27    29    1
@<TRIPOS>MOLECULE
MolPort-051-656-764 MCULE-2965618442
 29 31 0 0 0
SMALL
GASTEIGER

@<TRIPOS>ATOM
      1 C           8.6364   41.3829    9.1954 C.3     1  UNL1        0.1106
      2 C           9.1870   43.7601    9.9087 C.2     1  UNL1        0.2227
      3 C          10.5112   43.3429   10.4698 C.3     1  UNL1        0.0865
      4 C          10.5409   41.8452   10.7476 C.3     1  UNL1        0.0273
      5 C          10.1079   41.0750    9.5075 C.3     1  UNL1        0.0772
      6 N           8.3572   42.8191    9.2194 N.am    1  UNL1       -0.3009
      7 O           8.8315   44.9642    9.9866 O.2     1  UNL1       -0.2751
      8 H           7.5642   43.1527    8.7408 H       1  UNL1        0.1497
      9 C           8.2018   40.7908    7.8881 C.ar    1  UNL1        0.0243
     10 C           9.1371   40.5523    6.8696 C.ar    1  UNL1       -0.0004
     11 C           8.7297   39.9880    5.6579 C.ar    1  UNL1       -0.0001
     12 C           7.3866   39.6596    5.4569 C.ar    1  UNL1        0.0023
     13 C           6.4501   39.8965    6.4667 C.ar    1  UNL1        0.0294
     14 C           6.8533   40.4620    7.6802 C.ar    1  UNL1        0.1377
     15 F           5.9322   40.6792    8.6519 F       1  UNL1       -0.2044
     16 N          10.2772   39.6507    9.7417 N.3     1  UNL1       -0.2932
     17 H           9.3699   39.1845    9.7397 H       1  UNL1        0.1236
     18 C          11.1040   39.1409    8.6598 C.3     1  UNL1        0.0956
     19 C          12.4124   39.8511    8.6399 C.ar    1  UNL1       -0.0063
     20 C          13.3651   39.6060    9.6351 C.ar    1  UNL1       -0.0017
     21 C          14.5972   40.2651    9.6032 C.ar    1  UNL1        0.0144
     22 C          14.8893   41.1703    8.5770 C.ar    1  UNL1        0.0503
     23 C          13.9325   41.4076    7.5779 C.ar    1  UNL1        0.0144
     24 C          12.6998   40.7491    7.6084 C.ar    1  UNL1       -0.0017
     25 C          16.5659   42.9221    7.7461 C.2     1  UNL1        0.2266
     26 C          17.9362   43.4785    7.8875 C.3     1  UNL1        0.0949
     27 N          16.1643   41.8272    8.5790 N.am    1  UNL1       -0.2839
     28 O          15.7812   43.4219    6.8974 O.2     1  UNL1       -0.2748
     29 H          16.8329   41.4910    9.2187 H       1  UNL1        0.1549
@<TRIPOS>BOND
     1     1     6    1
     2     1     9    1
     3     3     2    1
     4     3     4    1
     5     4     5    1
     6     5    16    1
     7     5     1    1
     8    18    16    1
     9    18    19    1
    10    20    21   ar
    11    22    27    1
    12    22    23   ar
    13    26    25    1
    14    24    19   ar
    15    10    11   ar
    16    12    13   ar
    17    14    15    1
    18    14     9   ar
    19     6     2   am
    20    27    25   am
    21     2     7    2
    22    19    20   ar
    23    21    22   ar
    24    25    28    2
    25    23    24   ar
    26     9    10   ar
    27    11    12   ar
    28    13    14   ar
    29     6     8    1
    30    16    17    1
    31    27    29    1
