@<TRIPOS>MOLECULE
MolPort-035-706-964 CSSS03437789218 MCULE-3222529105 PubChem-91938289
 29 31 0 0 0
SMALL
GASTEIGER

@<TRIPOS>ATOM
      1 C          18.2331   34.3702   15.0775 C.3     1  UNL1        0.2880
      2 C          18.9357   34.9507   16.2966 C.3     1  UNL1        0.0650
      3 C          18.1761   35.5693   12.8665 C.ar    1  UNL1        0.1542
      4 C          17.6876   36.6475   12.1231 C.ar    1  UNL1        0.0529
      5 C          17.9830   36.7623   10.7600 C.ar    1  UNL1        0.0537
      6 C          18.7806   35.7842   10.1456 C.ar    1  UNL1        0.0162
      7 C          19.2742   34.7071   10.8866 C.ar    1  UNL1        0.0190
      8 C          18.9709   34.6007   12.2459 C.ar    1  UNL1        0.0850
      9 C          19.1639   33.3865   14.3973 C.2     1  UNL1        0.2732
     10 O          17.8694   35.4701   14.2278 O.3     1  UNL1       -0.4618
     11 O          19.6521   32.4248   15.0497 O.2     1  UNL1       -0.2704
     12 N          19.4807   33.5157   13.0114 N.am    1  UNL1       -0.2783
     13 H          20.0590   32.8457   12.5802 H       1  UNL1        0.1551
     14 C          17.8504   39.2606   10.1852 C.2     1  UNL1        0.2495
     15 O          18.7573   39.5879   10.9982 O.2     1  UNL1       -0.2698
     16 N          17.4648   37.8857   10.0350 N.am    1  UNL1       -0.2803
     17 H          16.7712   37.6940    9.3631 H       1  UNL1        0.1552
     18 C          17.1830   40.2979    9.3788 C.ar    1  UNL1        0.0534
     19 C          15.7979   40.2470    9.1648 C.ar    1  UNL1        0.0045
     20 C          15.1635   41.2307    8.4003 C.ar    1  UNL1       -0.0002
     21 C          15.9098   42.2729    7.8443 C.ar    1  UNL1       -0.0043
     22 C          17.2902   42.3320    8.0531 C.ar    1  UNL1       -0.0217
     23 C          18.0843   43.4394    7.4609 C.3     1  UNL1        0.0310
     24 C          17.9246   41.3484    8.8175 C.ar    1  UNL1        0.0003
     25 C          16.9807   33.6511   15.4999 C.2     1  UNL1        0.3623
     26 O          15.9753   33.6217   14.7359 O.2     1  UNL1       -0.2457
     27 O          16.9173   33.0693   16.7683 O.3     1  UNL1       -0.4458
     28 C          18.4994   31.3605   17.3260 C.3     1  UNL1        0.0513
     29 C          17.0635   31.6711   16.9611 C.3     1  UNL1        0.2087
@<TRIPOS>BOND
     1    28    29    1
     2    29    27    1
     3    25    27    1
     4     1    25    1
     5     1     2    1
     6     1    10    1
     7     1     9    1
     8     3    10    1
     9     4     5   ar
    10     5    16    1
    11    14    18    1
    12    19    20   ar
    13    21    22   ar
    14    23    22    1
    15    24    18   ar
    16     6     7   ar
    17     8    12    1
    18     8     3   ar
    19    16    14   am
    20    12     9   am
    21    25    26    2
    22     3     4   ar
    23     5     6   ar
    24    14    15    2
    25    18    19   ar
    26    20    21   ar
    27    22    24   ar
    28     7     8   ar
    29     9    11    2
    30    16    17    1
    31    12    13    1
@<TRIPOS>MOLECULE
MolPort-035-706-964 CSSS03437789218 MCULE-3222529105 PubChem-91938289
 29 31 0 0 0
SMALL
GASTEIGER

@<TRIPOS>ATOM
      1 C          12.7178   40.5467    7.6389 C.3     1  UNL1        0.2880
      2 C          12.9655   39.2580    6.8676 C.3     1  UNL1        0.0650
      3 C          10.8344   40.7787    9.2907 C.ar    1  UNL1        0.1542
      4 C           9.4555   40.8722    9.4999 C.ar    1  UNL1        0.0529
      5 C           8.9448   41.0811   10.7860 C.ar    1  UNL1        0.0537
      6 C           9.8327   41.1913   11.8676 C.ar    1  UNL1        0.0162
      7 C          11.2116   41.0941   11.6628 C.ar    1  UNL1        0.0190
      8 C          11.7107   40.8883   10.3746 C.ar    1  UNL1        0.0850
      9 C          13.6353   40.5806    8.8446 C.2     1  UNL1        0.2732
     10 O          11.3270   40.5712    7.9978 O.3     1  UNL1       -0.4618
     11 O          14.8810   40.4602    8.6935 O.2     1  UNL1       -0.2704
     12 N          13.1119   40.7737   10.1585 N.am    1  UNL1       -0.2783
     13 H          13.7281   40.8281   10.9244 H       1  UNL1        0.1551
     14 C           6.5543   41.5121    9.9558 C.2     1  UNL1        0.2495
     15 O           6.9121   41.7444    8.7689 O.2     1  UNL1       -0.2698
     16 N           7.5238   41.1678   10.9574 N.am    1  UNL1       -0.2803
     17 H           7.1761   40.9703   11.8570 H       1  UNL1        0.1552
     18 C           5.1280   41.5906   10.3174 C.ar    1  UNL1        0.0534
     19 C           4.7453   41.9538   11.6170 C.ar    1  UNL1        0.0045
     20 C           3.3924   42.0290   11.9612 C.ar    1  UNL1       -0.0002
     21 C           2.4119   41.7417   11.0080 C.ar    1  UNL1       -0.0043
     22 C           2.7840   41.3798    9.7106 C.ar    1  UNL1       -0.0217
     23 C           1.7416   41.0730    8.6973 C.3     1  UNL1        0.0310
     24 C           4.1368   41.3047    9.3664 C.ar    1  UNL1        0.0003
     25 C          13.0120   41.7344    6.7633 C.2     1  UNL1        0.3623
     26 O          12.0786   42.3091    6.1357 O.2     1  UNL1       -0.2457
     27 O          14.3333   42.1580    6.6013 O.3     1  UNL1       -0.4458
     28 C          15.8319   43.8589    5.8298 C.3     1  UNL1        0.0513
     29 C          14.7167   43.5108    6.7924 C.3     1  UNL1        0.2087
@<TRIPOS>BOND
     1    28    29    1
     2    29    27    1
     3    25    27    1
     4     1    25    1
     5     1     2    1
     6     1    10    1
     7     1     9    1
     8     3    10    1
     9     4     5   ar
    10     5    16    1
    11    14    18    1
    12    19    20   ar
    13    21    22   ar
    14    23    22    1
    15    24    18   ar
    16     6     7   ar
    17     8    12    1
    18     8     3   ar
    19    16    14   am
    20    12     9   am
    21    25    26    2
    22     3     4   ar
    23     5     6   ar
    24    14    15    2
    25    18    19   ar
    26    20    21   ar
    27    22    24   ar
    28     7     8   ar
    29     9    11    2
    30    16    17    1
    31    12    13    1
@<TRIPOS>MOLECULE
MolPort-035-706-964 CSSS03437789218 MCULE-3222529105 PubChem-91938289
 29 31 0 0 0
SMALL
GASTEIGER

@<TRIPOS>ATOM
      1 C          10.6054   40.1220    5.8265 C.3     1  UNL1        0.2880
      2 C          11.2145   38.7283    5.8859 C.3     1  UNL1        0.0650
      3 C           8.8950   40.9090    7.4952 C.ar    1  UNL1        0.1542
      4 C           7.5883   40.8061    7.9810 C.ar    1  UNL1        0.0529
      5 C           7.1423   41.6504    9.0040 C.ar    1  UNL1        0.0537
      6 C           8.0234   42.6011    9.5426 C.ar    1  UNL1        0.0162
      7 C           9.3317   42.7041    9.0624 C.ar    1  UNL1        0.0190
      8 C           9.7657   41.8582    8.0391 C.ar    1  UNL1        0.0850
      9 C          11.5503   41.0990    6.4968 C.2     1  UNL1        0.2732
     10 O           9.3231   40.0575    6.4711 O.3     1  UNL1       -0.4618
     11 O          12.7460   41.1887    6.1079 O.2     1  UNL1       -0.2704
     12 N          11.0999   41.9460    7.5540 N.am    1  UNL1       -0.2783
     13 H          11.7202   42.5987    7.9520 H       1  UNL1        0.1551
     14 C           4.9819   42.5281   10.0772 C.2     1  UNL1        0.2495
     15 O           5.4184   43.7041   10.2086 O.2     1  UNL1       -0.2698
     16 N           5.7954   41.5094    9.4755 N.am    1  UNL1       -0.2803
     17 H           5.3852   40.6200    9.3762 H       1  UNL1        0.1552
     18 C           3.6231   42.1972   10.5414 C.ar    1  UNL1        0.0534
     19 C           2.7927   41.3703    9.7708 C.ar    1  UNL1        0.0045
     20 C           1.5035   41.0552   10.2104 C.ar    1  UNL1       -0.0002
     21 C           1.0351   41.5647   11.4242 C.ar    1  UNL1       -0.0043
     22 C           1.8559   42.3887   12.1988 C.ar    1  UNL1       -0.0217
     23 C           1.3575   42.9318   13.4890 C.3     1  UNL1        0.0310
     24 C           3.1450   42.7037   11.7594 C.ar    1  UNL1        0.0003
     25 C          10.4058   40.5351    4.3935 C.2     1  UNL1        0.3623
     26 O          10.3227   41.7582    4.0895 O.2     1  UNL1       -0.2457
     27 O          10.2515   39.5542    3.4109 O.3     1  UNL1       -0.4458
     28 C          10.1210   37.1663    3.2875 C.3     1  UNL1        0.0513
     29 C           9.3761   38.4506    3.5828 C.3     1  UNL1        0.2087
@<TRIPOS>BOND
     1    28    29    1
     2    29    27    1
     3    25    27    1
     4     1    25    1
     5     1     2    1
     6     1    10    1
     7     1     9    1
     8     3    10    1
     9     4     5   ar
    10     5    16    1
    11    14    18    1
    12    19    20   ar
    13    21    22   ar
    14    23    22    1
    15    24    18   ar
    16     6     7   ar
    17     8    12    1
    18     8     3   ar
    19    16    14   am
    20    12     9   am
    21    25    26    2
    22     3     4   ar
    23     5     6   ar
    24    14    15    2
    25    18    19   ar
    26    20    21   ar
    27    22    24   ar
    28     7     8   ar
    29     9    11    2
    30    16    17    1
    31    12    13    1
@<TRIPOS>MOLECULE
MolPort-035-706-964 CSSS03437789218 MCULE-3222529105 PubChem-91938289
 29 31 0 0 0
SMALL
GASTEIGER

@<TRIPOS>ATOM
      1 C          11.3735   40.1377    6.5380 C.3     1  UNL1        0.2880
      2 C          11.5502   38.8034    5.8273 C.3     1  UNL1        0.0650
      3 C           9.5158   40.5424    8.1857 C.ar    1  UNL1        0.1542
      4 C           8.1450   40.7157    8.3967 C.ar    1  UNL1        0.0529
      5 C           7.6546   41.0104    9.6739 C.ar    1  UNL1        0.0537
      6 C           8.5544   41.1259   10.7450 C.ar    1  UNL1        0.0162
      7 C           9.9252   40.9492   10.5386 C.ar    1  UNL1        0.0190
      8 C          10.4042   40.6581    9.2592 C.ar    1  UNL1        0.0850
      9 C          12.3000   40.1814    7.7365 C.2     1  UNL1        0.2732
     10 O           9.9882   40.2497    6.9018 O.3     1  UNL1       -0.4618
     11 O          13.5369   39.9909    7.5855 O.2     1  UNL1       -0.2704
     12 N          11.7962   40.4623    9.0423 N.am    1  UNL1       -0.2783
     13 H          12.4198   40.5212    9.8019 H       1  UNL1        0.1551
     14 C           5.5714   41.7134   10.9990 C.2     1  UNL1        0.2495
     15 O           6.2318   42.1328   11.9883 O.2     1  UNL1       -0.2698
     16 N           6.2410   41.1772    9.8476 N.am    1  UNL1       -0.2803
     17 H           5.6690   40.8940    9.0980 H       1  UNL1        0.1552
     18 C           4.0995   41.7780   11.0229 C.ar    1  UNL1        0.0534
     19 C           3.3547   41.3861    9.9009 C.ar    1  UNL1        0.0045
     20 C           1.9581   41.4465    9.9225 C.ar    1  UNL1       -0.0002
     21 C           1.2959   41.8992   11.0665 C.ar    1  UNL1       -0.0043
     22 C           2.0299   42.2909   12.1893 C.ar    1  UNL1       -0.0217
     23 C           1.3260   42.7736   13.4055 C.3     1  UNL1        0.0310
     24 C           3.4263   42.2304   12.1677 C.ar    1  UNL1        0.0003
     25 C          11.7212   41.2666    5.6060 C.2     1  UNL1        0.3623
     26 O          11.6716   41.0974    4.3553 O.2     1  UNL1       -0.2457
     27 O          12.1587   42.4835    6.1341 O.3     1  UNL1       -0.4458
     28 C          14.0298   43.8276    6.7875 C.3     1  UNL1        0.0513
     29 C          13.3148   43.1431    5.6421 C.3     1  UNL1        0.2087
@<TRIPOS>BOND
     1    28    29    1
     2    29    27    1
     3    25    27    1
     4     1    25    1
     5     1     2    1
     6     1    10    1
     7     1     9    1
     8     3    10    1
     9     4     5   ar
    10     5    16    1
    11    14    18    1
    12    19    20   ar
    13    21    22   ar
    14    23    22    1
    15    24    18   ar
    16     6     7   ar
    17     8    12    1
    18     8     3   ar
    19    16    14   am
    20    12     9   am
    21    25    26    2
    22     3     4   ar
    23     5     6   ar
    24    14    15    2
    25    18    19   ar
    26    20    21   ar
    27    22    24   ar
    28     7     8   ar
    29     9    11    2
    30    16    17    1
    31    12    13    1
@<TRIPOS>MOLECULE
MolPort-035-706-964 CSSS03437789218 MCULE-3222529105 PubChem-91938289
 29 31 0 0 0
SMALL
GASTEIGER

@<TRIPOS>ATOM
      1 C          18.6383   34.2645   14.9899 C.3     1  UNL1        0.2880
      2 C          19.6181   34.5724   16.1132 C.3     1  UNL1        0.0650
      3 C          18.4737   35.6938   12.9261 C.ar    1  UNL1        0.1542
      4 C          18.0932   36.9174   12.3675 C.ar    1  UNL1        0.0529
      5 C          18.1921   37.1296   10.9878 C.ar    1  UNL1        0.0537
      6 C          18.6828   36.1010   10.1684 C.ar    1  UNL1        0.0162
      7 C          19.0681   34.8779   10.7238 C.ar    1  UNL1        0.0190
      8 C          18.9626   34.6758   12.1019 C.ar    1  UNL1        0.0850
      9 C          19.2469   33.2142   14.0826 C.2     1  UNL1        0.2732
     10 O          18.3665   35.4990   14.3073 O.3     1  UNL1       -0.4618
     11 O          19.6356   32.1148   14.5614 O.2     1  UNL1       -0.2704
     12 N          19.3659   33.4393   12.6779 N.am    1  UNL1       -0.2783
     13 H          19.7314   32.7303   12.1010 H       1  UNL1        0.1551
     14 C          16.6585   38.6672    9.6189 C.2     1  UNL1        0.2495
     15 O          15.8627   37.7414    9.3025 O.2     1  UNL1       -0.2698
     16 N          17.7943   38.4005   10.4559 N.am    1  UNL1       -0.2803
     17 H          18.3597   39.1718   10.6895 H       1  UNL1        0.1552
     18 C          16.4187   40.0360    9.1288 C.ar    1  UNL1        0.0534
     19 C          17.4372   40.9984    9.1877 C.ar    1  UNL1        0.0045
     20 C          17.2111   42.2973    8.7227 C.ar    1  UNL1       -0.0002
     21 C          15.9644   42.6433    8.1949 C.ar    1  UNL1       -0.0043
     22 C          14.9442   41.6906    8.1315 C.ar    1  UNL1       -0.0217
     23 C          13.6180   42.0587    7.5716 C.3     1  UNL1        0.0310
     24 C          15.1703   40.3918    8.5965 C.ar    1  UNL1        0.0003
     25 C          17.3512   33.7347   15.5614 C.2     1  UNL1        0.3623
     26 O          16.2584   33.9331   14.9598 O.2     1  UNL1       -0.2457
     27 O          17.3662   33.0756   16.7930 O.3     1  UNL1       -0.4458
     28 C          18.8347   31.2955   17.4326 C.3     1  UNL1        0.0513
     29 C          17.4713   31.6636   16.8876 C.3     1  UNL1        0.2087
@<TRIPOS>BOND
     1    28    29    1
     2    29    27    1
     3    25    27    1
     4     1    25    1
     5     1     2    1
     6     1    10    1
     7     1     9    1
     8     3    10    1
     9     4     5   ar
    10     5    16    1
    11    14    18    1
    12    19    20   ar
    13    21    22   ar
    14    23    22    1
    15    24    18   ar
    16     6     7   ar
    17     8    12    1
    18     8     3   ar
    19    16    14   am
    20    12     9   am
    21    25    26    2
    22     3     4   ar
    23     5     6   ar
    24    14    15    2
    25    18    19   ar
    26    20    21   ar
    27    22    24   ar
    28     7     8   ar
    29     9    11    2
    30    16    17    1
    31    12    13    1
@<TRIPOS>MOLECULE
MolPort-035-706-964 CSSS03437789218 MCULE-3222529105 PubChem-91938289
 29 31 0 0 0
SMALL
GASTEIGER

@<TRIPOS>ATOM
      1 C           6.9872   42.1476    8.8664 C.3     1  UNL1        0.2880
      2 C           6.5715   41.7969   10.2880 C.3     1  UNL1        0.0650
      3 C           9.3144   41.7264    8.0083 C.ar    1  UNL1        0.1542
      4 C          10.6672   42.0754    8.0515 C.ar    1  UNL1        0.0529
      5 C          11.5866   41.4622    7.1929 C.ar    1  UNL1        0.0537
      6 C          11.1370   40.4871    6.2888 C.ar    1  UNL1        0.0162
      7 C           9.7859   40.1326    6.2458 C.ar    1  UNL1        0.0190
      8 C           8.8763   40.7531    7.1053 C.ar    1  UNL1        0.0850
      9 C           6.5594   41.0273    7.9398 C.2     1  UNL1        0.2732
     10 O           8.4093   42.3511    8.8732 O.3     1  UNL1       -0.4618
     11 O           5.3532   40.6625    7.9052 O.2     1  UNL1       -0.2704
     12 N           7.5017   40.3884    7.0786 N.am    1  UNL1       -0.2783
     13 H           7.1965   39.6870    6.4588 H       1  UNL1        0.1551
     14 C          13.6027   42.9216    6.5643 C.2     1  UNL1        0.2495
     15 O          12.9362   43.6703    5.7989 O.2     1  UNL1       -0.2698
     16 N          12.9658   41.8469    7.2720 N.am    1  UNL1       -0.2803
     17 H          13.5363   41.3181    7.8755 H       1  UNL1        0.1552
     18 C          15.0475   43.1541    6.7374 C.ar    1  UNL1        0.0534
     19 C          15.6995   44.1476    5.9925 C.ar    1  UNL1        0.0045
     20 C          17.0702   44.3695    6.1562 C.ar    1  UNL1       -0.0002
     21 C          17.7989   43.5994    7.0662 C.ar    1  UNL1       -0.0043
     22 C          17.1572   42.6079    7.8131 C.ar    1  UNL1       -0.0217
     23 C          17.9322   41.7879    8.7800 C.3     1  UNL1        0.0310
     24 C          15.7867   42.3861    7.6496 C.ar    1  UNL1        0.0003
     25 C           6.3183   43.4247    8.4355 C.2     1  UNL1        0.3623
     26 O           6.7507   44.0635    7.4354 O.2     1  UNL1       -0.2457
     27 O           5.2547   43.9305    9.1867 O.3     1  UNL1       -0.4458
     28 C           3.5158   44.9088    7.8626 C.3     1  UNL1        0.0513
     29 C           3.9048   43.7692    8.7800 C.3     1  UNL1        0.2087
@<TRIPOS>BOND
     1    28    29    1
     2    29    27    1
     3    25    27    1
     4     1    25    1
     5     1     2    1
     6     1    10    1
     7     1     9    1
     8     3    10    1
     9     4     5   ar
    10     5    16    1
    11    14    18    1
    12    19    20   ar
    13    21    22   ar
    14    23    22    1
    15    24    18   ar
    16     6     7   ar
    17     8    12    1
    18     8     3   ar
    19    16    14   am
    20    12     9   am
    21    25    26    2
    22     3     4   ar
    23     5     6   ar
    24    14    15    2
    25    18    19   ar
    26    20    21   ar
    27    22    24   ar
    28     7     8   ar
    29     9    11    2
    30    16    17    1
    31    12    13    1
@<TRIPOS>MOLECULE
MolPort-035-706-964 CSSS03437789218 MCULE-3222529105 PubChem-91938289
 29 31 0 0 0
SMALL
GASTEIGER

@<TRIPOS>ATOM
      1 C          10.5624   38.5095    4.6283 C.3     1  UNL1        0.2880
      2 C          11.8799   38.0155    5.2086 C.3     1  UNL1        0.0650
      3 C           8.8569   39.7260    6.0215 C.ar    1  UNL1        0.1542
      4 C           7.9077   39.6594    7.0454 C.ar    1  UNL1        0.0529
      5 C           7.1318   40.7783    7.3685 C.ar    1  UNL1        0.0537
      6 C           7.3196   41.9729    6.6558 C.ar    1  UNL1        0.0162
      7 C           8.2706   42.0445    5.6344 C.ar    1  UNL1        0.0190
      8 C           9.0376   40.9208    5.3182 C.ar    1  UNL1        0.0850
      9 C          10.7963   39.8422    3.9457 C.2     1  UNL1        0.2732
     10 O           9.6226   38.5969    5.7113 O.3     1  UNL1       -0.4618
     11 O          11.6720   39.9450    3.0448 O.2     1  UNL1       -0.2704
     12 N          10.0180   40.9884    4.2898 N.am    1  UNL1       -0.2783
     13 H          10.1615   41.8358    3.8096 H       1  UNL1        0.1551
     14 C           5.9869   41.5799    9.5218 C.2     1  UNL1        0.2495
     15 O           6.6840   42.6274    9.6093 O.2     1  UNL1       -0.2698
     16 N           6.1717   40.6683    8.4279 N.am    1  UNL1       -0.2803
     17 H           5.5761   39.8848    8.4026 H       1  UNL1        0.1552
     18 C           4.9708   41.2908   10.5489 C.ar    1  UNL1        0.0534
     19 C           4.8897   40.0151   11.1261 C.ar    1  UNL1        0.0045
     20 C           3.9262   39.7396   12.1011 C.ar    1  UNL1       -0.0002
     21 C           3.0368   40.7381   12.5062 C.ar    1  UNL1       -0.0043
     22 C           3.1109   42.0122   11.9371 C.ar    1  UNL1       -0.0217
     23 C           2.1643   43.0738   12.3668 C.3     1  UNL1        0.0310
     24 C           4.0742   42.2877   10.9623 C.ar    1  UNL1        0.0003
     25 C          10.0441   37.5232    3.6170 C.2     1  UNL1        0.3623
     26 O           8.9259   37.7107    3.0604 O.2     1  UNL1       -0.2457
     27 O          10.7803   36.3677    3.3446 O.3     1  UNL1       -0.4458
     28 C          11.1244   34.0232    2.9991 C.3     1  UNL1        0.0513
     29 C          10.1686   35.1874    2.8483 C.3     1  UNL1        0.2087
@<TRIPOS>BOND
     1    28    29    1
     2    29    27    1
     3    25    27    1
     4     1    25    1
     5     1     2    1
     6     1    10    1
     7     1     9    1
     8     3    10    1
     9     4     5   ar
    10     5    16    1
    11    14    18    1
    12    19    20   ar
    13    21    22   ar
    14    23    22    1
    15    24    18   ar
    16     6     7   ar
    17     8    12    1
    18     8     3   ar
    19    16    14   am
    20    12     9   am
    21    25    26    2
    22     3     4   ar
    23     5     6   ar
    24    14    15    2
    25    18    19   ar
    26    20    21   ar
    27    22    24   ar
    28     7     8   ar
    29     9    11    2
    30    16    17    1
    31    12    13    1
@<TRIPOS>MOLECULE
MolPort-035-706-964 CSSS03437789218 MCULE-3222529105 PubChem-91938289
 29 31 0 0 0
SMALL
GASTEIGER

@<TRIPOS>ATOM
      1 C           9.8811   38.0770    3.9567 C.3     1  UNL1        0.2880
      2 C          10.2078   36.6272    4.2857 C.3     1  UNL1        0.0650
      3 C           8.8500   39.6340    5.6425 C.ar    1  UNL1        0.1542
      4 C           7.7214   39.9797    6.3913 C.ar    1  UNL1        0.0529
      5 C           7.7281   41.1219    7.1999 C.ar    1  UNL1        0.0537
      6 C           8.8837   41.9166    7.2558 C.ar    1  UNL1        0.0162
      7 C          10.0153   41.5718    6.5118 C.ar    1  UNL1        0.0190
      8 C           9.9968   40.4312    5.7058 C.ar    1  UNL1        0.0850
      9 C          11.1366   38.9108    4.1156 C.2     1  UNL1        0.2732
     10 O           8.8246   38.4894    4.8385 O.3     1  UNL1       -0.4618
     11 O          12.1830   38.6030    3.4836 O.2     1  UNL1       -0.2704
     12 N          11.1487   40.0644    4.9563 N.am    1  UNL1       -0.2783
     13 H          11.9640   40.6127    5.0180 H       1  UNL1        0.1551
     14 C           6.4704   41.6736    9.3687 C.2     1  UNL1        0.2495
     15 O           7.5090   41.6474   10.0837 O.2     1  UNL1       -0.2698
     16 N           6.5506   41.4387    7.9545 N.am    1  UNL1       -0.2803
     17 H           5.7079   41.5019    7.4493 H       1  UNL1        0.1552
     18 C           5.1632   41.9520    9.9892 C.ar    1  UNL1        0.0534
     19 C           4.3642   43.0035    9.5170 C.ar    1  UNL1        0.0045
     20 C           3.1235   43.2683   10.1045 C.ar    1  UNL1       -0.0002
     21 C           2.6726   42.4832   11.1688 C.ar    1  UNL1       -0.0043
     22 C           3.4618   41.4329   11.6452 C.ar    1  UNL1       -0.0217
     23 C           2.9831   40.5988   12.7778 C.3     1  UNL1        0.0310
     24 C           4.7023   41.1681   11.0577 C.ar    1  UNL1        0.0003
     25 C           9.3954   38.1849    2.5367 C.2     1  UNL1        0.3623
     26 O          10.0637   38.8329    1.6830 O.2     1  UNL1       -0.2457
     27 O           8.1693   37.6154    2.1849 O.3     1  UNL1       -0.4458
     28 C           5.9689   37.5519    1.2424 C.3     1  UNL1        0.0513
     29 C           7.0254   38.4079    1.9076 C.3     1  UNL1        0.2087
@<TRIPOS>BOND
     1    28    29    1
     2    29    27    1
     3    25    27    1
     4     1    25    1
     5     1     2    1
     6     1    10    1
     7     1     9    1
     8     3    10    1
     9     4     5   ar
    10     5    16    1
    11    14    18    1
    12    19    20   ar
    13    21    22   ar
    14    23    22    1
    15    24    18   ar
    16     6     7   ar
    17     8    12    1
    18     8     3   ar
    19    16    14   am
    20    12     9   am
    21    25    26    2
    22     3     4   ar
    23     5     6   ar
    24    14    15    2
    25    18    19   ar
    26    20    21   ar
    27    22    24   ar
    28     7     8   ar
    29     9    11    2
    30    16    17    1
    31    12    13    1
@<TRIPOS>MOLECULE
MolPort-035-706-964 CSSS03437789218 MCULE-3222529105 PubChem-91938289
 29 31 0 0 0
SMALL
GASTEIGER

@<TRIPOS>ATOM
      1 C          14.2872   38.6937   10.5143 C.3     1  UNL1        0.2880
      2 C          14.8094   38.7059   11.9440 C.3     1  UNL1        0.0650
      3 C          12.2365   39.9782    9.8258 C.ar    1  UNL1        0.1542
      4 C          10.8461   40.1042    9.8965 C.ar    1  UNL1        0.0529
      5 C          10.1842   41.0924    9.1592 C.ar    1  UNL1        0.0537
      6 C          10.9321   41.9615    8.3495 C.ar    1  UNL1        0.0162
      7 C          12.3226   41.8413    8.2797 C.ar    1  UNL1        0.0190
      8 C          12.9729   40.8495    9.0176 C.ar    1  UNL1        0.0850
      9 C          15.0640   39.7085    9.6999 C.2     1  UNL1        0.2732
     10 O          12.8811   38.9833   10.5688 O.3     1  UNL1       -0.4618
     11 O          16.3219   39.6458    9.6467 O.2     1  UNL1       -0.2704
     12 N          14.3892   40.7288    8.9640 N.am    1  UNL1       -0.2783
     13 H          14.9103   41.3563    8.4128 H       1  UNL1        0.1551
     14 C           8.0012   42.3222    9.7180 C.2     1  UNL1        0.2495
     15 O           8.5827   43.3917   10.0477 O.2     1  UNL1       -0.2698
     16 N           8.7573   41.1895    9.2628 N.am    1  UNL1       -0.2803
     17 H           8.2413   40.3955    8.9933 H       1  UNL1        0.1552
     18 C           6.5324   42.2352    9.7964 C.ar    1  UNL1        0.0534
     19 C           5.7299   43.1316    9.0757 C.ar    1  UNL1        0.0045
     20 C           4.3361   43.0498    9.1490 C.ar    1  UNL1       -0.0002
     21 C           3.7345   42.0706    9.9437 C.ar    1  UNL1       -0.0043
     22 C           4.5263   41.1727   10.6645 C.ar    1  UNL1       -0.0217
     23 C           3.8868   40.1321   11.5106 C.3     1  UNL1        0.0310
     24 C           5.9199   41.2544   10.5912 C.ar    1  UNL1        0.0003
     25 C          14.4765   37.3289    9.9097 C.2     1  UNL1        0.3623
     26 O          14.8768   37.2110    8.7175 O.2     1  UNL1       -0.2457
     27 O          14.1472   36.1951   10.6563 O.3     1  UNL1       -0.4458
     28 C          11.7845   35.8090   10.7057 C.3     1  UNL1        0.0513
     29 C          13.1312   35.2941   10.2445 C.3     1  UNL1        0.2087
@<TRIPOS>BOND
     1    28    29    1
     2    29    27    1
     3    25    27    1
     4     1    25    1
     5     1     2    1
     6     1    10    1
     7     1     9    1
     8     3    10    1
     9     4     5   ar
    10     5    16    1
    11    14    18    1
    12    19    20   ar
    13    21    22   ar
    14    23    22    1
    15    24    18   ar
    16     6     7   ar
    17     8    12    1
    18     8     3   ar
    19    16    14   am
    20    12     9   am
    21    25    26    2
    22     3     4   ar
    23     5     6   ar
    24    14    15    2
    25    18    19   ar
    26    20    21   ar
    27    22    24   ar
    28     7     8   ar
    29     9    11    2
    30    16    17    1
    31    12    13    1
@<TRIPOS>MOLECULE
MolPort-035-706-964 CSSS03437789218 MCULE-3222529105 PubChem-91938289
 29 31 0 0 0
SMALL
GASTEIGER

@<TRIPOS>ATOM
      1 C          17.5468   32.8000    2.9011 C.3     1  UNL1        0.2880
      2 C          17.4564   31.2877    3.0473 C.3     1  UNL1        0.0650
      3 C          17.6836   34.3328    4.8914 C.ar    1  UNL1        0.1542
      4 C          17.0334   34.8908    5.9958 C.ar    1  UNL1        0.0529
      5 C          17.6763   35.8467    6.7904 C.ar    1  UNL1        0.0537
      6 C          18.9858   36.2375    6.4697 C.ar    1  UNL1        0.0162
      7 C          19.6406   35.6787    5.3689 C.ar    1  UNL1        0.0190
      8 C          18.9885   34.7275    4.5809 C.ar    1  UNL1        0.0850
      9 C          18.9906   33.1823    2.6438 C.2     1  UNL1        0.2732
     10 O          17.0248   33.3796    4.1075 O.3     1  UNL1       -0.4618
     11 O          19.6174   32.6679    1.6787 O.2     1  UNL1       -0.2704
     12 N          19.6522   34.1427    3.4670 N.am    1  UNL1       -0.2783
     13 H          20.5790   34.4035    3.2612 H       1  UNL1        0.1551
     14 C          15.5604   36.3390    8.1579 C.2     1  UNL1        0.2495
     15 O          14.7938   35.7392    7.3560 O.2     1  UNL1       -0.2698
     16 N          16.9748   36.3915    7.9161 N.am    1  UNL1       -0.2803
     17 H          17.5207   36.8500    8.5951 H       1  UNL1        0.1552
     18 C          15.0005   36.9885    9.3562 C.ar    1  UNL1        0.0534
     19 C          13.6408   36.8464    9.6693 C.ar    1  UNL1        0.0045
     20 C          13.1084   37.4618   10.8062 C.ar    1  UNL1       -0.0002
     21 C          13.9322   38.2238   11.6387 C.ar    1  UNL1       -0.0043
     22 C          15.2883   38.3701   11.3349 C.ar    1  UNL1       -0.0217
     23 C          16.1642   39.1815   12.2192 C.3     1  UNL1        0.0310
     24 C          15.8206   37.7548   10.1982 C.ar    1  UNL1        0.0003
     25 C          16.7031   33.2557    1.7415 C.2     1  UNL1        0.3623
     26 O          16.0507   32.4155    1.0604 O.2     1  UNL1       -0.2457
     27 O          16.6958   34.6066    1.3862 O.3     1  UNL1       -0.4458
     28 C          18.5387   36.0179    0.7978 C.3     1  UNL1        0.0513
     29 C          17.4492   35.0983    0.2889 C.3     1  UNL1        0.2087
@<TRIPOS>BOND
     1    28    29    1
     2    29    27    1
     3    25    27    1
     4     1    25    1
     5     1     2    1
     6     1    10    1
     7     1     9    1
     8     3    10    1
     9     4     5   ar
    10     5    16    1
    11    14    18    1
    12    19    20   ar
    13    21    22   ar
    14    23    22    1
    15    24    18   ar
    16     6     7   ar
    17     8    12    1
    18     8     3   ar
    19    16    14   am
    20    12     9   am
    21    25    26    2
    22     3     4   ar
    23     5     6   ar
    24    14    15    2
    25    18    19   ar
    26    20    21   ar
    27    22    24   ar
    28     7     8   ar
    29     9    11    2
    30    16    17    1
    31    12    13    1
