@<TRIPOS>MOLECULE
MolPort-045-953-891 CSSS00160216300 MCULE-4434783732
 29 31 0 0 0
SMALL
GASTEIGER

@<TRIPOS>ATOM
      1 C          14.1099   43.3036    5.8676 C.2     1  UNL1        0.2495
      2 O          14.3978   44.2612    5.1013 O.2     1  UNL1       -0.2698
      3 N          12.8346   42.6643    5.7175 N.am    1  UNL1       -0.2804
      4 H          12.4884   42.5640    4.8013 H       1  UNL1        0.1552
      5 C          15.1125   42.8344    6.8470 C.ar    1  UNL1        0.0553
      6 C          16.3469   43.5196    6.9742 C.ar    1  UNL1        0.0061
      7 C          17.3287   43.0811    7.8815 C.ar    1  UNL1        0.0187
      8 C          17.0399   41.9494    8.6377 C.ar    1  UNL1        0.0753
      9 C          17.0473   40.3147    9.9586 C.ar    1  UNL1        0.1175
     10 C          17.4928   39.3432   10.9925 C.3     1  UNL1        0.0716
     11 C          15.8635   41.2777    8.5138 C.ar    1  UNL1        0.0982
     12 C          14.8714   41.6815    7.6258 C.ar    1  UNL1        0.0251
     13 N          17.8185   41.3571    9.5540 N.ar    1  UNL1       -0.3408
     14 N          15.8385   40.2270    9.3455 N.ar    1  UNL1       -0.2312
     15 H          18.7197   41.6126    9.8568 H       1  UNL1        0.1671
     16 C          10.3333   41.1743    8.8056 C.ar    1  UNL1        0.0611
     17 C          11.0720   42.3445    9.0072 C.ar    1  UNL1        0.0168
     18 C          11.9011   42.8413    8.0000 C.ar    1  UNL1        0.0160
     19 C          12.0197   42.1586    6.7819 C.ar    1  UNL1        0.0515
     20 C          11.2950   40.9811    6.5822 C.ar    1  UNL1        0.0273
     21 C          10.4606   40.4768    7.5850 C.ar    1  UNL1        0.0723
     22 CL          9.6797   38.9285    7.3022 Cl      1  UNL1       -0.0809
     23 C           9.4491   41.2892   11.1786 C.2     1  UNL1        0.2256
     24 O          10.3006   42.1488   11.5301 O.2     1  UNL1       -0.2748
     25 N           9.5059   40.6996    9.8736 N.am    1  UNL1       -0.2833
     26 H           8.9375   39.9148    9.6995 H       1  UNL1        0.1549
     27 C           8.8184   41.2119   13.5658 C.3     1  UNL1        0.0096
     28 C           8.4004   40.8627   12.1508 C.3     1  UNL1        0.0768
     29 C           7.0753   41.5250   11.8272 C.3     1  UNL1        0.0096
@<TRIPOS>BOND
     1    27    28    1
     2    28    29    1
     3    28    23    1
     4    23    25   am
     5    17    18   ar
     6    19     3    1
     7    19    20   ar
     8     1     5    1
     9     6     7   ar
    10     8    13   ar
    11    10     9    1
    12    11    14   ar
    13    11     8   ar
    14    12     5   ar
    15    21    22    1
    16    21    16   ar
    17    25    16    1
    18     3     1   am
    19    13     9   ar
    20    23    24    2
    21    16    17   ar
    22    18    19   ar
    23     1     2    2
    24     5     6   ar
    25     7     8   ar
    26     9    14   ar
    27    11    12   ar
    28    20    21   ar
    29    25    26    1
    30     3     4    1
    31    13    15    1
@<TRIPOS>MOLECULE
MolPort-045-953-891 CSSS00160216300 MCULE-4434783732
 29 31 0 0 0
SMALL
GASTEIGER

@<TRIPOS>ATOM
      1 C          -0.0074   42.4779   15.3105 C.2     1  UNL1        0.2495
      2 O          -0.7564   41.8498   16.1052 O.2     1  UNL1       -0.2698
      3 N           0.0574   42.0475   13.9437 N.am    1  UNL1       -0.2804
      4 H          -0.7775   41.7214   13.5363 H       1  UNL1        0.1552
      5 C           0.7265   43.6661   15.7947 C.ar    1  UNL1        0.0553
      6 C           0.7050   44.8639   15.0370 C.ar    1  UNL1        0.0061
      7 C           1.4136   46.0027   15.4620 C.ar    1  UNL1        0.0187
      8 C           2.1368   45.9000   16.6462 C.ar    1  UNL1        0.0753
      9 C           3.3492   46.2033   18.3359 C.ar    1  UNL1        0.1175
     10 C           4.2423   46.8594   19.3274 C.3     1  UNL1        0.0716
     11 C           2.1737   44.7512   17.3737 C.ar    1  UNL1        0.0982
     12 C           1.4874   43.6058   16.9826 C.ar    1  UNL1        0.0251
     13 N           2.8796   46.8471   17.2360 N.ar    1  UNL1       -0.3408
     14 N           2.9415   44.9136   18.4602 N.ar    1  UNL1       -0.2312
     15 H           3.0431   47.7735   16.9458 H       1  UNL1        0.1671
     16 C           3.5866   42.0272   11.5865 C.ar    1  UNL1        0.0611
     17 C           2.8209   43.1928   11.6893 C.ar    1  UNL1        0.0168
     18 C           1.6561   43.2097   12.4584 C.ar    1  UNL1        0.0160
     19 C           1.2286   42.0498   13.1185 C.ar    1  UNL1        0.0515
     20 C           1.9827   40.8792   13.0061 C.ar    1  UNL1        0.0273
     21 C           3.1520   40.8534   12.2391 C.ar    1  UNL1        0.0723
     22 CL          3.9758   39.3132   12.0487 Cl      1  UNL1       -0.0809
     23 C           4.8403   42.6478    9.4723 C.2     1  UNL1        0.2256
     24 O           3.7910   42.9931    8.8663 O.2     1  UNL1       -0.2748
     25 N           4.7671   42.0580   10.7764 N.am    1  UNL1       -0.2833
     26 H           5.5839   41.6460   11.1401 H       1  UNL1        0.1549
     27 C           6.3817   44.2828    8.4461 C.3     1  UNL1        0.0096
     28 C           6.1611   42.8254    8.8010 C.3     1  UNL1        0.0768
     29 C           7.2826   42.3384    9.6979 C.3     1  UNL1        0.0096
@<TRIPOS>BOND
     1    27    28    1
     2    28    29    1
     3    28    23    1
     4    23    25   am
     5    17    18   ar
     6    19     3    1
     7    19    20   ar
     8     1     5    1
     9     6     7   ar
    10     8    13   ar
    11    10     9    1
    12    11    14   ar
    13    11     8   ar
    14    12     5   ar
    15    21    22    1
    16    21    16   ar
    17    25    16    1
    18     3     1   am
    19    13     9   ar
    20    23    24    2
    21    16    17   ar
    22    18    19   ar
    23     1     2    2
    24     5     6   ar
    25     7     8   ar
    26     9    14   ar
    27    11    12   ar
    28    20    21   ar
    29    25    26    1
    30     3     4    1
    31    13    15    1
@<TRIPOS>MOLECULE
MolPort-045-953-891 CSSS00160216300 MCULE-4434783732
 29 31 0 0 0
SMALL
GASTEIGER

@<TRIPOS>ATOM
      1 C          14.1751   42.5695    6.5155 C.2     1  UNL1        0.2495
      2 O          14.8860   43.4434    5.9516 O.2     1  UNL1       -0.2698
      3 N          12.8490   42.3392    6.0197 N.am    1  UNL1       -0.2804
      4 H          12.7184   42.3962    5.0456 H       1  UNL1        0.1552
      5 C          14.7488   41.7737    7.6212 C.ar    1  UNL1        0.0553
      6 C          16.0528   42.0641    8.0949 C.ar    1  UNL1        0.0061
      7 C          16.6326   41.3080    9.1301 C.ar    1  UNL1        0.0187
      8 C          15.8782   40.2656    9.6595 C.ar    1  UNL1        0.0753
      9 C          15.1294   38.6238   10.7369 C.ar    1  UNL1        0.1175
     10 C          15.0358   37.5060   11.7129 C.3     1  UNL1        0.0716
     11 C          14.6311   39.9712    9.2031 C.ar    1  UNL1        0.0982
     12 C          14.0277   40.6960    8.1800 C.ar    1  UNL1        0.0251
     13 N          16.2251   39.4208   10.6405 N.ar    1  UNL1       -0.3408
     14 N          14.1262   38.9255    9.8724 N.ar    1  UNL1       -0.2312
     15 H          17.0612   39.3866   11.1592 H       1  UNL1        0.1671
     16 C           9.5041   41.3978    8.4565 C.ar    1  UNL1        0.0611
     17 C           9.6461   40.7978    7.2014 C.ar    1  UNL1        0.0168
     18 C          10.7400   41.1032    6.3898 C.ar    1  UNL1        0.0160
     19 C          11.6975   42.0335    6.8156 C.ar    1  UNL1        0.0515
     20 C          11.5514   42.6464    8.0624 C.ar    1  UNL1        0.0273
     21 C          10.4595   42.3453    8.8830 C.ar    1  UNL1        0.0723
     22 CL         10.2833   43.2483   10.3800 Cl      1  UNL1       -0.0809
     23 C           7.1095   41.7609    9.2050 C.2     1  UNL1        0.2256
     24 O           7.0168   42.8685    8.6116 O.2     1  UNL1       -0.2748
     25 N           8.3587   41.0597    9.2466 N.am    1  UNL1       -0.2833
     26 H           8.4345   40.2934    9.8600 H       1  UNL1        0.1549
     27 C           6.0409   41.3753   11.3986 C.3     1  UNL1        0.0096
     28 C           5.9112   41.2032    9.8978 C.3     1  UNL1        0.0768
     29 C           4.6489   41.8861    9.4084 C.3     1  UNL1        0.0096
@<TRIPOS>BOND
     1    27    28    1
     2    28    29    1
     3    28    23    1
     4    23    25   am
     5    17    18   ar
     6    19     3    1
     7    19    20   ar
     8     1     5    1
     9     6     7   ar
    10     8    13   ar
    11    10     9    1
    12    11    14   ar
    13    11     8   ar
    14    12     5   ar
    15    21    22    1
    16    21    16   ar
    17    25    16    1
    18     3     1   am
    19    13     9   ar
    20    23    24    2
    21    16    17   ar
    22    18    19   ar
    23     1     2    2
    24     5     6   ar
    25     7     8   ar
    26     9    14   ar
    27    11    12   ar
    28    20    21   ar
    29    25    26    1
    30     3     4    1
    31    13    15    1
@<TRIPOS>MOLECULE
MolPort-045-953-891 CSSS00160216300 MCULE-4434783732
 29 31 0 0 0
SMALL
GASTEIGER

@<TRIPOS>ATOM
      1 C           0.0377   42.2766   13.8856 C.2     1  UNL1        0.2495
      2 O          -0.9582   41.6571   14.3453 O.2     1  UNL1       -0.2698
      3 N           0.4764   41.9777   12.5530 N.am    1  UNL1       -0.2804
      4 H          -0.2199   41.7838   11.8846 H       1  UNL1        0.1552
      5 C           0.6778   43.3268   14.7054 C.ar    1  UNL1        0.0553
      6 C           0.8023   44.6423   14.1925 C.ar    1  UNL1        0.0061
      7 C           1.4280   45.6558   14.9415 C.ar    1  UNL1        0.0187
      8 C           1.9221   45.3107   16.1956 C.ar    1  UNL1        0.0753
      9 C           2.8072   45.2531   18.1010 C.ar    1  UNL1        0.1175
     10 C           3.5079   45.6820   19.3403 C.3     1  UNL1        0.0716
     11 C           1.8186   44.0482   16.6913 C.ar    1  UNL1        0.0982
     12 C           1.2085   43.0212   15.9778 C.ar    1  UNL1        0.0251
     13 N           2.5502   46.1045   17.0742 N.ar    1  UNL1       -0.3408
     14 N           2.3759   43.9797   17.9083 N.ar    1  UNL1       -0.2312
     15 H           2.7696   47.0610   16.9954 H       1  UNL1        0.1671
     16 C           4.4740   41.8231   11.1360 C.ar    1  UNL1        0.0611
     17 C           4.0842   41.0277   12.2181 C.ar    1  UNL1        0.0168
     18 C           2.7732   41.0736   12.6951 C.ar    1  UNL1        0.0160
     19 C           1.8377   41.9361   12.1079 C.ar    1  UNL1        0.0515
     20 C           2.2270   42.7433   11.0364 C.ar    1  UNL1        0.0273
     21 C           3.5380   42.7028   10.5507 C.ar    1  UNL1        0.0723
     22 CL          3.9796   43.8361    9.2827 Cl      1  UNL1       -0.0809
     23 C           6.2339   41.3560    9.3722 C.2     1  UNL1        0.2256
     24 O           5.4028   40.8414    8.5772 O.2     1  UNL1       -0.2748
     25 N           5.8331   41.7480   10.6911 N.am    1  UNL1       -0.2833
     26 H           6.5402   41.9815   11.3351 H       1  UNL1        0.1549
     27 C           8.0080   40.4796    7.8934 C.3     1  UNL1        0.0096
     28 C           7.6522   41.5192    8.9382 C.3     1  UNL1        0.0768
     29 C           7.8798   42.9101    8.3787 C.3     1  UNL1        0.0096
@<TRIPOS>BOND
     1    27    28    1
     2    28    29    1
     3    28    23    1
     4    23    25   am
     5    17    18   ar
     6    19     3    1
     7    19    20   ar
     8     1     5    1
     9     6     7   ar
    10     8    13   ar
    11    10     9    1
    12    11    14   ar
    13    11     8   ar
    14    12     5   ar
    15    21    22    1
    16    21    16   ar
    17    25    16    1
    18     3     1   am
    19    13     9   ar
    20    23    24    2
    21    16    17   ar
    22    18    19   ar
    23     1     2    2
    24     5     6   ar
    25     7     8   ar
    26     9    14   ar
    27    11    12   ar
    28    20    21   ar
    29    25    26    1
    30     3     4    1
    31    13    15    1
@<TRIPOS>MOLECULE
MolPort-045-953-891 CSSS00160216300 MCULE-4434783732
 29 31 0 0 0
SMALL
GASTEIGER

@<TRIPOS>ATOM
      1 C          11.1857   41.2019   10.4654 C.2     1  UNL1        0.2495
      2 O          10.9026   42.3354   10.9364 O.2     1  UNL1       -0.2698
      3 N          12.1792   40.4105   11.1319 N.am    1  UNL1       -0.2804
      4 H          12.2015   40.4541   12.1152 H       1  UNL1        0.1552
      5 C          10.4463   40.7032    9.2866 C.ar    1  UNL1        0.0553
      6 C          11.1472   40.0581    8.2370 C.ar    1  UNL1        0.0061
      7 C          10.4723   39.5945    7.0928 C.ar    1  UNL1        0.0187
      8 C           9.0978   39.8021    7.0341 C.ar    1  UNL1        0.0753
      9 C           7.0635   39.8981    6.5149 C.ar    1  UNL1        0.1175
     10 C           5.7964   39.7349    5.7540 C.3     1  UNL1        0.0716
     11 C           8.4182   40.4313    8.0304 C.ar    1  UNL1        0.0982
     12 C           9.0531   40.9043    9.1745 C.ar    1  UNL1        0.0251
     13 N           8.2584   39.4495    6.0503 N.ar    1  UNL1       -0.3408
     14 N           7.1149   40.5082    7.7272 N.ar    1  UNL1       -0.2312
     15 H           8.4574   38.9839    5.2060 H       1  UNL1        0.1671
     16 C          15.0521   37.8516    9.3401 C.ar    1  UNL1        0.0611
     17 C          15.2040   39.2393    9.2585 C.ar    1  UNL1        0.0168
     18 C          14.2630   40.0904    9.8405 C.ar    1  UNL1        0.0160
     19 C          13.1418   39.5621   10.4944 C.ar    1  UNL1        0.0515
     20 C          12.9787   38.1765   10.5652 C.ar    1  UNL1        0.0273
     21 C          13.9172   37.3161    9.9864 C.ar    1  UNL1        0.0723
     22 CL         13.5770   35.5925   10.0121 Cl      1  UNL1       -0.0809
     23 C          17.1258   36.3950    9.4102 C.2     1  UNL1        0.2256
     24 O          17.4001   36.7191   10.5965 O.2     1  UNL1       -0.2748
     25 N          16.0388   37.0214    8.7173 N.am    1  UNL1       -0.2833
     26 H          15.9656   36.8708    7.7472 H       1  UNL1        0.1549
     27 C          17.8608   35.5319    7.2154 C.3     1  UNL1        0.0096
     28 C          17.9698   35.3765    8.7197 C.3     1  UNL1        0.0768
     29 C          19.4186   35.5090    9.1473 C.3     1  UNL1        0.0096
@<TRIPOS>BOND
     1    27    28    1
     2    28    29    1
     3    28    23    1
     4    23    25   am
     5    17    18   ar
     6    19     3    1
     7    19    20   ar
     8     1     5    1
     9     6     7   ar
    10     8    13   ar
    11    10     9    1
    12    11    14   ar
    13    11     8   ar
    14    12     5   ar
    15    21    22    1
    16    21    16   ar
    17    25    16    1
    18     3     1   am
    19    13     9   ar
    20    23    24    2
    21    16    17   ar
    22    18    19   ar
    23     1     2    2
    24     5     6   ar
    25     7     8   ar
    26     9    14   ar
    27    11    12   ar
    28    20    21   ar
    29    25    26    1
    30     3     4    1
    31    13    15    1
@<TRIPOS>MOLECULE
MolPort-045-953-891 CSSS00160216300 MCULE-4434783732
 29 31 0 0 0
SMALL
GASTEIGER

@<TRIPOS>ATOM
      1 C          14.4299   42.7460    6.5815 C.2     1  UNL1        0.2495
      2 O          15.1004   43.6622    6.0357 O.2     1  UNL1       -0.2698
      3 N          13.1113   42.4731    6.0870 N.am    1  UNL1       -0.2804
      4 H          12.9724   42.5484    5.1153 H       1  UNL1        0.1552
      5 C          15.0427   41.9479    7.6642 C.ar    1  UNL1        0.0553
      6 C          16.3665   42.2308    8.0846 C.ar    1  UNL1        0.0061
      7 C          16.9830   41.4722    9.0965 C.ar    1  UNL1        0.0187
      8 C          16.2443   40.4350    9.6572 C.ar    1  UNL1        0.0753
      9 C          15.5295   38.7989   10.7661 C.ar    1  UNL1        0.1175
     10 C          15.4685   37.6827   11.7466 C.3     1  UNL1        0.0716
     11 C          14.9779   40.1477    9.2519 C.ar    1  UNL1        0.0982
     12 C          14.3382   40.8751    8.2531 C.ar    1  UNL1        0.0251
     13 N          16.6253   39.5891   10.6246 N.ar    1  UNL1       -0.3408
     14 N          14.4941   39.1059    9.9424 N.ar    1  UNL1       -0.2312
     15 H          17.4813   39.5503   11.1092 H       1  UNL1        0.1671
     16 C           9.6898   41.4067    8.3605 C.ar    1  UNL1        0.0611
     17 C          10.6204   42.3121    8.8800 C.ar    1  UNL1        0.0168
     18 C          11.7515   42.6667    8.1428 C.ar    1  UNL1        0.0160
     19 C          11.9784   42.1005    6.8811 C.ar    1  UNL1        0.0515
     20 C          11.0588   41.1843    6.3651 C.ar    1  UNL1        0.0273
     21 C           9.9219   40.8243    7.0958 C.ar    1  UNL1        0.0723
     22 CL          8.8796   39.5756    6.4314 Cl      1  UNL1       -0.0809
     23 C           7.3146   41.7905    9.1590 C.2     1  UNL1        0.2256
     24 O           7.2318   42.9154    8.5977 O.2     1  UNL1       -0.2748
     25 N           8.5517   41.0669    9.1604 N.am    1  UNL1       -0.2833
     26 H           8.6240   40.2828    9.7514 H       1  UNL1        0.1549
     27 C           6.2528   41.4095   11.3567 C.3     1  UNL1        0.0096
     28 C           6.1183   41.2348    9.8566 C.3     1  UNL1        0.0768
     29 C           4.8548   41.9176    9.3701 C.3     1  UNL1        0.0096
@<TRIPOS>BOND
     1    27    28    1
     2    28    29    1
     3    28    23    1
     4    23    25   am
     5    17    18   ar
     6    19     3    1
     7    19    20   ar
     8     1     5    1
     9     6     7   ar
    10     8    13   ar
    11    10     9    1
    12    11    14   ar
    13    11     8   ar
    14    12     5   ar
    15    21    22    1
    16    21    16   ar
    17    25    16    1
    18     3     1   am
    19    13     9   ar
    20    23    24    2
    21    16    17   ar
    22    18    19   ar
    23     1     2    2
    24     5     6   ar
    25     7     8   ar
    26     9    14   ar
    27    11    12   ar
    28    20    21   ar
    29    25    26    1
    30     3     4    1
    31    13    15    1
@<TRIPOS>MOLECULE
MolPort-045-953-891 CSSS00160216300 MCULE-4434783732
 29 31 0 0 0
SMALL
GASTEIGER

@<TRIPOS>ATOM
      1 C          11.5120   39.9122   10.0561 C.2     1  UNL1        0.2495
      2 O          10.7096   40.4020   10.8948 O.2     1  UNL1       -0.2698
      3 N          12.0096   38.5850   10.2767 N.am    1  UNL1       -0.2804
      4 H          11.3848   37.9306   10.6648 H       1  UNL1        0.1552
      5 C          11.8630   40.6915    8.8502 C.ar    1  UNL1        0.0553
      6 C          10.9548   40.7549    7.7638 C.ar    1  UNL1        0.0061
      7 C          11.2727   41.4698    6.5945 C.ar    1  UNL1        0.0187
      8 C          12.5117   42.1013    6.5489 C.ar    1  UNL1        0.0753
      9 C          14.2375   43.1864    6.0374 C.ar    1  UNL1        0.1175
     10 C          15.1978   44.0220    5.2689 C.3     1  UNL1        0.0716
     11 C          13.3952   42.0359    7.5811 C.ar    1  UNL1        0.0982
     12 C          13.1152   41.3366    8.7510 C.ar    1  UNL1        0.0251
     13 N          13.0222   42.8300    5.5463 N.ar    1  UNL1       -0.3408
     14 N          14.5087   42.7199    7.2838 N.ar    1  UNL1       -0.2312
     15 H          12.6190   43.0507    4.6758 H       1  UNL1        0.1671
     16 C          15.9639   37.3302    9.3814 C.ar    1  UNL1        0.0611
     17 C          14.8835   36.7988    8.6700 C.ar    1  UNL1        0.0168
     18 C          13.5784   37.2011    8.9590 C.ar    1  UNL1        0.0160
     19 C          13.3349   38.1268    9.9825 C.ar    1  UNL1        0.0515
     20 C          14.4103   38.6487   10.7055 C.ar    1  UNL1        0.0273
     21 C          15.7213   38.2526   10.4219 C.ar    1  UNL1        0.0723
     22 CL         17.0051   38.8610   11.4559 Cl      1  UNL1       -0.0809
     23 C          17.6432   35.5033    8.8628 C.2     1  UNL1        0.2256
     24 O          16.8472   34.5815    9.1857 O.2     1  UNL1       -0.2748
     25 N          17.2824   36.8769    9.0547 N.am    1  UNL1       -0.2833
     26 H          17.9891   37.5551    8.9552 H       1  UNL1        0.1549
     27 C          18.8776   33.9417    7.3999 C.3     1  UNL1        0.0096
     28 C          18.9838   35.1483    8.3119 C.3     1  UNL1        0.0768
     29 C          19.5718   36.3197    7.5494 C.3     1  UNL1        0.0096
@<TRIPOS>BOND
     1    27    28    1
     2    28    29    1
     3    28    23    1
     4    23    25   am
     5    17    18   ar
     6    19     3    1
     7    19    20   ar
     8     1     5    1
     9     6     7   ar
    10     8    13   ar
    11    10     9    1
    12    11    14   ar
    13    11     8   ar
    14    12     5   ar
    15    21    22    1
    16    21    16   ar
    17    25    16    1
    18     3     1   am
    19    13     9   ar
    20    23    24    2
    21    16    17   ar
    22    18    19   ar
    23     1     2    2
    24     5     6   ar
    25     7     8   ar
    26     9    14   ar
    27    11    12   ar
    28    20    21   ar
    29    25    26    1
    30     3     4    1
    31    13    15    1
@<TRIPOS>MOLECULE
MolPort-045-953-891 CSSS00160216300 MCULE-4434783732
 29 31 0 0 0
SMALL
GASTEIGER

@<TRIPOS>ATOM
      1 C          10.8859   40.0444    9.7687 C.2     1  UNL1        0.2495
      2 O          10.1555   40.6572   10.5921 O.2     1  UNL1       -0.2698
      3 N          11.1280   38.6457    9.9745 N.am    1  UNL1       -0.2804
      4 H          10.3820   38.1087   10.3271 H       1  UNL1        0.1552
      5 C          11.4146   40.7677    8.5929 C.ar    1  UNL1        0.0553
      6 C          10.9524   40.4345    7.2950 C.ar    1  UNL1        0.0061
      7 C          11.4555   41.0902    6.1564 C.ar    1  UNL1        0.0187
      8 C          12.4247   42.0679    6.3583 C.ar    1  UNL1        0.0753
      9 C          13.8753   43.5783    6.1805 C.ar    1  UNL1        0.1175
     10 C          14.7886   44.5886    5.5838 C.3     1  UNL1        0.0716
     11 C          12.8837   42.3859    7.5986 C.ar    1  UNL1        0.0982
     12 C          12.4106   41.7568    8.7460 C.ar    1  UNL1        0.0251
     13 N          13.0404   42.8135    5.4301 N.ar    1  UNL1       -0.3408
     14 N          13.8127   43.3486    7.5177 N.ar    1  UNL1       -0.2312
     15 H          12.9187   42.8081    4.4531 H       1  UNL1        0.1671
     16 C          14.7675   36.5699    9.2979 C.ar    1  UNL1        0.0611
     17 C          14.7391   37.9670    9.2463 C.ar    1  UNL1        0.0168
     18 C          13.5469   38.6599    9.4631 C.ar    1  UNL1        0.0160
     19 C          12.3586   37.9602    9.7126 C.ar    1  UNL1        0.0515
     20 C          12.3798   36.5639    9.7501 C.ar    1  UNL1        0.0273
     21 C          13.5700   35.8614    9.5357 C.ar    1  UNL1        0.0723
     22 CL         13.4894   34.1071    9.4777 Cl      1  UNL1       -0.0809
     23 C          17.3012   36.4869    9.2952 C.2     1  UNL1        0.2256
     24 O          17.4128   37.7188    9.5350 O.2     1  UNL1       -0.2748
     25 N          16.0130   35.9054    9.0577 N.am    1  UNL1       -0.2833
     26 H          15.9823   34.9866    8.7054 H       1  UNL1        0.1549
     27 C          19.3193   35.7501   10.5144 C.3     1  UNL1        0.0096
     28 C          18.5307   35.6445    9.2237 C.3     1  UNL1        0.0768
     29 C          18.1676   34.1961    8.9594 C.3     1  UNL1        0.0096
@<TRIPOS>BOND
     1    27    28    1
     2    28    29    1
     3    28    23    1
     4    23    25   am
     5    17    18   ar
     6    19     3    1
     7    19    20   ar
     8     1     5    1
     9     6     7   ar
    10     8    13   ar
    11    10     9    1
    12    11    14   ar
    13    11     8   ar
    14    12     5   ar
    15    21    22    1
    16    21    16   ar
    17    25    16    1
    18     3     1   am
    19    13     9   ar
    20    23    24    2
    21    16    17   ar
    22    18    19   ar
    23     1     2    2
    24     5     6   ar
    25     7     8   ar
    26     9    14   ar
    27    11    12   ar
    28    20    21   ar
    29    25    26    1
    30     3     4    1
    31    13    15    1
@<TRIPOS>MOLECULE
MolPort-045-953-891 CSSS00160216300 MCULE-4434783732
 29 31 0 0 0
SMALL
GASTEIGER

@<TRIPOS>ATOM
      1 C          10.0853   40.9694    9.7492 C.2     1  UNL1        0.2495
      2 O           9.1986   41.7262   10.2268 O.2     1  UNL1       -0.2698
      3 N          10.9277   40.2428   10.6548 N.am    1  UNL1       -0.2804
      4 H          10.5114   39.9034   11.4799 H       1  UNL1        0.1552
      5 C          10.1867   40.8093    8.2833 C.ar    1  UNL1        0.0553
      6 C          10.7720   41.8367    7.5016 C.ar    1  UNL1        0.0061
      7 C          10.8604   41.7211    6.1022 C.ar    1  UNL1        0.0187
      8 C          10.3453   40.5658    5.5229 C.ar    1  UNL1        0.0753
      9 C           9.7075   39.0319    4.2354 C.ar    1  UNL1        0.1175
     10 C           9.4453   38.2535    2.9959 C.3     1  UNL1        0.0716
     11 C           9.7704   39.5800    6.2632 C.ar    1  UNL1        0.0982
     12 C           9.6641   39.6615    7.6481 C.ar    1  UNL1        0.0251
     13 N          10.3196   40.2444    4.2218 N.ar    1  UNL1       -0.3408
     14 N           9.3523   38.5854    5.4680 N.ar    1  UNL1       -0.2312
     15 H          10.6581   40.7567    3.4523 H       1  UNL1        0.1671
     16 C          15.0348   39.4056    9.9891 C.ar    1  UNL1        0.0611
     17 C          14.3085   38.6512   10.9159 C.ar    1  UNL1        0.0168
     18 C          12.9583   38.9206   11.1459 C.ar    1  UNL1        0.0160
     19 C          12.3209   39.9669   10.4657 C.ar    1  UNL1        0.0515
     20 C          13.0468   40.7325    9.5500 C.ar    1  UNL1        0.0273
     21 C          14.3995   40.4688    9.3119 C.ar    1  UNL1        0.0723
     22 CL         15.2713   41.5530    8.2387 Cl      1  UNL1       -0.0809
     23 C          17.0878   37.9703   10.3787 C.2     1  UNL1        0.2256
     24 O          16.5295   37.2915   11.2815 O.2     1  UNL1       -0.2748
     25 N          16.4199   39.0972    9.7972 N.am    1  UNL1       -0.2833
     26 H          16.9495   39.7003    9.2270 H       1  UNL1        0.1549
     27 C          19.3958   38.8025   10.0911 C.3     1  UNL1        0.0096
     28 C          18.4699   37.6106    9.9463 C.3     1  UNL1        0.0768
     29 C          18.9965   36.4474   10.7642 C.3     1  UNL1        0.0096
@<TRIPOS>BOND
     1    27    28    1
     2    28    29    1
     3    28    23    1
     4    23    25   am
     5    17    18   ar
     6    19     3    1
     7    19    20   ar
     8     1     5    1
     9     6     7   ar
    10     8    13   ar
    11    10     9    1
    12    11    14   ar
    13    11     8   ar
    14    12     5   ar
    15    21    22    1
    16    21    16   ar
    17    25    16    1
    18     3     1   am
    19    13     9   ar
    20    23    24    2
    21    16    17   ar
    22    18    19   ar
    23     1     2    2
    24     5     6   ar
    25     7     8   ar
    26     9    14   ar
    27    11    12   ar
    28    20    21   ar
    29    25    26    1
    30     3     4    1
    31    13    15    1
@<TRIPOS>MOLECULE
MolPort-045-953-891 CSSS00160216300 MCULE-4434783732
 29 31 0 0 0
SMALL
GASTEIGER

@<TRIPOS>ATOM
      1 C          15.5219   39.1068   10.2731 C.2     1  UNL1        0.2495
      2 O          16.4462   38.2781   10.4871 O.2     1  UNL1       -0.2698
      3 N          14.2537   38.8999   10.9105 N.am    1  UNL1       -0.2804
      4 H          14.2658   38.5391   11.8264 H       1  UNL1        0.1552
      5 C          15.7919   40.2891    9.4280 C.ar    1  UNL1        0.0553
      6 C          17.0402   40.9536    9.5249 C.ar    1  UNL1        0.0061
      7 C          17.3154   42.0950    8.7497 C.ar    1  UNL1        0.0187
      8 C          16.3131   42.5439    7.8954 C.ar    1  UNL1        0.0753
      9 C          15.1216   43.5669    6.4987 C.ar    1  UNL1        0.1175
     10 C          14.6813   44.5651    5.4884 C.3     1  UNL1        0.0716
     11 C          15.1075   41.9205    7.8046 C.ar    1  UNL1        0.0982
     12 C          14.8002   40.7913    8.5573 C.ar    1  UNL1        0.0251
     13 N          16.3524   43.6011    7.0723 N.ar    1  UNL1       -0.3408
     14 N          14.3235   42.5517    6.9195 N.ar    1  UNL1       -0.2312
     15 H          17.0864   44.2397    6.9219 H       1  UNL1        0.1671
     16 C          10.4075   39.6860    9.2975 C.ar    1  UNL1        0.0611
     17 C          11.1907   38.6554    8.7682 C.ar    1  UNL1        0.0168
     18 C          12.4588   38.3908    9.2881 C.ar    1  UNL1        0.0160
     19 C          12.9708   39.1716   10.3331 C.ar    1  UNL1        0.0515
     20 C          12.1976   40.2117   10.8546 C.ar    1  UNL1        0.0273
     21 C          10.9253   40.4830   10.3411 C.ar    1  UNL1        0.0723
     22 CL         10.0681   41.8830   10.9675 Cl      1  UNL1       -0.0809
     23 C           8.8600   40.8677    7.6741 C.2     1  UNL1        0.2256
     24 O           9.7368   41.7084    7.3394 O.2     1  UNL1       -0.2748
     25 N           9.1181   39.9248    8.7221 N.am    1  UNL1       -0.2833
     26 H           8.3573   39.4060    9.0701 H       1  UNL1        0.1549
     27 C           7.2641   39.5563    6.3192 C.3     1  UNL1        0.0096
     28 C           7.5331   40.8882    6.9918 C.3     1  UNL1        0.0768
     29 C           6.4296   41.1954    7.9854 C.3     1  UNL1        0.0096
@<TRIPOS>BOND
     1    27    28    1
     2    28    29    1
     3    28    23    1
     4    23    25   am
     5    17    18   ar
     6    19     3    1
     7    19    20   ar
     8     1     5    1
     9     6     7   ar
    10     8    13   ar
    11    10     9    1
    12    11    14   ar
    13    11     8   ar
    14    12     5   ar
    15    21    22    1
    16    21    16   ar
    17    25    16    1
    18     3     1   am
    19    13     9   ar
    20    23    24    2
    21    16    17   ar
    22    18    19   ar
    23     1     2    2
    24     5     6   ar
    25     7     8   ar
    26     9    14   ar
    27    11    12   ar
    28    20    21   ar
    29    25    26    1
    30     3     4    1
    31    13    15    1
