@<TRIPOS>MOLECULE
Molport-047-071-943 MCULE-2569029529 PubChem-132764857
 27 29 0 0 0
SMALL
GASTEIGER

@<TRIPOS>ATOM
      1 C          11.1320   41.3716    8.2756 C.ar    1  UNL1        0.0528
      2 C          11.3593   41.1677    9.6429 C.ar    1  UNL1        0.0294
      3 C          10.3060   41.3139   10.5471 C.ar    1  UNL1        0.0602
      4 C          10.5389   41.0987   11.9987 C.3     1  UNL1        0.0521
      5 C           8.8182   41.8580    8.7767 C.ar    1  UNL1        0.0611
      6 C           9.8495   41.7189    7.8442 C.ar    1  UNL1        0.0294
      7 N           9.0674   41.6525   10.1004 N.ar    1  UNL1       -0.2538
      8 C           7.4494   42.2244    8.3080 C.3     1  UNL1        0.0602
      9 C           7.4844   43.5140    7.4854 C.3     1  UNL1        0.0094
     10 C           6.0789   43.8836    7.0155 C.3     1  UNL1        0.0220
     11 C           5.1546   44.0388    8.2191 C.3     1  UNL1        0.0937
     12 C           3.9597   42.1707    9.3988 C.2     1  UNL1        0.2492
     13 C           6.4964   42.3683    9.4946 C.3     1  UNL1        0.0996
     14 N           5.1901   42.8175    9.0192 N.am    1  UNL1       -0.2757
     15 O           2.8746   42.8027    9.2953 O.2     1  UNL1       -0.2699
     16 C           3.8935   40.7840    9.8985 C.2     1  UNL1        0.0579
     17 C           3.9751   40.4499   11.1794 C.2     1  UNL1        0.0048
     18 N          12.1743   41.2352    7.2993 N.pl3   1  UNL1       -0.2825
     19 H          12.0056   40.5993    6.5669 H       1  UNL1        0.1551
     20 C          13.4339   41.9199    7.2692 C.ar    1  UNL1        0.2200
     21 C          14.8100   43.6797    6.4838 C.ar    1  UNL1        0.0634
     22 C          14.9806   44.8947    5.6454 C.3     1  UNL1        0.0522
     23 C          15.8754   43.2019    7.2441 C.ar    1  UNL1        0.0296
     24 C          15.6751   42.0597    8.0170 C.ar    1  UNL1        0.0634
     25 C          16.7852   41.5172    8.8425 C.3     1  UNL1        0.0522
     26 N          13.6150   43.0346    6.5092 N.ar    1  UNL1       -0.2179
     27 N          14.4648   41.4424    8.0160 N.ar    1  UNL1       -0.2179
@<TRIPOS>BOND
     1    20    18    1
     2    20    27   ar
     3     2     3   ar
     4     4     3    1
     5     5     7   ar
     6     8     5    1
     7     8     9    1
     8     9    10    1
     9    10    11    1
    10    11    14    1
    11    12    16    1
    12    13    14    1
    13    13     8    1
    14     6     1   ar
    15    21    26   ar
    16    22    21    1
    17    23    24   ar
    18    25    24    1
    19    18     1    1
    20    14    12   am
    21    20    26   ar
    22     1     2   ar
    23     3     7   ar
    24     5     6   ar
    25    12    15    2
    26    16    17    2
    27    21    23   ar
    28    24    27   ar
    29    18    19    1
@<TRIPOS>MOLECULE
Molport-047-071-943 MCULE-2569029529 PubChem-132764857
 27 29 0 0 0
SMALL
GASTEIGER

@<TRIPOS>ATOM
      1 C          11.5217   41.4391    5.7397 C.ar    1  UNL1        0.0528
      2 C          11.3981   40.3379    4.8825 C.ar    1  UNL1        0.0294
      3 C          10.2154   39.5966    4.8773 C.ar    1  UNL1        0.0602
      4 C          10.0763   38.4277    3.9706 C.3     1  UNL1        0.0521
      5 C           9.2840   41.0088    6.5453 C.ar    1  UNL1        0.0611
      6 C          10.4533   41.7733    6.5753 C.ar    1  UNL1        0.0294
      7 N           9.1908   39.9436    5.7008 N.ar    1  UNL1       -0.2538
      8 C           8.1448   41.3746    7.4372 C.3     1  UNL1        0.0602
      9 C           7.0539   40.3026    7.3920 C.3     1  UNL1        0.0094
     10 C           5.8904   40.6887    8.3030 C.3     1  UNL1        0.0220
     11 C           5.3302   42.0436    7.8815 C.3     1  UNL1        0.0937
     12 C           6.2383   44.2822    8.5695 C.2     1  UNL1        0.2492
     13 C           7.5753   42.7389    7.0484 C.3     1  UNL1        0.0996
     14 N           6.4054   43.0320    7.8728 N.am    1  UNL1       -0.2757
     15 O           5.0839   44.6373    8.9286 O.2     1  UNL1       -0.2699
     16 C           7.3603   45.1803    8.9037 C.2     1  UNL1        0.0579
     17 C           8.3879   44.8350    9.6676 C.2     1  UNL1        0.0048
     18 N          12.7117   42.2389    5.7890 N.pl3   1  UNL1       -0.2825
     19 H          12.7793   42.9620    5.1243 H       1  UNL1        0.1551
     20 C          13.8138   42.1048    6.6966 C.ar    1  UNL1        0.2200
     21 C          15.9607   42.7610    7.4501 C.ar    1  UNL1        0.0634
     22 C          17.1555   43.6332    7.3093 C.3     1  UNL1        0.0522
     23 C          15.9080   41.8091    8.4663 C.ar    1  UNL1        0.0296
     24 C          14.7701   41.0106    8.5647 C.ar    1  UNL1        0.0634
     25 C          14.6737   39.9833    9.6341 C.3     1  UNL1        0.0522
     26 N          14.9192   42.8918    6.5881 N.ar    1  UNL1       -0.2179
     27 N          13.7489   41.1716    7.6833 N.ar    1  UNL1       -0.2179
@<TRIPOS>BOND
     1    20    18    1
     2    20    27   ar
     3     2     3   ar
     4     4     3    1
     5     5     7   ar
     6     8     5    1
     7     8     9    1
     8     9    10    1
     9    10    11    1
    10    11    14    1
    11    12    16    1
    12    13    14    1
    13    13     8    1
    14     6     1   ar
    15    21    26   ar
    16    22    21    1
    17    23    24   ar
    18    25    24    1
    19    18     1    1
    20    14    12   am
    21    20    26   ar
    22     1     2   ar
    23     3     7   ar
    24     5     6   ar
    25    12    15    2
    26    16    17    2
    27    21    23   ar
    28    24    27   ar
    29    18    19    1
@<TRIPOS>MOLECULE
Molport-047-071-943 MCULE-2569029529 PubChem-132764857
 27 29 0 0 0
SMALL
GASTEIGER

@<TRIPOS>ATOM
      1 C          15.6197   41.9497    7.9692 C.ar    1  UNL1        0.0528
      2 C          15.8430   43.1056    7.2097 C.ar    1  UNL1        0.0294
      3 C          14.7792   43.7004    6.5292 C.ar    1  UNL1        0.0602
      4 C          15.0076   44.9268    5.7221 C.3     1  UNL1        0.0521
      5 C          13.2891   42.0348    7.3350 C.ar    1  UNL1        0.0611
      6 C          14.3309   41.4143    8.0295 C.ar    1  UNL1        0.0294
      7 N          13.5346   43.1588    6.6049 N.ar    1  UNL1       -0.2538
      8 C          11.9137   41.4601    7.4079 C.3     1  UNL1        0.0602
      9 C          11.4920   41.2444    8.8629 C.3     1  UNL1        0.0094
     10 C          10.0862   40.6508    8.9269 C.3     1  UNL1        0.0220
     11 C          10.0434   39.3361    8.1544 C.3     1  UNL1        0.0937
     12 C           9.7192   39.1044    5.6743 C.2     1  UNL1        0.2492
     13 C          11.8375   40.1493    6.6253 C.3     1  UNL1        0.0996
     14 N          10.5108   39.5600    6.7888 N.am    1  UNL1       -0.2757
     15 O           8.7936   38.2735    5.8755 O.2     1  UNL1       -0.2699
     16 C           9.9246   39.5709    4.2897 C.2     1  UNL1        0.0579
     17 C           9.6057   38.8666    3.2121 C.2     1  UNL1        0.0048
     18 N          16.6727   41.2945    8.6904 N.pl3   1  UNL1       -0.2825
     19 H          17.5817   41.6455    8.5501 H       1  UNL1        0.1551
     20 C          16.5514   40.1864    9.5926 C.ar    1  UNL1        0.2200
     21 C          17.4634   38.2727   10.6479 C.ar    1  UNL1        0.0634
     22 C          18.6052   37.3429   10.8476 C.3     1  UNL1        0.0522
     23 C          16.2700   38.0700   11.3380 C.ar    1  UNL1        0.0296
     24 C          15.2229   38.9641   11.1230 C.ar    1  UNL1        0.0634
     25 C          13.9333   38.7838   11.8390 C.3     1  UNL1        0.0522
     26 N          17.5829   39.3209    9.7924 N.ar    1  UNL1       -0.2179
     27 N          15.3811   40.0006   10.2591 N.ar    1  UNL1       -0.2179
@<TRIPOS>BOND
     1    20    18    1
     2    20    27   ar
     3     2     3   ar
     4     4     3    1
     5     5     7   ar
     6     8     5    1
     7     8     9    1
     8     9    10    1
     9    10    11    1
    10    11    14    1
    11    12    16    1
    12    13    14    1
    13    13     8    1
    14     6     1   ar
    15    21    26   ar
    16    22    21    1
    17    23    24   ar
    18    25    24    1
    19    18     1    1
    20    14    12   am
    21    20    26   ar
    22     1     2   ar
    23     3     7   ar
    24     5     6   ar
    25    12    15    2
    26    16    17    2
    27    21    23   ar
    28    24    27   ar
    29    18    19    1
@<TRIPOS>MOLECULE
Molport-047-071-943 MCULE-2569029529 PubChem-132764857
 27 29 0 0 0
SMALL
GASTEIGER

@<TRIPOS>ATOM
      1 C          11.9598   41.0473    7.4695 C.ar    1  UNL1        0.0528
      2 C          12.1024   39.8172    8.1245 C.ar    1  UNL1        0.0294
      3 C          10.9665   39.1237    8.5457 C.ar    1  UNL1        0.0602
      4 C          11.1093   37.8182    9.2405 C.3     1  UNL1        0.0521
      5 C           9.5620   40.8363    7.6865 C.ar    1  UNL1        0.0611
      6 C          10.6774   41.5564    7.2507 C.ar    1  UNL1        0.0294
      7 N           9.7300   39.6418    8.3200 N.ar    1  UNL1       -0.2538
      8 C           8.1947   41.3839    7.4451 C.3     1  UNL1        0.0602
      9 C           8.2227   42.4487    6.3466 C.3     1  UNL1        0.0094
     10 C           6.8207   43.0069    6.1110 C.3     1  UNL1        0.0220
     11 C           6.2698   43.5883    7.4093 C.3     1  UNL1        0.0937
     12 C           5.1347   42.2853    9.2322 C.2     1  UNL1        0.2492
     13 C           7.6105   41.9572    8.7360 C.3     1  UNL1        0.0996
     14 N           6.3142   42.5695    8.4549 N.am    1  UNL1       -0.2757
     15 O           4.1731   43.0993    9.2119 O.2     1  UNL1       -0.2699
     16 C           4.9794   41.0705   10.0551 C.2     1  UNL1        0.0579
     17 C           5.1037   41.0450   11.3753 C.2     1  UNL1        0.0048
     18 N          13.0893   41.8051    7.0132 N.pl3   1  UNL1       -0.2825
     19 H          12.9430   42.3731    6.2225 H       1  UNL1        0.1551
     20 C          14.4071   41.8293    7.5782 C.ar    1  UNL1        0.2200
     21 C          16.5699   42.7806    7.7354 C.ar    1  UNL1        0.0634
     22 C          17.5503   43.8097    7.3020 C.3     1  UNL1        0.0522
     23 C          16.9292   41.8349    8.6936 C.ar    1  UNL1        0.0296
     24 C          15.9812   40.8865    9.0731 C.ar    1  UNL1        0.0634
     25 C          16.3237   39.8603   10.0918 C.3     1  UNL1        0.0522
     26 N          15.3228   42.7617    7.1975 N.ar    1  UNL1       -0.2179
     27 N          14.7440   40.9004    8.5120 N.ar    1  UNL1       -0.2179
@<TRIPOS>BOND
     1    20    18    1
     2    20    27   ar
     3     2     3   ar
     4     4     3    1
     5     5     7   ar
     6     8     5    1
     7     8     9    1
     8     9    10    1
     9    10    11    1
    10    11    14    1
    11    12    16    1
    12    13    14    1
    13    13     8    1
    14     6     1   ar
    15    21    26   ar
    16    22    21    1
    17    23    24   ar
    18    25    24    1
    19    18     1    1
    20    14    12   am
    21    20    26   ar
    22     1     2   ar
    23     3     7   ar
    24     5     6   ar
    25    12    15    2
    26    16    17    2
    27    21    23   ar
    28    24    27   ar
    29    18    19    1
@<TRIPOS>MOLECULE
Molport-047-071-943 MCULE-2569029529 PubChem-132764857
 27 29 0 0 0
SMALL
GASTEIGER

@<TRIPOS>ATOM
      1 C          12.7685   42.1327    6.4685 C.ar    1  UNL1        0.0528
      2 C          13.8897   42.9434    6.2488 C.ar    1  UNL1        0.0294
      3 C          15.0480   42.7378    7.0001 C.ar    1  UNL1        0.0602
      4 C          16.2415   43.5931    6.7726 C.3     1  UNL1        0.0521
      5 C          14.0093   40.9531    8.1745 C.ar    1  UNL1        0.0611
      6 C          12.8340   41.1307    7.4398 C.ar    1  UNL1        0.0294
      7 N          15.0850   41.7554    7.9391 N.ar    1  UNL1       -0.2538
      8 C          14.0737   39.8774    9.2071 C.3     1  UNL1        0.0602
      9 C          13.0956   40.1617   10.3489 C.3     1  UNL1        0.0094
     10 C          13.1731   39.0591   11.4029 C.3     1  UNL1        0.0220
     11 C          14.5995   38.9480   11.9322 C.3     1  UNL1        0.0937
     12 C          16.4650   37.6559   10.8554 C.2     1  UNL1        0.2492
     13 C          15.4982   39.7318    9.7422 C.3     1  UNL1        0.0996
     14 N          15.5172   38.7404   10.8151 N.am    1  UNL1       -0.2757
     15 O          16.6977   37.0821   11.9528 O.2     1  UNL1       -0.2699
     16 C          17.1822   37.1614    9.6645 C.2     1  UNL1        0.0579
     17 C          16.8019   36.1112    8.9494 C.2     1  UNL1        0.0048
     18 N          11.5509   42.2958    5.7276 N.pl3   1  UNL1       -0.2825
     19 H          11.4277   43.1619    5.2760 H       1  UNL1        0.1551
     20 C          10.4930   41.3406    5.5700 C.ar    1  UNL1        0.2200
     21 C           8.3995   40.4500    6.2268 C.ar    1  UNL1        0.0634
     22 C           7.2160   40.4903    7.1246 C.3     1  UNL1        0.0522
     23 C           8.4843   39.4824    5.2278 C.ar    1  UNL1        0.0296
     24 C           9.6103   39.4780    4.4066 C.ar    1  UNL1        0.0634
     25 C           9.7401   38.4630    3.3291 C.3     1  UNL1        0.0522
     26 N           9.3990   41.3568    6.3798 N.ar    1  UNL1       -0.2179
     27 N          10.5892   40.4019    4.5911 N.ar    1  UNL1       -0.2179
@<TRIPOS>BOND
     1    20    18    1
     2    20    27   ar
     3     2     3   ar
     4     4     3    1
     5     5     7   ar
     6     8     5    1
     7     8     9    1
     8     9    10    1
     9    10    11    1
    10    11    14    1
    11    12    16    1
    12    13    14    1
    13    13     8    1
    14     6     1   ar
    15    21    26   ar
    16    22    21    1
    17    23    24   ar
    18    25    24    1
    19    18     1    1
    20    14    12   am
    21    20    26   ar
    22     1     2   ar
    23     3     7   ar
    24     5     6   ar
    25    12    15    2
    26    16    17    2
    27    21    23   ar
    28    24    27   ar
    29    18    19    1
@<TRIPOS>MOLECULE
Molport-047-071-943 MCULE-2569029529 PubChem-132764857
 27 29 0 0 0
SMALL
GASTEIGER

@<TRIPOS>ATOM
      1 C          15.8119   41.9239    8.0429 C.ar    1  UNL1        0.0528
      2 C          15.9279   43.0242    7.1836 C.ar    1  UNL1        0.0294
      3 C          14.7924   43.5214    6.5418 C.ar    1  UNL1        0.0602
      4 C          14.9070   44.6885    5.6294 C.3     1  UNL1        0.0521
      5 C          13.4403   41.8673    7.5808 C.ar    1  UNL1        0.0611
      6 C          14.5560   41.3448    8.2401 C.ar    1  UNL1        0.0294
      7 N          13.5820   42.9390    6.7514 N.ar    1  UNL1       -0.2538
      8 C          12.1009   41.2467    7.8000 C.3     1  UNL1        0.0602
      9 C          11.9347   40.8152    9.2587 C.3     1  UNL1        0.0094
     10 C          10.5639   40.1762    9.4716 C.3     1  UNL1        0.0220
     11 C          10.3978   38.9829    8.5359 C.3     1  UNL1        0.0937
     12 C           9.6568   39.0936    6.1384 C.2     1  UNL1        0.2492
     13 C          11.9001   40.0576    6.8606 C.3     1  UNL1        0.0996
     14 N          10.6241   39.4112    7.1580 N.am    1  UNL1       -0.2757
     15 O           8.7839   38.2149    6.3702 O.2     1  UNL1       -0.2699
     16 C           9.6203   39.7567    4.8208 C.2     1  UNL1        0.0579
     17 C          10.6859   39.9508    4.0555 C.2     1  UNL1        0.0048
     18 N          16.9423   41.3693    8.7305 N.pl3   1  UNL1       -0.2825
     19 H          17.8026   41.8292    8.5976 H       1  UNL1        0.1551
     20 C          16.9614   40.2211    9.5895 C.ar    1  UNL1        0.2200
     21 C          15.8857   38.7664   11.1174 C.ar    1  UNL1        0.0634
     22 C          14.6723   38.3886   11.8873 C.3     1  UNL1        0.0522
     23 C          17.0472   38.0047   11.2282 C.ar    1  UNL1        0.0296
     24 C          18.1638   38.3921   10.4898 C.ar    1  UNL1        0.0634
     25 C          19.4225   37.6073   10.5793 C.3     1  UNL1        0.0522
     26 N          15.8629   39.8548   10.3050 N.ar    1  UNL1       -0.2179
     27 N          18.1016   39.4872    9.6881 N.ar    1  UNL1       -0.2179
@<TRIPOS>BOND
     1    20    18    1
     2    20    27   ar
     3     2     3   ar
     4     4     3    1
     5     5     7   ar
     6     8     5    1
     7     8     9    1
     8     9    10    1
     9    10    11    1
    10    11    14    1
    11    12    16    1
    12    13    14    1
    13    13     8    1
    14     6     1   ar
    15    21    26   ar
    16    22    21    1
    17    23    24   ar
    18    25    24    1
    19    18     1    1
    20    14    12   am
    21    20    26   ar
    22     1     2   ar
    23     3     7   ar
    24     5     6   ar
    25    12    15    2
    26    16    17    2
    27    21    23   ar
    28    24    27   ar
    29    18    19    1
@<TRIPOS>MOLECULE
Molport-047-071-943 MCULE-2569029529 PubChem-132764857
 27 29 0 0 0
SMALL
GASTEIGER

@<TRIPOS>ATOM
      1 C          16.4688   41.8870    8.4166 C.ar    1  UNL1        0.0528
      2 C          16.7809   43.0309    7.6703 C.ar    1  UNL1        0.0294
      3 C          15.7943   43.6366    6.8905 C.ar    1  UNL1        0.0602
      4 C          16.1172   44.8503    6.0966 C.3     1  UNL1        0.0521
      5 C          14.2074   42.0053    7.5720 C.ar    1  UNL1        0.0611
      6 C          15.1704   41.3744    8.3641 C.ar    1  UNL1        0.0294
      7 N          14.5384   43.1171    6.8573 N.ar    1  UNL1       -0.2538
      8 C          12.8209   41.4550    7.5246 C.3     1  UNL1        0.0602
      9 C          12.2724   41.4879    6.0965 C.3     1  UNL1        0.0094
     10 C          10.8517   40.9285    6.0593 C.3     1  UNL1        0.0220
     11 C           9.9550   41.7295    6.9980 C.3     1  UNL1        0.0937
     12 C           9.7279   41.3646    9.4728 C.2     1  UNL1        0.2492
     13 C          11.9037   42.2287    8.4716 C.3     1  UNL1        0.0996
     14 N          10.5356   41.7337    8.3381 N.am    1  UNL1       -0.2757
     15 O           8.4745   41.3250    9.3495 O.2     1  UNL1       -0.2699
     16 C          10.2926   41.0123   10.7897 C.2     1  UNL1        0.0579
     17 C           9.6468   41.1566   11.9390 C.2     1  UNL1        0.0048
     18 N          17.4399   41.2216    9.2366 N.pl3   1  UNL1       -0.2825
     19 H          18.3074   41.6751    9.3407 H       1  UNL1        0.1551
     20 C          17.2903   39.9707    9.9218 C.ar    1  UNL1        0.2200
     21 C          18.1431   37.8627   10.5825 C.ar    1  UNL1        0.0634
     22 C          19.2497   36.8709   10.5780 C.3     1  UNL1        0.0522
     23 C          16.9554   37.5793   11.2537 C.ar    1  UNL1        0.0296
     24 C          15.9416   38.5354   11.2341 C.ar    1  UNL1        0.0634
     25 C          14.6592   38.2729   11.9374 C.3     1  UNL1        0.0522
     26 N          18.2893   39.0461    9.9321 N.ar    1  UNL1       -0.2179
     27 N          16.1259   39.7075   10.5724 N.ar    1  UNL1       -0.2179
@<TRIPOS>BOND
     1    20    18    1
     2    20    27   ar
     3     2     3   ar
     4     4     3    1
     5     5     7   ar
     6     8     5    1
     7     8     9    1
     8     9    10    1
     9    10    11    1
    10    11    14    1
    11    12    16    1
    12    13    14    1
    13    13     8    1
    14     6     1   ar
    15    21    26   ar
    16    22    21    1
    17    23    24   ar
    18    25    24    1
    19    18     1    1
    20    14    12   am
    21    20    26   ar
    22     1     2   ar
    23     3     7   ar
    24     5     6   ar
    25    12    15    2
    26    16    17    2
    27    21    23   ar
    28    24    27   ar
    29    18    19    1
@<TRIPOS>MOLECULE
Molport-047-071-943 MCULE-2569029529 PubChem-132764857
 27 29 0 0 0
SMALL
GASTEIGER

@<TRIPOS>ATOM
      1 C          11.2949   41.3970    5.7895 C.ar    1  UNL1        0.0528
      2 C          11.0035   40.5193    4.7371 C.ar    1  UNL1        0.0294
      3 C           9.8646   39.7151    4.8044 C.ar    1  UNL1        0.0602
      4 C           9.5483   38.7821    3.6921 C.3     1  UNL1        0.0521
      5 C           9.3041   40.6289    6.9244 C.ar    1  UNL1        0.0611
      6 C          10.4351   41.4488    6.8893 C.ar    1  UNL1        0.0294
      7 N           9.0445   39.7854    5.8864 N.ar    1  UNL1       -0.2538
      8 C           8.3873   40.6931    8.1003 C.3     1  UNL1        0.0602
      9 C           6.9653   41.0486    7.6612 C.3     1  UNL1        0.0094
     10 C           6.0363   41.1177    8.8715 C.3     1  UNL1        0.0220
     11 C           6.5626   42.1435    9.8704 C.3     1  UNL1        0.0937
     12 C           8.3274   41.7243   11.6079 C.2     1  UNL1        0.2492
     13 C           8.9016   41.7017    9.1274 C.3     1  UNL1        0.0996
     14 N           7.9414   41.8151   10.2227 N.am    1  UNL1       -0.2757
     15 O           7.5686   42.2055   12.4913 O.2     1  UNL1       -0.2699
     16 C           9.5746   41.0792   12.0614 C.2     1  UNL1        0.0579
     17 C          10.6980   41.0538   11.3571 C.2     1  UNL1        0.0048
     18 N          12.4497   42.2481    5.7767 N.pl3   1  UNL1       -0.2825
     19 H          12.4512   42.9715    5.1090 H       1  UNL1        0.1551
     20 C          13.6021   42.1648    6.6262 C.ar    1  UNL1        0.2200
     21 C          15.7402   42.9376    7.2883 C.ar    1  UNL1        0.0634
     22 C          16.8714   43.8844    7.1087 C.3     1  UNL1        0.0522
     23 C          15.7965   41.9648    8.2843 C.ar    1  UNL1        0.0296
     24 C          14.7156   41.0958    8.4204 C.ar    1  UNL1        0.0634
     25 C          14.7354   40.0440    9.4699 C.3     1  UNL1        0.0522
     26 N          14.6508   43.0204    6.4814 N.ar    1  UNL1       -0.2179
     27 N          13.6435   41.2105    7.5937 N.ar    1  UNL1       -0.2179
@<TRIPOS>BOND
     1    20    18    1
     2    20    27   ar
     3     2     3   ar
     4     4     3    1
     5     5     7   ar
     6     8     5    1
     7     8     9    1
     8     9    10    1
     9    10    11    1
    10    11    14    1
    11    12    16    1
    12    13    14    1
    13    13     8    1
    14     6     1   ar
    15    21    26   ar
    16    22    21    1
    17    23    24   ar
    18    25    24    1
    19    18     1    1
    20    14    12   am
    21    20    26   ar
    22     1     2   ar
    23     3     7   ar
    24     5     6   ar
    25    12    15    2
    26    16    17    2
    27    21    23   ar
    28    24    27   ar
    29    18    19    1
@<TRIPOS>MOLECULE
Molport-047-071-943 MCULE-2569029529 PubChem-132764857
 27 29 0 0 0
SMALL
GASTEIGER

@<TRIPOS>ATOM
      1 C          12.6957   42.2278    6.5162 C.ar    1  UNL1        0.0528
      2 C          13.7567   43.0553    6.1262 C.ar    1  UNL1        0.0294
      3 C          14.9967   42.9300    6.7549 C.ar    1  UNL1        0.0602
      4 C          16.1272   43.8035    6.3466 C.3     1  UNL1        0.0521
      5 C          14.1562   41.1924    8.1398 C.ar    1  UNL1        0.0611
      6 C          12.9022   41.2903    7.5310 C.ar    1  UNL1        0.0294
      7 N          15.1707   42.0093    7.7398 N.ar    1  UNL1       -0.2538
      8 C          14.3710   40.1852    9.2200 C.3     1  UNL1        0.0602
      9 C          15.8394   40.1543    9.6492 C.3     1  UNL1        0.0094
     10 C          16.0501   39.1170   10.7502 C.3     1  UNL1        0.0220
     11 C          15.6046   37.7430   10.2594 C.3     1  UNL1        0.0937
     12 C          13.2489   36.8718   10.2841 C.2     1  UNL1        0.2492
     13 C          13.9150   38.8003    8.7609 C.3     1  UNL1        0.0996
     14 N          14.2210   37.8176    9.7977 N.am    1  UNL1       -0.2757
     15 O          13.6445   35.8255   10.8642 O.2     1  UNL1       -0.2699
     16 C          11.7922   37.0658   10.1515 C.2     1  UNL1        0.0579
     17 C          11.2198   37.7649    9.1806 C.2     1  UNL1        0.0048
     18 N          11.3995   42.3096    5.9068 N.pl3   1  UNL1       -0.2825
     19 H          11.0878   43.2112    5.6635 H       1  UNL1        0.1551
     20 C          10.5063   41.2272    5.6118 C.ar    1  UNL1        0.2200
     21 C           8.4403   40.1116    5.9195 C.ar    1  UNL1        0.0634
     22 C           7.1102   40.0393    6.5781 C.3     1  UNL1        0.0522
     23 C           8.8235   39.1263    5.0120 C.ar    1  UNL1        0.0296
     24 C          10.0789   39.2300    4.4158 C.ar    1  UNL1        0.0634
     25 C          10.5265   38.2003    3.4424 C.3     1  UNL1        0.0522
     26 N           9.2829   41.1388    6.2021 N.ar    1  UNL1       -0.2179
     27 N          10.8935   40.2726    4.7244 N.ar    1  UNL1       -0.2179
@<TRIPOS>BOND
     1    20    18    1
     2    20    27   ar
     3     2     3   ar
     4     4     3    1
     5     5     7   ar
     6     8     5    1
     7     8     9    1
     8     9    10    1
     9    10    11    1
    10    11    14    1
    11    12    16    1
    12    13    14    1
    13    13     8    1
    14     6     1   ar
    15    21    26   ar
    16    22    21    1
    17    23    24   ar
    18    25    24    1
    19    18     1    1
    20    14    12   am
    21    20    26   ar
    22     1     2   ar
    23     3     7   ar
    24     5     6   ar
    25    12    15    2
    26    16    17    2
    27    21    23   ar
    28    24    27   ar
    29    18    19    1
@<TRIPOS>MOLECULE
Molport-047-071-943 MCULE-2569029529 PubChem-132764857
 27 29 0 0 0
SMALL
GASTEIGER

@<TRIPOS>ATOM
      1 C          13.7204   39.7973    9.4969 C.ar    1  UNL1        0.0528
      2 C          13.4729   38.4206    9.5755 C.ar    1  UNL1        0.0294
      3 C          12.1949   37.9669    9.9062 C.ar    1  UNL1        0.0602
      4 C          11.9242   36.5084    9.9910 C.3     1  UNL1        0.0521
      5 C          11.4107   40.2024   10.0821 C.ar    1  UNL1        0.0611
      6 C          12.6777   40.6911    9.7527 C.ar    1  UNL1        0.0294
      7 N          11.1979   38.8584   10.1502 N.ar    1  UNL1       -0.2538
      8 C          10.3002   41.1631   10.3492 C.3     1  UNL1        0.0602
      9 C           9.8601   41.0909   11.8129 C.3     1  UNL1        0.0094
     10 C           8.7201   42.0729   12.0748 C.3     1  UNL1        0.0220
     11 C           7.5493   41.7669   11.1459 C.3     1  UNL1        0.0937
     12 C           7.3121   42.5659    8.7763 C.2     1  UNL1        0.2492
     13 C           9.1191   40.8906    9.4178 C.3     1  UNL1        0.0996
     14 N           8.0123   41.7804    9.7607 N.am    1  UNL1       -0.2757
     15 O           6.1570   42.9952    9.0394 O.2     1  UNL1       -0.2699
     16 C           7.8829   42.9131    7.4608 C.2     1  UNL1        0.0579
     17 C           7.1861   42.9472    6.3328 C.2     1  UNL1        0.0048
     18 N          15.0122   40.3231    9.1612 N.pl3   1  UNL1       -0.2825
     19 H          15.7882   39.8447    9.5330 H       1  UNL1        0.1551
     20 C          15.3016   41.4665    8.3454 C.ar    1  UNL1        0.2200
     21 C          14.7002   42.9879    6.6334 C.ar    1  UNL1        0.0634
     22 C          13.7218   43.4449    5.6126 C.3     1  UNL1        0.0522
     23 C          15.9034   43.6704    6.8009 C.ar    1  UNL1        0.0296
     24 C          16.7943   43.2102    7.7686 C.ar    1  UNL1        0.0634
     25 C          18.0886   43.9094    7.9793 C.3     1  UNL1        0.0522
     26 N          14.4217   41.9044    7.4037 N.ar    1  UNL1       -0.2179
     27 N          16.4796   42.1227    8.5196 N.ar    1  UNL1       -0.2179
@<TRIPOS>BOND
     1    20    18    1
     2    20    27   ar
     3     2     3   ar
     4     4     3    1
     5     5     7   ar
     6     8     5    1
     7     8     9    1
     8     9    10    1
     9    10    11    1
    10    11    14    1
    11    12    16    1
    12    13    14    1
    13    13     8    1
    14     6     1   ar
    15    21    26   ar
    16    22    21    1
    17    23    24   ar
    18    25    24    1
    19    18     1    1
    20    14    12   am
    21    20    26   ar
    22     1     2   ar
    23     3     7   ar
    24     5     6   ar
    25    12    15    2
    26    16    17    2
    27    21    23   ar
    28    24    27   ar
    29    18    19    1
