@<TRIPOS>MOLECULE
MolPort-009-751-443 62023085 CSSS03437051065 MCULE-6511131651 PubChem-52907991 ZINC000062023085 ZINC62023085
 20 21 0 0 0
SMALL
GASTEIGER

@<TRIPOS>ATOM
      1 C          10.3764   41.0063    5.9398 C.ar    1  UNL1        0.1783
      2 C          10.0178   41.7222    7.0665 C.ar    1  UNL1        0.2065
      3 C          12.1294   41.6853    6.8697 C.ar    1  UNL1        0.2954
      4 O          11.1402   42.1252    7.6130 O.2     1  UNL1       -0.4202
      5 N          11.7161   40.9759    5.8042 N.ar    1  UNL1       -0.1896
      6 C           9.4471   40.3608    5.0061 C.2     1  UNL1        0.2890
      7 O           8.2408   40.1919    5.3300 O.2     1  UNL1       -0.2663
      8 N           9.9123   39.9226    3.7277 N.am    1  UNL1       -0.1883
      9 H          10.8589   40.0506    3.4895 H       1  UNL1        0.1829
     10 C           9.4243   37.9823    2.8564 C.3     1  UNL1        0.2055
     11 O           9.0777   39.3346    2.8364 O.3     1  UNL1       -0.2633
     12 C          14.2145   43.1187    6.7847 C.2     1  UNL1        0.2588
     13 O          13.6240   44.0514    6.1763 O.2     1  UNL1       -0.2691
     14 N          13.5111   41.9257    7.1486 N.am    1  UNL1       -0.2351
     15 H          14.0127   41.2237    7.6228 H       1  UNL1        0.1596
     16 C          15.6354   43.2568    7.1230 C.ar    1  UNL1        0.0832
     17 C          16.3501   42.4239    7.9699 C.ar    1  UNL1        0.0116
     18 C          17.6932   42.8063    8.1007 C.ar    1  UNL1        0.0076
     19 C          18.0458   43.9351    7.3641 C.ar    1  UNL1        0.0356
     20 S          16.6664   44.4489    6.5498 S.2     1  UNL1       -0.0819
@<TRIPOS>BOND
     1    10    11    1
     2     6     1    1
     3     1     5   ar
     4     2     4   ar
     5     3     4   ar
     6     3    14    1
     7    12    16    1
     8    16    20   ar
     9    17    18   ar
    10    19    20   ar
    11     8    11    1
    12     8     6   am
    13    14    12   am
    14     6     7    2
    15     1     2   ar
    16     3     5   ar
    17    12    13    2
    18    16    17   ar
    19    18    19   ar
    20     8     9    1
    21    14    15    1
@<TRIPOS>MOLECULE
MolPort-009-751-443 62023085 CSSS03437051065 MCULE-6511131651 PubChem-52907991 ZINC000062023085 ZINC62023085
 20 21 0 0 0
SMALL
GASTEIGER

@<TRIPOS>ATOM
      1 C          10.3516   40.8082    6.3668 C.ar    1  UNL1        0.1783
      2 C          10.7323   39.5208    6.6958 C.ar    1  UNL1        0.2065
      3 C          12.3233   40.8702    7.0789 C.ar    1  UNL1        0.2954
      4 O          11.9657   39.6078    7.1340 O.2     1  UNL1       -0.4202
      5 N          11.3546   41.6747    6.6060 N.ar    1  UNL1       -0.1896
      6 C           9.0439   41.2018    5.8310 C.2     1  UNL1        0.2890
      7 O           8.3728   40.3886    5.1404 O.2     1  UNL1       -0.2663
      8 N           8.5319   42.5103    6.0927 N.am    1  UNL1       -0.1883
      9 H           9.0694   43.1405    6.6248 H       1  UNL1        0.1829
     10 C           6.7002   43.5243    6.7079 C.3     1  UNL1        0.2055
     11 O           7.3221   42.9016    5.6240 O.3     1  UNL1       -0.2633
     12 C          14.3231   42.3974    6.7993 C.2     1  UNL1        0.2588
     13 O          13.8348   42.9531    5.7787 O.2     1  UNL1       -0.2691
     14 N          13.6072   41.3586    7.4765 N.am    1  UNL1       -0.2351
     15 H          14.0272   40.9532    8.2693 H       1  UNL1        0.1596
     16 C          15.6370   42.8190    7.2978 C.ar    1  UNL1        0.0832
     17 C          16.4125   42.1303    8.2175 C.ar    1  UNL1        0.0116
     18 C          17.6224   42.7802    8.5019 C.ar    1  UNL1        0.0076
     19 C          17.8094   43.9776    7.8145 C.ar    1  UNL1        0.0356
     20 S          16.4515   44.2150    6.8502 S.2     1  UNL1       -0.0819
@<TRIPOS>BOND
     1    10    11    1
     2     6     1    1
     3     1     5   ar
     4     2     4   ar
     5     3     4   ar
     6     3    14    1
     7    12    16    1
     8    16    20   ar
     9    17    18   ar
    10    19    20   ar
    11     8    11    1
    12     8     6   am
    13    14    12   am
    14     6     7    2
    15     1     2   ar
    16     3     5   ar
    17    12    13    2
    18    16    17   ar
    19    18    19   ar
    20     8     9    1
    21    14    15    1
@<TRIPOS>MOLECULE
MolPort-009-751-443 62023085 CSSS03437051065 MCULE-6511131651 PubChem-52907991 ZINC000062023085 ZINC62023085
 20 21 0 0 0
SMALL
GASTEIGER

@<TRIPOS>ATOM
      1 C           9.7780   41.4650    6.4203 C.ar    1  UNL1        0.1783
      2 C          10.3255   40.9480    5.2612 C.ar    1  UNL1        0.2065
      3 C          11.8663   41.4968    6.6116 C.ar    1  UNL1        0.2954
      4 O          11.6264   40.9874    5.4252 O.2     1  UNL1       -0.4202
      5 N          10.7476   41.8172    7.2862 N.ar    1  UNL1       -0.1896
      6 C           8.3449   41.6183    6.6937 C.2     1  UNL1        0.2890
      7 O           7.5302   41.7522    5.7413 O.2     1  UNL1       -0.2663
      8 N           7.8734   41.6165    8.0430 N.am    1  UNL1       -0.1883
      9 H           8.5200   41.5214    8.7792 H       1  UNL1        0.1829
     10 C           6.4647   41.5319    9.7073 C.3     1  UNL1        0.2055
     11 O           6.5551   41.7429    8.3302 O.3     1  UNL1       -0.2633
     12 C          14.0937   42.6976    6.6910 C.2     1  UNL1        0.2588
     13 O          13.7763   43.4796    5.7548 O.2     1  UNL1       -0.2691
     14 N          13.1763   41.6980    7.1486 N.am    1  UNL1       -0.2351
     15 H          13.4670   41.1094    7.8823 H       1  UNL1        0.1596
     16 C          15.4153   42.8129    7.3177 C.ar    1  UNL1        0.0832
     17 C          15.9743   41.9021    8.2006 C.ar    1  UNL1        0.0116
     18 C          17.2530   42.2815    8.6344 C.ar    1  UNL1        0.0076
     19 C          17.7092   43.4853    8.1015 C.ar    1  UNL1        0.0356
     20 S          16.5021   44.0689    7.0855 S.2     1  UNL1       -0.0819
@<TRIPOS>BOND
     1    10    11    1
     2     6     1    1
     3     1     5   ar
     4     2     4   ar
     5     3     4   ar
     6     3    14    1
     7    12    16    1
     8    16    20   ar
     9    17    18   ar
    10    19    20   ar
    11     8    11    1
    12     8     6   am
    13    14    12   am
    14     6     7    2
    15     1     2   ar
    16     3     5   ar
    17    12    13    2
    18    16    17   ar
    19    18    19   ar
    20     8     9    1
    21    14    15    1
@<TRIPOS>MOLECULE
MolPort-009-751-443 62023085 CSSS03437051065 MCULE-6511131651 PubChem-52907991 ZINC000062023085 ZINC62023085
 20 21 0 0 0
SMALL
GASTEIGER

@<TRIPOS>ATOM
      1 C          12.3703   39.9015   10.2525 C.ar    1  UNL1        0.1783
      2 C          13.3447   39.7053   11.2130 C.ar    1  UNL1        0.2065
      3 C          13.6908   38.4292    9.5545 C.ar    1  UNL1        0.2954
      4 O          14.1440   38.7810   10.7357 O.2     1  UNL1       -0.4202
      5 N          12.5798   39.0959    9.1936 N.ar    1  UNL1       -0.1896
      6 C          11.2543   40.8487   10.3488 C.2     1  UNL1        0.2890
      7 O          11.3922   42.0324    9.9384 O.2     1  UNL1       -0.2663
      8 N          10.0092   40.4271   10.9100 N.am    1  UNL1       -0.1883
      9 H           9.9162   39.5030   11.2366 H       1  UNL1        0.1829
     10 C           8.6064   41.2687   12.3541 C.3     1  UNL1        0.2055
     11 O           8.9541   41.2725   11.0019 O.3     1  UNL1       -0.2633
     12 C          14.7044   36.1410    9.1710 C.2     1  UNL1        0.2588
     13 O          14.5303   35.7942   10.3703 O.2     1  UNL1       -0.2691
     14 N          14.3026   37.4401    8.7223 N.am    1  UNL1       -0.2351
     15 H          14.4579   37.6677    7.7772 H       1  UNL1        0.1596
     16 C          15.3243   35.2051    8.2264 C.ar    1  UNL1        0.0832
     17 C          15.8995   35.5441    7.0115 C.ar    1  UNL1        0.0116
     18 C          16.4119   34.4334    6.3252 C.ar    1  UNL1        0.0076
     19 C          16.2461   33.2191    6.9878 C.ar    1  UNL1        0.0356
     20 S          15.4552   33.5464    8.4361 S.2     1  UNL1       -0.0819
@<TRIPOS>BOND
     1    10    11    1
     2     6     1    1
     3     1     5   ar
     4     2     4   ar
     5     3     4   ar
     6     3    14    1
     7    12    16    1
     8    16    20   ar
     9    17    18   ar
    10    19    20   ar
    11     8    11    1
    12     8     6   am
    13    14    12   am
    14     6     7    2
    15     1     2   ar
    16     3     5   ar
    17    12    13    2
    18    16    17   ar
    19    18    19   ar
    20     8     9    1
    21    14    15    1
@<TRIPOS>MOLECULE
MolPort-009-751-443 62023085 CSSS03437051065 MCULE-6511131651 PubChem-52907991 ZINC000062023085 ZINC62023085
 20 21 0 0 0
SMALL
GASTEIGER

@<TRIPOS>ATOM
      1 C          13.7925   42.8172    7.0535 C.ar    1  UNL1        0.1783
      2 C          14.1017   41.5738    7.5721 C.ar    1  UNL1        0.2065
      3 C          12.1230   42.1151    8.1109 C.ar    1  UNL1        0.2954
      4 O          13.0339   41.1757    8.2219 O.2     1  UNL1       -0.4202
      5 N          12.5374   43.1719    7.3893 N.ar    1  UNL1       -0.1896
      6 C          14.6883   43.6531    6.2468 C.2     1  UNL1        0.2890
      7 O          14.3737   43.9600    5.0655 O.2     1  UNL1       -0.2663
      8 N          15.9200   44.1188    6.8025 N.am    1  UNL1       -0.1883
      9 H          16.1602   43.8643    7.7228 H       1  UNL1        0.1829
     10 C          17.7611   44.0383    5.6338 C.3     1  UNL1        0.2055
     11 O          16.7643   44.9032    6.0895 O.3     1  UNL1       -0.2633
     12 C           9.6274   41.7138    7.9654 C.2     1  UNL1        0.2588
     13 O           9.6760   41.4674    6.7302 O.2     1  UNL1       -0.2691
     14 N          10.8180   42.0399    8.6910 N.am    1  UNL1       -0.2351
     15 H          10.7325   42.2249    9.6541 H       1  UNL1        0.1596
     16 C           8.3392   41.6660    8.6660 C.ar    1  UNL1        0.0832
     17 C           7.1240   41.3111    8.1014 C.ar    1  UNL1        0.0116
     18 C           6.0647   41.3582    9.0196 C.ar    1  UNL1        0.0076
     19 C           6.4331   41.7478   10.3055 C.ar    1  UNL1        0.0356
     20 S           8.0911   42.0317   10.2837 S.2     1  UNL1       -0.0819
@<TRIPOS>BOND
     1    10    11    1
     2     6     1    1
     3     1     5   ar
     4     2     4   ar
     5     3     4   ar
     6     3    14    1
     7    12    16    1
     8    16    20   ar
     9    17    18   ar
    10    19    20   ar
    11     8    11    1
    12     8     6   am
    13    14    12   am
    14     6     7    2
    15     1     2   ar
    16     3     5   ar
    17    12    13    2
    18    16    17   ar
    19    18    19   ar
    20     8     9    1
    21    14    15    1
@<TRIPOS>MOLECULE
MolPort-009-751-443 62023085 CSSS03437051065 MCULE-6511131651 PubChem-52907991 ZINC000062023085 ZINC62023085
 20 21 0 0 0
SMALL
GASTEIGER

@<TRIPOS>ATOM
      1 C          14.8374   38.6642   10.4766 C.ar    1  UNL1        0.1783
      2 C          13.8768   39.3032   11.2379 C.ar    1  UNL1        0.2065
      3 C          13.0970   38.8427    9.3199 C.ar    1  UNL1        0.2954
      4 O          12.8114   39.3925   10.4777 O.2     1  UNL1       -0.4202
      5 N          14.3533   38.3665    9.2555 N.ar    1  UNL1       -0.1896
      6 C          16.2002   38.3433   10.9145 C.2     1  UNL1        0.2890
      7 O          16.4310   37.2646   11.5242 O.2     1  UNL1       -0.2663
      8 N          17.2668   39.2569   10.6491 N.am    1  UNL1       -0.1883
      9 H          17.0731   40.1011   10.1811 H       1  UNL1        0.1829
     10 C          19.2236   38.7331    9.8376 C.3     1  UNL1        0.2055
     11 O          18.5393   38.9856   11.0281 O.3     1  UNL1       -0.2633
     12 C          11.6031   39.8770    7.5569 C.2     1  UNL1        0.2588
     13 O          11.8900   41.0514    7.9135 O.2     1  UNL1       -0.2691
     14 N          12.1792   38.7504    8.2272 N.am    1  UNL1       -0.2351
     15 H          11.9264   37.8517    7.9147 H       1  UNL1        0.1596
     16 C          10.6703   39.6624    6.4450 C.ar    1  UNL1        0.0832
     17 C           9.3575   39.2329    6.5616 C.ar    1  UNL1        0.0116
     18 C           8.7113   39.1199    5.3219 C.ar    1  UNL1        0.0076
     19 C           9.5030   39.4566    4.2260 C.ar    1  UNL1        0.0356
     20 S          11.0144   39.8958    4.8203 S.2     1  UNL1       -0.0819
@<TRIPOS>BOND
     1    10    11    1
     2     6     1    1
     3     1     5   ar
     4     2     4   ar
     5     3     4   ar
     6     3    14    1
     7    12    16    1
     8    16    20   ar
     9    17    18   ar
    10    19    20   ar
    11     8    11    1
    12     8     6   am
    13    14    12   am
    14     6     7    2
    15     1     2   ar
    16     3     5   ar
    17    12    13    2
    18    16    17   ar
    19    18    19   ar
    20     8     9    1
    21    14    15    1
@<TRIPOS>MOLECULE
MolPort-009-751-443 62023085 CSSS03437051065 MCULE-6511131651 PubChem-52907991 ZINC000062023085 ZINC62023085
 20 21 0 0 0
SMALL
GASTEIGER

@<TRIPOS>ATOM
      1 C           8.7084   40.3532    5.8202 C.ar    1  UNL1        0.1783
      2 C           9.2875   39.6195    4.8019 C.ar    1  UNL1        0.2065
      3 C          10.6366   41.1069    5.4849 C.ar    1  UNL1        0.2954
      4 O          10.4860   40.1237    4.6275 O.2     1  UNL1       -0.4202
      5 N           9.5564   41.3015    6.2624 N.ar    1  UNL1       -0.1896
      6 C           7.3607   40.1471    6.3617 C.2     1  UNL1        0.2890
      7 O           6.5825   39.3155    5.8217 O.2     1  UNL1       -0.2663
      8 N           6.9306   40.8919    7.5033 N.am    1  UNL1       -0.1883
      9 H           7.5433   41.5460    7.9106 H       1  UNL1        0.1829
     10 C           5.7522   41.3418    9.2839 C.3     1  UNL1        0.2055
     11 O           5.6973   40.7166    8.0367 O.3     1  UNL1       -0.2633
     12 C          12.7923   41.7642    6.6384 C.2     1  UNL1        0.2588
     13 O          12.6429   40.9018    7.5455 O.2     1  UNL1       -0.2691
     14 N          11.8208   41.9009    5.5955 N.am    1  UNL1       -0.2351
     15 H          11.9787   42.5878    4.9081 H       1  UNL1        0.1596
     16 C          13.9724   42.6358    6.6515 C.ar    1  UNL1        0.0832
     17 C          15.1273   42.4229    7.3880 C.ar    1  UNL1        0.0116
     18 C          16.0861   43.4286    7.1966 C.ar    1  UNL1        0.0076
     19 C          15.6980   44.4350    6.3148 C.ar    1  UNL1        0.0356
     20 S          14.1493   44.0565    5.7780 S.2     1  UNL1       -0.0819
@<TRIPOS>BOND
     1    10    11    1
     2     6     1    1
     3     1     5   ar
     4     2     4   ar
     5     3     4   ar
     6     3    14    1
     7    12    16    1
     8    16    20   ar
     9    17    18   ar
    10    19    20   ar
    11     8    11    1
    12     8     6   am
    13    14    12   am
    14     6     7    2
    15     1     2   ar
    16     3     5   ar
    17    12    13    2
    18    16    17   ar
    19    18    19   ar
    20     8     9    1
    21    14    15    1
@<TRIPOS>MOLECULE
MolPort-009-751-443 62023085 CSSS03437051065 MCULE-6511131651 PubChem-52907991 ZINC000062023085 ZINC62023085
 20 21 0 0 0
SMALL
GASTEIGER

@<TRIPOS>ATOM
      1 C          14.1147   38.0411   10.1929 C.ar    1  UNL1        0.1783
      2 C          13.7523   38.8784   11.2313 C.ar    1  UNL1        0.2065
      3 C          14.0050   39.9985    9.4480 C.ar    1  UNL1        0.2954
      4 O          13.6964   40.0858   10.7214 O.2     1  UNL1       -0.4202
      5 N          14.2781   38.7417    9.0543 N.ar    1  UNL1       -0.1896
      6 C          14.3012   36.5894   10.2914 C.2     1  UNL1        0.2890
      7 O          14.1493   36.0060   11.3983 O.2     1  UNL1       -0.2663
      8 N          14.6564   35.8368    9.1294 N.am    1  UNL1       -0.1883
      9 H          14.7823   36.3046    8.2723 H       1  UNL1        0.1829
     10 C          15.8052   34.2143    8.2297 C.3     1  UNL1        0.2055
     11 O          14.8235   34.4931    9.1825 O.3     1  UNL1       -0.2633
     12 C          15.2567   41.7510    8.1169 C.2     1  UNL1        0.2588
     13 O          16.3802   41.3399    8.5140 O.2     1  UNL1       -0.2691
     14 N          14.0512   41.1147    8.5553 N.am    1  UNL1       -0.2351
     15 H          13.1965   41.4696    8.2194 H       1  UNL1        0.1596
     16 C          15.1837   42.8919    7.1974 C.ar    1  UNL1        0.0832
     17 C          14.1655   43.1348    6.2887 C.ar    1  UNL1        0.0116
     18 C          14.3705   44.3056    5.5441 C.ar    1  UNL1        0.0076
     19 C          15.5430   44.9901    5.8568 C.ar    1  UNL1        0.0356
     20 S          16.3186   44.1201    7.0700 S.2     1  UNL1       -0.0819
@<TRIPOS>BOND
     1    10    11    1
     2     6     1    1
     3     1     5   ar
     4     2     4   ar
     5     3     4   ar
     6     3    14    1
     7    12    16    1
     8    16    20   ar
     9    17    18   ar
    10    19    20   ar
    11     8    11    1
    12     8     6   am
    13    14    12   am
    14     6     7    2
    15     1     2   ar
    16     3     5   ar
    17    12    13    2
    18    16    17   ar
    19    18    19   ar
    20     8     9    1
    21    14    15    1
@<TRIPOS>MOLECULE
MolPort-009-751-443 62023085 CSSS03437051065 MCULE-6511131651 PubChem-52907991 ZINC000062023085 ZINC62023085
 20 21 0 0 0
SMALL
GASTEIGER

@<TRIPOS>ATOM
      1 C          15.1808   38.7339   10.7179 C.ar    1  UNL1        0.1783
      2 C          14.5670   38.6644   11.9544 C.ar    1  UNL1        0.2065
      3 C          13.4329   39.8907   10.6472 C.ar    1  UNL1        0.2954
      4 O          13.4839   39.3990   11.8638 O.2     1  UNL1       -0.4202
      5 N          14.4692   39.5104    9.8786 N.ar    1  UNL1       -0.1896
      6 C          16.4322   38.0643   10.3466 C.2     1  UNL1        0.2890
      7 O          16.6030   36.8460   10.6207 O.2     1  UNL1       -0.2663
      8 N          17.4587   38.7964    9.6734 N.am    1  UNL1       -0.1883
      9 H          17.3183   39.7501    9.4735 H       1  UNL1        0.1829
     10 C          19.5668   38.6672   10.2221 C.3     1  UNL1        0.2055
     11 O          18.6211   38.2055    9.3046 O.3     1  UNL1       -0.2633
     12 C          11.1440   40.2813    9.6381 C.2     1  UNL1        0.2588
     13 O          10.8980   39.0474    9.5625 O.2     1  UNL1       -0.2691
     14 N          12.3900   40.7449   10.1700 N.am    1  UNL1       -0.2351
     15 H          12.5388   41.7173   10.2100 H       1  UNL1        0.1596
     16 C          10.1446   41.2513    9.1768 C.ar    1  UNL1        0.0832
     17 C           9.6721   41.3711    7.8791 C.ar    1  UNL1        0.0116
     18 C           8.7189   42.3906    7.7407 C.ar    1  UNL1        0.0076
     19 C           8.4344   43.0780    8.9186 C.ar    1  UNL1        0.0356
     20 S           9.3830   42.4006   10.1316 S.2     1  UNL1       -0.0819
@<TRIPOS>BOND
     1    10    11    1
     2     6     1    1
     3     1     5   ar
     4     2     4   ar
     5     3     4   ar
     6     3    14    1
     7    12    16    1
     8    16    20   ar
     9    17    18   ar
    10    19    20   ar
    11     8    11    1
    12     8     6   am
    13    14    12   am
    14     6     7    2
    15     1     2   ar
    16     3     5   ar
    17    12    13    2
    18    16    17   ar
    19    18    19   ar
    20     8     9    1
    21    14    15    1
@<TRIPOS>MOLECULE
MolPort-009-751-443 62023085 CSSS03437051065 MCULE-6511131651 PubChem-52907991 ZINC000062023085 ZINC62023085
 20 21 0 0 0
SMALL
GASTEIGER

@<TRIPOS>ATOM
      1 C          13.4228   39.9841   10.3740 C.ar    1  UNL1        0.1783
      2 C          13.4534   40.8490    9.2962 C.ar    1  UNL1        0.2065
      3 C          11.4461   40.4632    9.8625 C.ar    1  UNL1        0.2954
      4 O          12.2015   41.1200    9.0125 O.2     1  UNL1       -0.4202
      5 N          12.1523   39.7316   10.7429 N.ar    1  UNL1       -0.1896
      6 C          14.5958   39.4085   11.0409 C.2     1  UNL1        0.2890
      7 O          14.4723   38.8418   12.1599 O.2     1  UNL1       -0.2663
      8 N          15.8802   39.4919   10.4196 N.am    1  UNL1       -0.1883
      9 H          15.9665   39.9459    9.5502 H       1  UNL1        0.1829
     10 C          17.2954   37.8422   10.2255 C.3     1  UNL1        0.2055
     11 O          16.9820   38.9594   11.0019 O.3     1  UNL1       -0.2633
     12 C           9.2423   41.5495   10.4731 C.2     1  UNL1        0.2588
     13 O           9.8076   42.5142   11.0551 O.2     1  UNL1       -0.2691
     14 N          10.0168   40.5088    9.8670 N.am    1  UNL1       -0.2351
     15 H           9.5327   39.7752    9.4236 H       1  UNL1        0.1596
     16 C           7.7773   41.4926   10.4163 C.ar    1  UNL1        0.0832
     17 C           6.9240   41.5106   11.5087 C.ar    1  UNL1        0.0116
     18 C           5.5719   41.4439   11.1421 C.ar    1  UNL1        0.0076
     19 C           5.3495   41.3730    9.7685 C.ar    1  UNL1        0.0356
     20 S           6.8554   41.3948    9.0189 S.2     1  UNL1       -0.0819
@<TRIPOS>BOND
     1    10    11    1
     2     6     1    1
     3     1     5   ar
     4     2     4   ar
     5     3     4   ar
     6     3    14    1
     7    12    16    1
     8    16    20   ar
     9    17    18   ar
    10    19    20   ar
    11     8    11    1
    12     8     6   am
    13    14    12   am
    14     6     7    2
    15     1     2   ar
    16     3     5   ar
    17    12    13    2
    18    16    17   ar
    19    18    19   ar
    20     8     9    1
    21    14    15    1
