@<TRIPOS>MOLECULE
MolPort-007-955-792 ChemDiv-L068-0667 MCULE-2924407057 PubChem-46376133
 31 33 0 0 0
SMALL
GASTEIGER

@<TRIPOS>ATOM
      1 C           8.5033   43.2667    9.5204 C.ar    1  UNL1        0.0871
      2 C          10.7631   42.2399    9.4835 C.ar    1  UNL1        0.0653
      3 C           9.8768   41.5688   10.3181 C.ar    1  UNL1        0.0170
      4 C          10.3142   40.4582   11.0424 C.ar    1  UNL1        0.0015
      5 C          11.6383   40.0260   10.8925 C.ar    1  UNL1        0.0098
      6 C          12.5325   40.7038   10.0445 C.ar    1  UNL1        0.0690
      7 C          12.0968   41.8527    9.3321 C.ar    1  UNL1        0.1511
      8 C           8.5906   42.1441   10.3623 C.ar    1  UNL1        0.0958
      9 S           9.9911   43.5558    8.7820 S.2     1  UNL1       -0.0689
     10 BR         14.2735   39.9310    9.8508 Br      1  UNL1       -0.0458
     11 C           6.4916   43.9268    8.1339 C.2     1  UNL1        0.2270
     12 C           5.2240   44.6985    8.0660 C.3     1  UNL1        0.0949
     13 N           7.3454   44.0714    9.2721 N.am    1  UNL1       -0.2788
     14 O           6.8171   43.1794    7.1735 O.2     1  UNL1       -0.2747
     15 H           7.1222   44.7706    9.9283 H       1  UNL1        0.1553
     16 C           7.5156   41.6803   11.2676 C.2     1  UNL1        0.3431
     17 O           7.6993   41.6747   12.5156 O.2     1  UNL1       -0.2448
     18 C           5.0536   41.6474   11.2484 C.3     1  UNL1        0.2560
     19 O           6.3078   41.2226   10.7371 O.3     1  UNL1       -0.4413
     20 O          12.9177   42.6091    8.4829 O.3     1  UNL1       -0.4689
     21 C          12.7867   42.6539    7.0656 C.3     1  UNL1        0.2412
     22 C          13.8382   43.5448    6.4717 C.2     1  UNL1        0.2660
     23 C          15.5328   42.7050    8.1320 C.3     1  UNL1        0.1256
     24 C          16.9908   42.2556    8.0417 C.3     1  UNL1        0.1636
     25 C          17.5761   43.7889    6.5026 C.3     1  UNL1        0.1636
     26 C          16.1878   44.4216    6.4076 C.3     1  UNL1        0.1256
     27 N          15.1911   43.4969    6.9492 N.am    1  UNL1       -0.2715
     28 O          13.5294   44.3256    5.5301 O.2     1  UNL1       -0.2710
     29 O          17.8201   43.3690    7.8217 O.3     1  UNL1       -0.3501
     30 C          12.8139   41.2503    6.4559 C.3     1  UNL1        0.0532
     31 C          11.4723   40.8515    5.8609 C.3     1  UNL1        0.0044
@<TRIPOS>BOND
     1     1    13    1
     2     1     9   ar
     3    12    11    1
     4     2     9   ar
     5     3     4   ar
     6     3     8   ar
     7     5     6   ar
     8     6    10    1
     9     7    20    1
    10     7     2   ar
    11    21    20    1
    12    21    30    1
    13    21    22    1
    14    30    31    1
    15    22    27   am
    16    23    27    1
    17    23    24    1
    18    24    29    1
    19    25    29    1
    20    25    26    1
    21    26    27    1
    22     8    16    1
    23    16    19    1
    24    18    19    1
    25    13    11   am
    26    11    14    2
    27     2     3   ar
    28     4     5   ar
    29     6     7   ar
    30    22    28    2
    31     8     1   ar
    32    16    17    2
    33    13    15    1
@<TRIPOS>MOLECULE
MolPort-007-955-792 ChemDiv-L068-0667 MCULE-2924407057 PubChem-46376133
 31 33 0 0 0
SMALL
GASTEIGER

@<TRIPOS>ATOM
      1 C          14.1324   38.4535   10.3676 C.ar    1  UNL1        0.0871
      2 C          14.8730   40.4925    9.1610 C.ar    1  UNL1        0.0653
      3 C          15.9294   39.7724    9.7067 C.ar    1  UNL1        0.0170
      4 C          17.2358   40.2435    9.5625 C.ar    1  UNL1        0.0015
      5 C          17.4578   41.4260    8.8450 C.ar    1  UNL1        0.0098
      6 C          16.3881   42.1511    8.2901 C.ar    1  UNL1        0.0690
      7 C          15.0563   41.6892    8.4639 C.ar    1  UNL1        0.1511
      8 C          15.5283   38.6166   10.4070 C.ar    1  UNL1        0.0958
      9 S          13.4222   39.7302    9.5264 S.2     1  UNL1       -0.0689
     10 BR         16.8522   43.6826    7.2389 Br      1  UNL1       -0.0458
     11 C          12.2410   36.7737   10.2898 C.2     1  UNL1        0.2270
     12 C          11.6365   35.5498   10.8759 C.3     1  UNL1        0.0949
     13 N          13.3735   37.3742   10.9239 N.am    1  UNL1       -0.2788
     14 O          11.7292   37.2886    9.2602 O.2     1  UNL1       -0.2747
     15 H          13.6496   37.0222   11.8008 H       1  UNL1        0.1553
     16 C          16.4589   37.7577   11.1729 C.2     1  UNL1        0.3431
     17 O          16.1203   37.3094   12.3024 O.2     1  UNL1       -0.2448
     18 C          18.6341   36.6152   11.3342 C.3     1  UNL1        0.2560
     19 O          17.7232   37.4671   10.6564 O.3     1  UNL1       -0.4413
     20 O          13.9235   42.3529    7.9707 O.3     1  UNL1       -0.4689
     21 C          13.1531   41.9129    6.8568 C.3     1  UNL1        0.2412
     22 C          11.6891   41.9589    7.1831 C.2     1  UNL1        0.2660
     23 C          11.1350   40.8319    5.0023 C.3     1  UNL1        0.1256
     24 C          10.1968   39.6982    4.5893 C.3     1  UNL1        0.1636
     25 C           8.5557   40.2677    6.0194 C.3     1  UNL1        0.1636
     26 C           9.2976   41.4694    6.6047 C.3     1  UNL1        0.1256
     27 N          10.7260   41.3541    6.3073 N.am    1  UNL1       -0.2715
     28 O          11.3089   42.5171    8.2488 O.2     1  UNL1       -0.2710
     29 O           8.8626   40.1359    4.6540 O.3     1  UNL1       -0.3501
     30 C          13.4844   42.7137    5.5952 C.3     1  UNL1        0.0532
     31 C          13.8752   44.1500    5.9072 C.3     1  UNL1        0.0044
@<TRIPOS>BOND
     1     1    13    1
     2     1     9   ar
     3    12    11    1
     4     2     9   ar
     5     3     4   ar
     6     3     8   ar
     7     5     6   ar
     8     6    10    1
     9     7    20    1
    10     7     2   ar
    11    21    20    1
    12    21    30    1
    13    21    22    1
    14    30    31    1
    15    22    27   am
    16    23    27    1
    17    23    24    1
    18    24    29    1
    19    25    29    1
    20    25    26    1
    21    26    27    1
    22     8    16    1
    23    16    19    1
    24    18    19    1
    25    13    11   am
    26    11    14    2
    27     2     3   ar
    28     4     5   ar
    29     6     7   ar
    30    22    28    2
    31     8     1   ar
    32    16    17    2
    33    13    15    1
@<TRIPOS>MOLECULE
MolPort-007-955-792 ChemDiv-L068-0667 MCULE-2924407057 PubChem-46376133
 31 33 0 0 0
SMALL
GASTEIGER

@<TRIPOS>ATOM
      1 C          11.0943   39.5383    6.9747 C.ar    1  UNL1        0.0871
      2 C          13.3159   40.4154    7.6511 C.ar    1  UNL1        0.0653
      3 C          12.6402   41.2642    6.7820 C.ar    1  UNL1        0.0170
      4 C          13.2437   42.4527    6.3665 C.ar    1  UNL1        0.0015
      5 C          14.5148   42.7785    6.8570 C.ar    1  UNL1        0.0098
      6 C          15.1952   41.9204    7.7394 C.ar    1  UNL1        0.0690
      7 C          14.5951   40.6962    8.1372 C.ar    1  UNL1        0.1511
      8 C          11.3808   40.7779    6.3762 C.ar    1  UNL1        0.0958
      9 S          12.3861   39.0475    7.9405 S.2     1  UNL1       -0.0689
     10 BR         16.8715   42.5508    8.4166 Br      1  UNL1       -0.0458
     11 C           8.6007   39.2126    7.2589 C.2     1  UNL1        0.2270
     12 C           7.4014   38.4078    6.9109 C.3     1  UNL1        0.0949
     13 N           9.8937   38.7704    6.8371 N.am    1  UNL1       -0.2788
     14 O           8.4695   40.2575    7.9503 O.2     1  UNL1       -0.2747
     15 H           9.9628   37.8791    6.4249 H       1  UNL1        0.1553
     16 C          10.5314   41.4449    5.3644 C.2     1  UNL1        0.3431
     17 O           9.7260   42.3508    5.7136 O.2     1  UNL1       -0.2448
     18 C          10.3371   39.7164    3.6216 C.3     1  UNL1        0.2560
     19 O          10.6023   41.0507    4.0268 O.3     1  UNL1       -0.4413
     20 O          15.2021   39.7646    8.9921 O.3     1  UNL1       -0.4689
     21 C          15.0871   39.7793   10.4114 C.3     1  UNL1        0.2412
     22 C          13.8950   38.9789   10.8474 C.2     1  UNL1        0.2660
     23 C          14.5826   37.0785    9.3478 C.3     1  UNL1        0.1256
     24 C          14.6655   35.5609    9.5096 C.3     1  UNL1        0.1636
     25 C          12.8100   35.3942   10.7713 C.3     1  UNL1        0.1636
     26 C          12.5051   36.8922   10.7616 C.3     1  UNL1        0.1256
     27 N          13.7088   37.6335   10.3828 N.am    1  UNL1       -0.2715
     28 O          13.0633   39.4906   11.6463 O.2     1  UNL1       -0.2710
     29 O          13.3713   35.0133    9.5402 O.3     1  UNL1       -0.3501
     30 C          16.3761   39.2993   11.0828 C.3     1  UNL1        0.0532
     31 C          17.6087   39.5813   10.2379 C.3     1  UNL1        0.0044
@<TRIPOS>BOND
     1     1    13    1
     2     1     9   ar
     3    12    11    1
     4     2     9   ar
     5     3     4   ar
     6     3     8   ar
     7     5     6   ar
     8     6    10    1
     9     7    20    1
    10     7     2   ar
    11    21    20    1
    12    21    30    1
    13    21    22    1
    14    30    31    1
    15    22    27   am
    16    23    27    1
    17    23    24    1
    18    24    29    1
    19    25    29    1
    20    25    26    1
    21    26    27    1
    22     8    16    1
    23    16    19    1
    24    18    19    1
    25    13    11   am
    26    11    14    2
    27     2     3   ar
    28     4     5   ar
    29     6     7   ar
    30    22    28    2
    31     8     1   ar
    32    16    17    2
    33    13    15    1
@<TRIPOS>MOLECULE
MolPort-007-955-792 ChemDiv-L068-0667 MCULE-2924407057 PubChem-46376133
 31 33 0 0 0
SMALL
GASTEIGER

@<TRIPOS>ATOM
      1 C          14.2338   38.5711    9.5938 C.ar    1  UNL1        0.0871
      2 C          13.9866   40.5501    8.1157 C.ar    1  UNL1        0.0653
      3 C          15.1884   40.5425    8.8143 C.ar    1  UNL1        0.0170
      4 C          16.0875   41.5989    8.6561 C.ar    1  UNL1        0.0015
      5 C          15.7686   42.6378    7.7722 C.ar    1  UNL1        0.0098
      6 C          14.5540   42.6417    7.0631 C.ar    1  UNL1        0.0690
      7 C          13.6250   41.5835    7.2481 C.ar    1  UNL1        0.1511
      8 C          15.3426   39.4323    9.6691 C.ar    1  UNL1        0.0958
      9 S          13.0838   39.1968    8.5316 S.2     1  UNL1       -0.0689
     10 BR         14.3068   44.0644    5.8059 Br      1  UNL1       -0.0458
     11 C          12.9060   36.4907   10.1536 C.2     1  UNL1        0.2270
     12 C          12.9074   35.1408   10.7741 C.3     1  UNL1        0.0949
     13 N          14.0602   37.3257   10.2785 N.am    1  UNL1       -0.2788
     14 O          11.8762   36.8982    9.5533 O.2     1  UNL1       -0.2747
     15 H          14.7833   37.0242   10.8748 H       1  UNL1        0.1553
     16 C          16.4802   39.2668   10.6011 C.2     1  UNL1        0.3431
     17 O          16.2739   38.9056   11.7920 O.2     1  UNL1       -0.2448
     18 C          18.8553   38.6448   10.4143 C.3     1  UNL1        0.2560
     19 O          17.7799   39.5380   10.1686 O.3     1  UNL1       -0.4413
     20 O          12.3799   41.5096    6.6067 O.3     1  UNL1       -0.4689
     21 C          11.1893   42.1272    7.0852 C.3     1  UNL1        0.2412
     22 C          10.0077   41.6825    6.2740 C.2     1  UNL1        0.2660
     23 C          10.2274   39.3438    7.1772 C.3     1  UNL1        0.1256
     24 C           9.2437   38.3059    7.7166 C.3     1  UNL1        0.1636
     25 C           7.6060   38.8077    6.2575 C.3     1  UNL1        0.1636
     26 C           8.3932   39.9067    5.5437 C.3     1  UNL1        0.1256
     27 N           9.5015   40.3445    6.3933 N.am    1  UNL1       -0.2715
     28 O           9.4449   42.5024    5.4975 O.2     1  UNL1       -0.2710
     29 O           8.4776   37.7814    6.6612 O.3     1  UNL1       -0.3501
     30 C          10.9870   41.8703    8.5804 C.3     1  UNL1        0.0532
     31 C          11.0560   43.1483    9.4020 C.3     1  UNL1        0.0044
@<TRIPOS>BOND
     1     1    13    1
     2     1     9   ar
     3    12    11    1
     4     2     9   ar
     5     3     4   ar
     6     3     8   ar
     7     5     6   ar
     8     6    10    1
     9     7    20    1
    10     7     2   ar
    11    21    20    1
    12    21    30    1
    13    21    22    1
    14    30    31    1
    15    22    27   am
    16    23    27    1
    17    23    24    1
    18    24    29    1
    19    25    29    1
    20    25    26    1
    21    26    27    1
    22     8    16    1
    23    16    19    1
    24    18    19    1
    25    13    11   am
    26    11    14    2
    27     2     3   ar
    28     4     5   ar
    29     6     7   ar
    30    22    28    2
    31     8     1   ar
    32    16    17    2
    33    13    15    1
@<TRIPOS>MOLECULE
MolPort-007-955-792 ChemDiv-L068-0667 MCULE-2924407057 PubChem-46376133
 31 33 0 0 0
SMALL
GASTEIGER

@<TRIPOS>ATOM
      1 C           7.5678   42.6272    8.7003 C.ar    1  UNL1        0.0871
      2 C           9.9002   41.9437    9.2054 C.ar    1  UNL1        0.0653
      3 C           8.9674   41.3513   10.0488 C.ar    1  UNL1        0.0170
      4 C           9.3980   40.4958   11.0648 C.ar    1  UNL1        0.0015
      5 C          10.7672   40.2314   11.1976 C.ar    1  UNL1        0.0098
      6 C          11.7092   40.8285   10.3407 C.ar    1  UNL1        0.0690
      7 C          11.2743   41.7237    9.3275 C.ar    1  UNL1        0.1511
      8 C           7.6371   41.7364    9.7859 C.ar    1  UNL1        0.0958
      9 S           9.1159   42.9555    8.1189 S.2     1  UNL1       -0.0689
     10 BR         13.5308   40.2839   10.5664 Br      1  UNL1       -0.0458
     11 C           5.9950   44.5582    8.2503 C.2     1  UNL1        0.2270
     12 C           4.8438   45.0703    7.4632 C.3     1  UNL1        0.0949
     13 N           6.3861   43.1889    8.1188 N.am    1  UNL1       -0.2788
     14 O           6.5928   45.3264    9.0499 O.2     1  UNL1       -0.2747
     15 H           5.8043   42.5931    7.5937 H       1  UNL1        0.1553
     16 C           6.4858   41.3332   10.6238 C.2     1  UNL1        0.3431
     17 O           6.5520   41.4346   11.8794 O.2     1  UNL1       -0.2448
     18 C           4.0560   41.3913   10.2296 C.3     1  UNL1        0.2560
     19 O           5.3365   40.8141   10.0244 O.3     1  UNL1       -0.4413
     20 O          12.1362   42.3862    8.4412 O.3     1  UNL1       -0.4689
     21 C          12.3020   42.0413    7.0696 C.3     1  UNL1        0.2412
     22 C          13.3670   42.8922    6.4420 C.2     1  UNL1        0.2660
     23 C          14.9812   42.2780    8.2723 C.3     1  UNL1        0.1256
     24 C          16.4511   41.8606    8.3101 C.3     1  UNL1        0.1636
     25 C          17.0912   43.2379    6.6500 C.3     1  UNL1        0.1636
     26 C          15.6976   43.8198    6.4124 C.3     1  UNL1        0.1256
     27 N          14.6911   42.9311    6.9948 N.am    1  UNL1       -0.2715
     28 O          13.0962   43.5608    5.4068 O.2     1  UNL1       -0.2710
     29 O          17.2683   42.9663    8.0178 O.3     1  UNL1       -0.3501
     30 C          12.5874   40.5474    6.8983 C.3     1  UNL1        0.0532
     31 C          11.3743   39.7800    6.3959 C.3     1  UNL1        0.0044
@<TRIPOS>BOND
     1     1    13    1
     2     1     9   ar
     3    12    11    1
     4     2     9   ar
     5     3     4   ar
     6     3     8   ar
     7     5     6   ar
     8     6    10    1
     9     7    20    1
    10     7     2   ar
    11    21    20    1
    12    21    30    1
    13    21    22    1
    14    30    31    1
    15    22    27   am
    16    23    27    1
    17    23    24    1
    18    24    29    1
    19    25    29    1
    20    25    26    1
    21    26    27    1
    22     8    16    1
    23    16    19    1
    24    18    19    1
    25    13    11   am
    26    11    14    2
    27     2     3   ar
    28     4     5   ar
    29     6     7   ar
    30    22    28    2
    31     8     1   ar
    32    16    17    2
    33    13    15    1
@<TRIPOS>MOLECULE
MolPort-007-955-792 ChemDiv-L068-0667 MCULE-2924407057 PubChem-46376133
 31 33 0 0 0
SMALL
GASTEIGER

@<TRIPOS>ATOM
      1 C           7.7047   42.8802    9.5831 C.ar    1  UNL1        0.0871
      2 C          10.0492   42.0870    9.3917 C.ar    1  UNL1        0.0653
      3 C           9.4027   41.5989   10.5214 C.ar    1  UNL1        0.0170
      4 C          10.0939   40.7764   11.4131 C.ar    1  UNL1        0.0015
      5 C          11.4246   40.4381   11.1357 C.ar    1  UNL1        0.0098
      6 C          12.0758   40.9296    9.9901 C.ar    1  UNL1        0.0690
      7 C          11.3830   41.7922    9.0995 C.ar    1  UNL1        0.1511
      8 C           8.0732   42.0480   10.6547 C.ar    1  UNL1        0.0958
      9 S           9.0064   43.0827    8.5310 S.2     1  UNL1       -0.0689
     10 BR         13.8539   40.2902    9.6813 Br      1  UNL1       -0.0458
     11 C           5.9745   43.9653    8.0884 C.2     1  UNL1        0.2270
     12 C           4.5652   44.4084    7.9315 C.3     1  UNL1        0.0949
     13 N           6.4240   43.4788    9.3559 N.am    1  UNL1       -0.2788
     14 O           6.7669   44.0544    7.1131 O.2     1  UNL1       -0.2747
     15 H           5.8124   43.5610   10.1230 H       1  UNL1        0.1553
     16 C           7.2250   41.7612   11.8331 C.2     1  UNL1        0.3431
     17 O           7.7569   41.4475   12.9331 O.2     1  UNL1       -0.2448
     18 C           5.0743   40.6874   11.3000 C.3     1  UNL1        0.2560
     19 O           5.8343   41.8109   11.7185 O.3     1  UNL1       -0.4413
     20 O          11.9516   42.3521    7.9461 O.3     1  UNL1       -0.4689
     21 C          12.1959   41.6365    6.7394 C.3     1  UNL1        0.2412
     22 C          10.9086   41.3890    6.0090 C.2     1  UNL1        0.2660
     23 C          10.6864   39.1321    7.0999 C.3     1  UNL1        0.1256
     24 C           9.5382   38.3678    7.7583 C.3     1  UNL1        0.1636
     25 C           7.9678   39.0893    6.3175 C.3     1  UNL1        0.1636
     26 C           8.9277   39.9410    5.4868 C.3     1  UNL1        0.1256
     27 N          10.1439   40.2001    6.2585 N.am    1  UNL1       -0.2715
     28 O          10.4887   42.2471    5.1849 O.2     1  UNL1       -0.2710
     29 O           8.6281   37.9368    6.7775 O.3     1  UNL1       -0.3501
     30 C          13.2241   42.3536    5.8613 C.3     1  UNL1        0.0532
     31 C          14.1405   43.2617    6.6666 C.3     1  UNL1        0.0044
@<TRIPOS>BOND
     1     1    13    1
     2     1     9   ar
     3    12    11    1
     4     2     9   ar
     5     3     4   ar
     6     3     8   ar
     7     5     6   ar
     8     6    10    1
     9     7    20    1
    10     7     2   ar
    11    21    20    1
    12    21    30    1
    13    21    22    1
    14    30    31    1
    15    22    27   am
    16    23    27    1
    17    23    24    1
    18    24    29    1
    19    25    29    1
    20    25    26    1
    21    26    27    1
    22     8    16    1
    23    16    19    1
    24    18    19    1
    25    13    11   am
    26    11    14    2
    27     2     3   ar
    28     4     5   ar
    29     6     7   ar
    30    22    28    2
    31     8     1   ar
    32    16    17    2
    33    13    15    1
@<TRIPOS>MOLECULE
MolPort-007-955-792 ChemDiv-L068-0667 MCULE-2924407057 PubChem-46376133
 31 33 0 0 0
SMALL
GASTEIGER

@<TRIPOS>ATOM
      1 C          10.7687   40.7113    9.4279 C.ar    1  UNL1        0.0871
      2 C          13.2498   40.7816    9.4666 C.ar    1  UNL1        0.0653
      3 C          12.7098   41.3461    8.3168 C.ar    1  UNL1        0.0170
      4 C          13.5583   41.8488    7.3285 C.ar    1  UNL1        0.0015
      5 C          14.9437   41.7962    7.5291 C.ar    1  UNL1        0.0098
      6 C          15.4881   41.2284    8.6950 C.ar    1  UNL1        0.0690
      7 C          14.6263   40.6879    9.6861 C.ar    1  UNL1        0.1511
      8 C          11.3016   41.3049    8.2701 C.ar    1  UNL1        0.0958
      9 S          12.0132   40.2166   10.4520 S.2     1  UNL1       -0.0689
     10 BR         17.3907   41.3312    8.8837 Br      1  UNL1       -0.0458
     11 C           8.5826   41.5318   10.4039 C.2     1  UNL1        0.2270
     12 C           7.1185   41.3175   10.5358 C.3     1  UNL1        0.0949
     13 N           9.3844   40.5429    9.7525 N.am    1  UNL1       -0.2788
     14 O           9.1069   42.5658   10.8969 O.2     1  UNL1       -0.2747
     15 H           8.9562   39.6898    9.5114 H       1  UNL1        0.1553
     16 C          10.5071   41.7340    7.0975 C.2     1  UNL1        0.3431
     17 O          11.0010   41.6619    5.9390 O.2     1  UNL1       -0.2448
     18 C           8.0949   41.7019    6.6046 C.3     1  UNL1        0.2560
     19 O           9.2203   42.2452    7.2778 O.3     1  UNL1       -0.4413
     20 O          15.0722   40.0804   10.8690 O.3     1  UNL1       -0.4689
     21 C          15.9163   38.9345   10.9175 C.3     1  UNL1        0.2412
     22 C          15.4667   37.9117    9.9156 C.2     1  UNL1        0.2660
     23 C          13.8270   36.9629   11.5723 C.3     1  UNL1        0.1256
     24 C          12.3674   36.5152   11.5000 C.3     1  UNL1        0.1636
     25 C          12.5325   35.6327    9.4369 C.3     1  UNL1        0.1636
     26 C          14.0119   35.9755    9.2613 C.3     1  UNL1        0.1256
     27 N          14.3907   37.0124   10.2222 N.am    1  UNL1       -0.2715
     28 O          16.0289   37.8603    8.7873 O.2     1  UNL1       -0.2710
     29 O          12.2731   35.3114   10.7805 O.3     1  UNL1       -0.3501
     30 C          17.3870   39.3136   10.7285 C.3     1  UNL1        0.0532
     31 C          18.3289   38.1731   11.0817 C.3     1  UNL1        0.0044
@<TRIPOS>BOND
     1     1    13    1
     2     1     9   ar
     3    12    11    1
     4     2     9   ar
     5     3     4   ar
     6     3     8   ar
     7     5     6   ar
     8     6    10    1
     9     7    20    1
    10     7     2   ar
    11    21    20    1
    12    21    30    1
    13    21    22    1
    14    30    31    1
    15    22    27   am
    16    23    27    1
    17    23    24    1
    18    24    29    1
    19    25    29    1
    20    25    26    1
    21    26    27    1
    22     8    16    1
    23    16    19    1
    24    18    19    1
    25    13    11   am
    26    11    14    2
    27     2     3   ar
    28     4     5   ar
    29     6     7   ar
    30    22    28    2
    31     8     1   ar
    32    16    17    2
    33    13    15    1
@<TRIPOS>MOLECULE
MolPort-007-955-792 ChemDiv-L068-0667 MCULE-2924407057 PubChem-46376133
 31 33 0 0 0
SMALL
GASTEIGER

@<TRIPOS>ATOM
      1 C           9.2520   41.8620    9.4556 C.ar    1  UNL1        0.0871
      2 C          11.4473   40.7060    9.5368 C.ar    1  UNL1        0.0653
      3 C          10.8119   40.7495   10.7725 C.ar    1  UNL1        0.0170
      4 C          11.4374   40.1974   11.8921 C.ar    1  UNL1        0.0015
      5 C          12.6883   39.5854   11.7406 C.ar    1  UNL1        0.0098
      6 C          13.3278   39.5388   10.4888 C.ar    1  UNL1        0.0690
      7 C          12.7063   40.1285    9.3560 C.ar    1  UNL1        0.1511
      8 C           9.5685   41.4131   10.7499 C.ar    1  UNL1        0.0958
      9 S          10.5003   41.4824    8.3880 S.2     1  UNL1       -0.0689
     10 BR         14.9771   38.5696   10.4109 Br      1  UNL1       -0.0458
     11 C           7.8905   43.9504    9.0195 C.2     1  UNL1        0.2270
     12 C           6.6692   44.5371    8.4102 C.3     1  UNL1        0.0949
     13 N           8.0548   42.5299    9.0424 N.am    1  UNL1       -0.2788
     14 O           8.7520   44.7084    9.5394 O.2     1  UNL1       -0.2747
     15 H           7.2943   41.9746    8.7551 H       1  UNL1        0.1553
     16 C           8.7648   41.6903   11.9612 C.2     1  UNL1        0.3431
     17 O           8.1135   42.7666   12.0547 O.2     1  UNL1       -0.2448
     18 C           9.1837   41.1185   14.3193 C.3     1  UNL1        0.2560
     19 O           8.7507   40.7716   13.0127 O.3     1  UNL1       -0.4413
     20 O          13.2731   40.1549    8.0733 O.3     1  UNL1       -0.4689
     21 C          14.3452   41.0074    7.6837 C.3     1  UNL1        0.2412
     22 C          13.8506   42.0781    6.7557 C.2     1  UNL1        0.2660
     23 C          15.8637   43.4981    7.2697 C.3     1  UNL1        0.1256
     24 C          16.8349   44.3259    6.4286 C.3     1  UNL1        0.1636
     25 C          15.2729   45.0557    4.9828 C.3     1  UNL1        0.1636
     26 C          14.1144   44.3144    5.6501 C.3     1  UNL1        0.1256
     27 N          14.6425   43.2481    6.5022 N.am    1  UNL1       -0.2715
     28 O          12.7375   41.9333    6.1796 O.2     1  UNL1       -0.2710
     29 O          16.1909   45.4832    5.9577 O.3     1  UNL1       -0.3501
     30 C          15.0666   41.5921    8.9003 C.3     1  UNL1        0.0532
     31 C          16.5231   41.1607    8.9724 C.3     1  UNL1        0.0044
@<TRIPOS>BOND
     1     1    13    1
     2     1     9   ar
     3    12    11    1
     4     2     9   ar
     5     3     4   ar
     6     3     8   ar
     7     5     6   ar
     8     6    10    1
     9     7    20    1
    10     7     2   ar
    11    21    20    1
    12    21    30    1
    13    21    22    1
    14    30    31    1
    15    22    27   am
    16    23    27    1
    17    23    24    1
    18    24    29    1
    19    25    29    1
    20    25    26    1
    21    26    27    1
    22     8    16    1
    23    16    19    1
    24    18    19    1
    25    13    11   am
    26    11    14    2
    27     2     3   ar
    28     4     5   ar
    29     6     7   ar
    30    22    28    2
    31     8     1   ar
    32    16    17    2
    33    13    15    1
@<TRIPOS>MOLECULE
MolPort-007-955-792 ChemDiv-L068-0667 MCULE-2924407057 PubChem-46376133
 31 33 0 0 0
SMALL
GASTEIGER

@<TRIPOS>ATOM
      1 C          10.5726   40.3115    7.6009 C.ar    1  UNL1        0.0871
      2 C          12.9307   40.9417    8.0531 C.ar    1  UNL1        0.0653
      3 C          12.4219   41.5362    6.9041 C.ar    1  UNL1        0.0170
      4 C          13.2398   42.3648    6.1334 C.ar    1  UNL1        0.0015
      5 C          14.5560   42.6010    6.5505 C.ar    1  UNL1        0.0098
      6 C          15.0678   42.0019    7.7155 C.ar    1  UNL1        0.0690
      7 C          14.2462   41.1336    8.4824 C.ar    1  UNL1        0.1511
      8 C          11.0871   41.1810    6.6231 C.ar    1  UNL1        0.0958
      9 S          11.7564   39.9647    8.7501 S.2     1  UNL1       -0.0689
     10 BR         16.8430   42.5079    8.2236 Br      1  UNL1       -0.0458
     11 C           8.7610   38.7030    6.8690 C.2     1  UNL1        0.2270
     12 C           7.4218   38.1237    7.1483 C.3     1  UNL1        0.0949
     13 N           9.2439   39.7828    7.6728 N.am    1  UNL1       -0.2788
     14 O           9.4422   38.2597    5.9065 O.2     1  UNL1       -0.2747
     15 H           8.6217   40.1895    8.3182 H       1  UNL1        0.1553
     16 C          10.3708   41.5905    5.3945 C.2     1  UNL1        0.3431
     17 O           9.3645   42.3472    5.4722 O.2     1  UNL1       -0.2448
     18 C          10.9599   39.7297    3.8934 C.3     1  UNL1        0.2560
     19 O          10.7933   41.1156    4.1512 O.3     1  UNL1       -0.4413
     20 O          14.6712   40.4711    9.6433 O.3     1  UNL1       -0.4689
     21 C          14.9319   39.0735    9.7236 C.3     1  UNL1        0.2412
     22 C          16.3818   38.8289   10.0238 C.2     1  UNL1        0.2660
     23 C          16.1263   36.3957    9.4341 C.3     1  UNL1        0.1256
     24 C          16.9460   35.3992    8.6150 C.3     1  UNL1        0.1636
     25 C          18.9441   36.2034    9.2659 C.3     1  UNL1        0.1636
     26 C          18.3638   37.2973   10.1624 C.3     1  UNL1        0.1256
     27 N          16.9668   37.5375    9.7984 N.am    1  UNL1       -0.2715
     28 O          17.0933   39.7761   10.4578 O.2     1  UNL1       -0.2710
     29 O          18.1216   35.0644    9.3092 O.3     1  UNL1       -0.3501
     30 C          14.0134   38.3898   10.7393 C.3     1  UNL1        0.0532
     31 C          14.4499   38.6394   12.1746 C.3     1  UNL1        0.0044
@<TRIPOS>BOND
     1     1    13    1
     2     1     9   ar
     3    12    11    1
     4     2     9   ar
     5     3     4   ar
     6     3     8   ar
     7     5     6   ar
     8     6    10    1
     9     7    20    1
    10     7     2   ar
    11    21    20    1
    12    21    30    1
    13    21    22    1
    14    30    31    1
    15    22    27   am
    16    23    27    1
    17    23    24    1
    18    24    29    1
    19    25    29    1
    20    25    26    1
    21    26    27    1
    22     8    16    1
    23    16    19    1
    24    18    19    1
    25    13    11   am
    26    11    14    2
    27     2     3   ar
    28     4     5   ar
    29     6     7   ar
    30    22    28    2
    31     8     1   ar
    32    16    17    2
    33    13    15    1
@<TRIPOS>MOLECULE
MolPort-007-955-792 ChemDiv-L068-0667 MCULE-2924407057 PubChem-46376133
 31 33 0 0 0
SMALL
GASTEIGER

@<TRIPOS>ATOM
      1 C          16.4020   40.9906    8.9983 C.ar    1  UNL1        0.0871
      2 C          14.1057   41.0280    8.0559 C.ar    1  UNL1        0.0653
      3 C          14.8712   42.1191    7.6610 C.ar    1  UNL1        0.0170
      4 C          14.3085   43.0985    6.8402 C.ar    1  UNL1        0.0015
      5 C          12.9843   42.9470    6.4090 C.ar    1  UNL1        0.0098
      6 C          12.2126   41.8403    6.8063 C.ar    1  UNL1        0.0690
      7 C          12.7744   40.8603    7.6672 C.ar    1  UNL1        0.1511
      8 C          16.1754   42.1226    8.1958 C.ar    1  UNL1        0.0958
      9 S          15.0094   40.0432    9.0722 S.2     1  UNL1       -0.0689
     10 BR         10.4604   41.7072    6.0462 Br      1  UNL1       -0.0458
     11 C          18.0142   39.2900    9.9540 C.2     1  UNL1        0.2270
     12 C          19.3743   39.0264   10.4904 C.3     1  UNL1        0.0949
     13 N          17.6189   40.6331    9.6625 N.am    1  UNL1       -0.2788
     14 O          17.2123   38.3317    9.7936 O.2     1  UNL1       -0.2747
     15 H          18.2236   41.3600    9.9368 H       1  UNL1        0.1553
     16 C          17.1323   43.2371    8.0161 C.2     1  UNL1        0.3431
     17 O          17.1152   44.2186    8.8085 O.2     1  UNL1       -0.2448
     18 C          17.7124   43.7565    5.6802 C.3     1  UNL1        0.2560
     19 O          18.0357   43.2144    6.9516 O.3     1  UNL1       -0.4413
     20 O          12.0799   39.7361    8.1374 O.3     1  UNL1       -0.4689
     21 C          11.3700   39.6854    9.3708 C.3     1  UNL1        0.2412
     22 C          12.2883   39.2784   10.4858 C.2     1  UNL1        0.2660
     23 C          12.2469   36.8909    9.6911 C.3     1  UNL1        0.1256
     24 C          13.3084   35.8104    9.4866 C.3     1  UNL1        0.1636
     25 C          14.5246   36.3830   11.2909 C.3     1  UNL1        0.1636
     26 C          13.6093   37.5331   11.7113 C.3     1  UNL1        0.1256
     27 N          12.7716   37.9300   10.5788 N.am    1  UNL1       -0.2715
     28 O          12.6525   40.1384   11.3341 O.2     1  UNL1       -0.2710
     29 O          13.7600   35.3437   10.7333 O.3     1  UNL1       -0.3501
     30 C          10.6635   41.0108    9.6654 C.3     1  UNL1        0.0532
     31 C          10.0442   41.0406   11.0541 C.3     1  UNL1        0.0044
@<TRIPOS>BOND
     1     1    13    1
     2     1     9   ar
     3    12    11    1
     4     2     9   ar
     5     3     4   ar
     6     3     8   ar
     7     5     6   ar
     8     6    10    1
     9     7    20    1
    10     7     2   ar
    11    21    20    1
    12    21    30    1
    13    21    22    1
    14    30    31    1
    15    22    27   am
    16    23    27    1
    17    23    24    1
    18    24    29    1
    19    25    29    1
    20    25    26    1
    21    26    27    1
    22     8    16    1
    23    16    19    1
    24    18    19    1
    25    13    11   am
    26    11    14    2
    27     2     3   ar
    28     4     5   ar
    29     6     7   ar
    30    22    28    2
    31     8     1   ar
    32    16    17    2
    33    13    15    1
