@<TRIPOS>MOLECULE
MolPort-007-723-438 6818289 ChemDiv-E157-5455 MCULE-8623262614 PubChem-22518003 ZINC000006818289 ZINC06818289
 27 29 0 0 0
SMALL
GASTEIGER

@<TRIPOS>ATOM
      1 C           9.5998   39.6458    5.7802 C.ar    1  UNL1        0.2593
      2 C           7.7195   39.9215    7.2251 C.ar    1  UNL1        0.1896
      3 N           9.6105   38.7944    6.8287 N.ar    1  UNL1       -0.1187
      4 N           8.5626   38.9480    7.6356 N.ar    1  UNL1       -0.1239
      5 S           8.2504   40.6536    5.8064 S.2     1  UNL1       -0.0102
      6 C           6.4449   41.1805    9.0279 C.2     1  UNL1        0.2510
      7 N           6.5171   40.2878    7.9083 N.am    1  UNL1       -0.2592
      8 O           7.4921   41.7134    9.4871 O.2     1  UNL1       -0.2698
      9 H           5.6738   39.8966    7.5845 H       1  UNL1        0.1571
     10 C           5.1404   41.4767    9.6457 C.ar    1  UNL1        0.0546
     11 C           3.9493   41.1797    8.9668 C.ar    1  UNL1        0.0159
     12 C           2.7122   41.4611    9.5536 C.ar    1  UNL1        0.0578
     13 C           2.6567   42.0418   10.8235 C.ar    1  UNL1        0.0114
     14 C           3.8384   42.3410   11.5066 C.ar    1  UNL1        0.0010
     15 C           5.0755   42.0595   10.9198 C.ar    1  UNL1        0.0046
     16 CL          1.2326   41.0863    8.6974 Cl      1  UNL1       -0.0822
     17 S          10.8339   39.6715    4.5374 S.O2    1  UNL1        0.1010
     18 O          10.2481   40.2543    3.2816 O.2     1  UNL1       -0.1477
     19 O          11.9885   40.5261    4.9794 O.2     1  UNL1       -0.1477
     20 C          10.6208   37.2145    3.3395 C.3     1  UNL1        0.1392
     21 N          11.3992   38.0543    4.2396 N.pl3   1  UNL1       -0.1870
     22 C          12.5876   37.5409    4.8751 C.ar    1  UNL1        0.0689
     23 C          12.8566   37.8155    6.2263 C.ar    1  UNL1        0.0161
     24 C          14.0068   37.3137    6.8412 C.ar    1  UNL1        0.0013
     25 C          14.9035   36.5306    6.1111 C.ar    1  UNL1        0.0001
     26 C          14.6500   36.2497    4.7667 C.ar    1  UNL1        0.0013
     27 C          13.4992   36.7518    4.1527 C.ar    1  UNL1        0.0161
@<TRIPOS>BOND
     1    20    21    1
     2    23    24   ar
     3    25    26   ar
     4    27    22   ar
     5     1     5   ar
     6     2     7    1
     7     2     5   ar
     8     6    10    1
     9    11    12   ar
    10    12    16    1
    11    13    14   ar
    12    15    10   ar
    13    21    22    1
    14     3     4   ar
    15     7     6   am
    16    17    21    1
    17    17     1    1
    18    22    23   ar
    19    24    25   ar
    20    26    27   ar
    21     1     3   ar
    22     2     4   ar
    23     6     8    2
    24    10    11   ar
    25    12    13   ar
    26    14    15   ar
    27    17    18    2
    28    17    19    2
    29     7     9    1
@<TRIPOS>MOLECULE
MolPort-007-723-438 6818289 ChemDiv-E157-5455 MCULE-8623262614 PubChem-22518003 ZINC000006818289 ZINC06818289
 27 29 0 0 0
SMALL
GASTEIGER

@<TRIPOS>ATOM
      1 C           9.6351   41.5706   10.4841 C.ar    1  UNL1        0.2593
      2 C          11.7524   41.8996    9.4313 C.ar    1  UNL1        0.1896
      3 N          10.3851   40.4479   10.4444 N.ar    1  UNL1       -0.1187
      4 N          11.5658   40.6302    9.8565 N.ar    1  UNL1       -0.1239
      5 S          10.4269   42.8771    9.7744 S.2     1  UNL1       -0.0102
      6 C          13.0784   42.5186    7.3531 C.2     1  UNL1        0.2510
      7 N          12.9339   42.3633    8.7711 N.am    1  UNL1       -0.2592
      8 O          12.1210   42.2400    6.5803 O.2     1  UNL1       -0.2698
      9 H          13.7078   42.5938    9.3342 H       1  UNL1        0.1571
     10 C          14.3522   43.0059    6.7956 C.ar    1  UNL1        0.0546
     11 C          15.5492   42.8398    7.5082 C.ar    1  UNL1        0.0159
     12 C          16.7572   43.3025    6.9784 C.ar    1  UNL1        0.0578
     13 C          16.7776   43.9350    5.7325 C.ar    1  UNL1        0.0114
     14 C          15.5899   44.1047    5.0162 C.ar    1  UNL1        0.0010
     15 C          14.3818   43.6419    5.5458 C.ar    1  UNL1        0.0046
     16 CL         18.2442   43.0898    7.8762 Cl      1  UNL1       -0.0822
     17 S           8.0433   41.6500   11.2107 S.O2    1  UNL1        0.1010
     18 O           7.9301   40.5733   12.2537 O.2     1  UNL1       -0.1477
     19 O           7.8458   42.9876   11.8668 O.2     1  UNL1       -0.1477
     20 C           7.2678   41.0432    8.6518 C.3     1  UNL1        0.1392
     21 N           6.8288   41.4275    9.9864 N.pl3   1  UNL1       -0.1870
     22 C           5.4291   41.6354   10.2647 C.ar    1  UNL1        0.0689
     23 C           4.8607   41.1867   11.4686 C.ar    1  UNL1        0.0161
     24 C           3.5051   41.3928   11.7380 C.ar    1  UNL1        0.0013
     25 C           2.7001   42.0503   10.8052 C.ar    1  UNL1        0.0001
     26 C           3.2507   42.5014    9.6036 C.ar    1  UNL1        0.0013
     27 C           4.6068   42.2952    9.3352 C.ar    1  UNL1        0.0161
@<TRIPOS>BOND
     1    20    21    1
     2    23    24   ar
     3    25    26   ar
     4    27    22   ar
     5     1     5   ar
     6     2     7    1
     7     2     5   ar
     8     6    10    1
     9    11    12   ar
    10    12    16    1
    11    13    14   ar
    12    15    10   ar
    13    21    22    1
    14     3     4   ar
    15     7     6   am
    16    17    21    1
    17    17     1    1
    18    22    23   ar
    19    24    25   ar
    20    26    27   ar
    21     1     3   ar
    22     2     4   ar
    23     6     8    2
    24    10    11   ar
    25    12    13   ar
    26    14    15   ar
    27    17    18    2
    28    17    19    2
    29     7     9    1
@<TRIPOS>MOLECULE
MolPort-007-723-438 6818289 ChemDiv-E157-5455 MCULE-8623262614 PubChem-22518003 ZINC000006818289 ZINC06818289
 27 29 0 0 0
SMALL
GASTEIGER

@<TRIPOS>ATOM
      1 C           9.0264   41.5656    6.5272 C.ar    1  UNL1        0.2593
      2 C          11.3920   41.7337    6.8011 C.ar    1  UNL1        0.1896
      3 N           9.7011   41.4678    5.3612 N.ar    1  UNL1       -0.1187
      4 N          11.0206   41.5624    5.5128 N.ar    1  UNL1       -0.1239
      5 S          10.0660   41.7766    7.8356 S.2     1  UNL1       -0.0102
      6 C          13.6661   42.8687    6.7960 C.2     1  UNL1        0.2510
      7 N          12.7480   41.8607    7.2392 N.am    1  UNL1       -0.2592
      8 O          13.3031   43.7370    5.9559 O.2     1  UNL1       -0.2698
      9 H          13.0762   41.2049    7.8960 H       1  UNL1        0.1571
     10 C          15.0413   42.8905    7.3246 C.ar    1  UNL1        0.0546
     11 C          15.5035   41.8503    8.1446 C.ar    1  UNL1        0.0159
     12 C          16.8084   41.8718    8.6457 C.ar    1  UNL1        0.0578
     13 C          17.6608   42.9334    8.3308 C.ar    1  UNL1        0.0114
     14 C          17.2084   43.9737    7.5148 C.ar    1  UNL1        0.0010
     15 C          15.9036   43.9522    7.0136 C.ar    1  UNL1        0.0046
     16 CL         17.3742   40.5688    9.6678 Cl      1  UNL1       -0.0822
     17 S           7.2825   41.4594    6.6520 S.O2    1  UNL1        0.1010
     18 O           6.6728   41.9225    5.3583 O.2     1  UNL1       -0.1477
     19 O           6.8725   40.0353    6.9024 O.2     1  UNL1       -0.1477
     20 C           6.9817   43.8869    7.8906 C.3     1  UNL1        0.1392
     21 N           6.7275   42.4547    7.9654 N.pl3   1  UNL1       -0.1870
     22 C           6.0551   41.8895    9.1092 C.ar    1  UNL1        0.0689
     23 C           6.7123   41.7743   10.3455 C.ar    1  UNL1        0.0161
     24 C           6.0576   41.2300   11.4536 C.ar    1  UNL1        0.0013
     25 C           4.7361   40.7931   11.3386 C.ar    1  UNL1        0.0001
     26 C           4.0699   40.9004   10.1158 C.ar    1  UNL1        0.0013
     27 C           4.7255   41.4452    9.0081 C.ar    1  UNL1        0.0161
@<TRIPOS>BOND
     1    20    21    1
     2    23    24   ar
     3    25    26   ar
     4    27    22   ar
     5     1     5   ar
     6     2     7    1
     7     2     5   ar
     8     6    10    1
     9    11    12   ar
    10    12    16    1
    11    13    14   ar
    12    15    10   ar
    13    21    22    1
    14     3     4   ar
    15     7     6   am
    16    17    21    1
    17    17     1    1
    18    22    23   ar
    19    24    25   ar
    20    26    27   ar
    21     1     3   ar
    22     2     4   ar
    23     6     8    2
    24    10    11   ar
    25    12    13   ar
    26    14    15   ar
    27    17    18    2
    28    17    19    2
    29     7     9    1
@<TRIPOS>MOLECULE
MolPort-007-723-438 6818289 ChemDiv-E157-5455 MCULE-8623262614 PubChem-22518003 ZINC000006818289 ZINC06818289
 27 29 0 0 0
SMALL
GASTEIGER

@<TRIPOS>ATOM
      1 C           8.8420   41.0671    6.3418 C.ar    1  UNL1        0.2593
      2 C          11.2068   41.0755    6.6689 C.ar    1  UNL1        0.1896
      3 N           9.5350   40.9665    5.1868 N.ar    1  UNL1       -0.1187
      4 N          10.8541   40.9720    5.3682 N.ar    1  UNL1       -0.1239
      5 S           9.8634   41.1672    7.6775 S.2     1  UNL1       -0.0102
      6 C          13.4185   42.2477    7.1097 C.2     1  UNL1        0.2510
      7 N          12.5579   41.1013    7.1383 N.am    1  UNL1       -0.2592
      8 O          13.0036   43.3451    6.6459 O.2     1  UNL1       -0.2698
      9 H          12.9254   40.2670    7.5100 H       1  UNL1        0.1571
     10 C          14.7951   42.1434    7.6245 C.ar    1  UNL1        0.0546
     11 C          15.7767   43.0595    7.2181 C.ar    1  UNL1        0.0159
     12 C          17.0825   42.9598    7.7071 C.ar    1  UNL1        0.0578
     13 C          17.4167   41.9432    8.6058 C.ar    1  UNL1        0.0114
     14 C          16.4451   41.0264    9.0157 C.ar    1  UNL1        0.0010
     15 C          15.1392   41.1262    8.5268 C.ar    1  UNL1        0.0046
     16 CL         18.2988   44.1082    7.1932 Cl      1  UNL1       -0.0822
     17 S           7.0924   41.0675    6.4277 S.O2    1  UNL1        0.1010
     18 O           6.5538   41.9998    5.3787 O.2     1  UNL1       -0.1477
     19 O           6.5663   39.6840    6.1675 O.2     1  UNL1       -0.1477
     20 C           5.3732   40.9958    8.5623 C.3     1  UNL1        0.1392
     21 N           6.5837   41.5861    8.0075 N.pl3   1  UNL1       -0.1870
     22 C           7.3158   42.5849    8.7465 C.ar    1  UNL1        0.0689
     23 C           8.0041   42.2478    9.9239 C.ar    1  UNL1        0.0161
     24 C           8.7162   43.2164   10.6363 C.ar    1  UNL1        0.0013
     25 C           8.7481   44.5359   10.1798 C.ar    1  UNL1        0.0001
     26 C           8.0680   44.8863    9.0113 C.ar    1  UNL1        0.0013
     27 C           7.3564   43.9168    8.2993 C.ar    1  UNL1        0.0161
@<TRIPOS>BOND
     1    20    21    1
     2    23    24   ar
     3    25    26   ar
     4    27    22   ar
     5     1     5   ar
     6     2     7    1
     7     2     5   ar
     8     6    10    1
     9    11    12   ar
    10    12    16    1
    11    13    14   ar
    12    15    10   ar
    13    21    22    1
    14     3     4   ar
    15     7     6   am
    16    17    21    1
    17    17     1    1
    18    22    23   ar
    19    24    25   ar
    20    26    27   ar
    21     1     3   ar
    22     2     4   ar
    23     6     8    2
    24    10    11   ar
    25    12    13   ar
    26    14    15   ar
    27    17    18    2
    28    17    19    2
    29     7     9    1
@<TRIPOS>MOLECULE
MolPort-007-723-438 6818289 ChemDiv-E157-5455 MCULE-8623262614 PubChem-22518003 ZINC000006818289 ZINC06818289
 27 29 0 0 0
SMALL
GASTEIGER

@<TRIPOS>ATOM
      1 C           9.1707   41.2156    6.3661 C.ar    1  UNL1        0.2593
      2 C          11.5420   41.4093    6.5636 C.ar    1  UNL1        0.1896
      3 N           9.8164   41.0085    5.1980 N.ar    1  UNL1       -0.1187
      4 N          11.1390   41.1172    5.3069 N.ar    1  UNL1       -0.1239
      5 S          10.2421   41.5493    7.6224 S.2     1  UNL1       -0.0102
      6 C          13.7015   42.7431    6.6949 C.2     1  UNL1        0.2510
      7 N          12.9081   41.5773    6.9536 N.am    1  UNL1       -0.2592
      8 O          13.2071   43.7273    6.0798 O.2     1  UNL1       -0.2698
      9 H          13.3367   40.8346    7.4374 H       1  UNL1        0.1571
     10 C          15.1022   42.7916    7.1496 C.ar    1  UNL1        0.0546
     11 C          15.5845   41.8455    8.0663 C.ar    1  UNL1        0.0159
     12 C          16.9135   41.8925    8.4972 C.ar    1  UNL1        0.0578
     13 C          17.7702   42.8856    8.0150 C.ar    1  UNL1        0.0114
     14 C          17.2979   43.8320    7.1018 C.ar    1  UNL1        0.0010
     15 C          15.9689   43.7851    6.6708 C.ar    1  UNL1        0.0046
     16 CL         17.5043   40.7070    9.6410 Cl      1  UNL1       -0.0822
     17 S           7.4307   41.1213    6.5440 S.O2    1  UNL1        0.1010
     18 O           6.7845   41.8774    5.4169 O.2     1  UNL1       -0.1477
     19 O           6.9868   39.6866    6.4868 O.2     1  UNL1       -0.1477
     20 C           7.6779   41.3740    9.2629 C.3     1  UNL1        0.1392
     21 N           6.9601   41.8061    8.0715 N.pl3   1  UNL1       -0.1870
     22 C           5.8798   42.7561    8.1723 C.ar    1  UNL1        0.0689
     23 C           5.9509   43.9980    7.5194 C.ar    1  UNL1        0.0161
     24 C           4.9013   44.9156    7.6151 C.ar    1  UNL1        0.0013
     25 C           3.7665   44.6023    8.3665 C.ar    1  UNL1        0.0001
     26 C           3.6818   43.3719    9.0219 C.ar    1  UNL1        0.0013
     27 C           4.7319   42.4547    8.9253 C.ar    1  UNL1        0.0161
@<TRIPOS>BOND
     1    20    21    1
     2    23    24   ar
     3    25    26   ar
     4    27    22   ar
     5     1     5   ar
     6     2     7    1
     7     2     5   ar
     8     6    10    1
     9    11    12   ar
    10    12    16    1
    11    13    14   ar
    12    15    10   ar
    13    21    22    1
    14     3     4   ar
    15     7     6   am
    16    17    21    1
    17    17     1    1
    18    22    23   ar
    19    24    25   ar
    20    26    27   ar
    21     1     3   ar
    22     2     4   ar
    23     6     8    2
    24    10    11   ar
    25    12    13   ar
    26    14    15   ar
    27    17    18    2
    28    17    19    2
    29     7     9    1
@<TRIPOS>MOLECULE
MolPort-007-723-438 6818289 ChemDiv-E157-5455 MCULE-8623262614 PubChem-22518003 ZINC000006818289 ZINC06818289
 27 29 0 0 0
SMALL
GASTEIGER

@<TRIPOS>ATOM
      1 C          12.9621   40.4222    8.8373 C.ar    1  UNL1        0.2593
      2 C          10.9081   41.5383    8.3525 C.ar    1  UNL1        0.1896
      3 N          12.6848   40.4673    7.5161 N.ar    1  UNL1       -0.1187
      4 N          11.5389   41.0888    7.2448 N.ar    1  UNL1       -0.1239
      5 S          11.7659   41.1752    9.7535 S.2     1  UNL1       -0.0102
      6 C           8.3757   41.6359    8.1588 C.2     1  UNL1        0.2510
      7 N           9.6623   42.2416    8.3415 N.am    1  UNL1       -0.2592
      8 O           8.2756   40.3896    7.9910 O.2     1  UNL1       -0.2698
      9 H           9.6907   43.2173    8.4694 H       1  UNL1        0.1571
     10 C           7.1638   42.4739    8.1667 C.ar    1  UNL1        0.0546
     11 C           6.1069   42.1859    9.0431 C.ar    1  UNL1        0.0159
     12 C           4.9575   42.9815    9.0499 C.ar    1  UNL1        0.0578
     13 C           4.8561   44.0708    8.1804 C.ar    1  UNL1        0.0114
     14 C           5.9041   44.3646    7.3041 C.ar    1  UNL1        0.0010
     15 C           7.0536   43.5691    7.2973 C.ar    1  UNL1        0.0046
     16 CL          3.6453   42.6128   10.1475 Cl      1  UNL1       -0.0822
     17 S          14.4067   39.6878    9.5019 S.O2    1  UNL1        0.1010
     18 O          15.6070   40.2368    8.7824 O.2     1  UNL1       -0.1477
     19 O          14.5221   40.0159   10.9640 O.2     1  UNL1       -0.1477
     20 C          15.4076   37.3088    8.5765 C.3     1  UNL1        0.1392
     21 N          14.3294   37.9617    9.3065 N.pl3   1  UNL1       -0.1870
     22 C          13.2267   37.1916    9.8266 C.ar    1  UNL1        0.0689
     23 C          11.8994   37.5508    9.5386 C.ar    1  UNL1        0.0161
     24 C          10.8323   36.8008   10.0403 C.ar    1  UNL1        0.0013
     25 C          11.0799   35.6814   10.8378 C.ar    1  UNL1        0.0001
     26 C          12.3941   35.3123   11.1334 C.ar    1  UNL1        0.0013
     27 C          13.4606   36.0629   10.6308 C.ar    1  UNL1        0.0161
@<TRIPOS>BOND
     1    20    21    1
     2    23    24   ar
     3    25    26   ar
     4    27    22   ar
     5     1     5   ar
     6     2     7    1
     7     2     5   ar
     8     6    10    1
     9    11    12   ar
    10    12    16    1
    11    13    14   ar
    12    15    10   ar
    13    21    22    1
    14     3     4   ar
    15     7     6   am
    16    17    21    1
    17    17     1    1
    18    22    23   ar
    19    24    25   ar
    20    26    27   ar
    21     1     3   ar
    22     2     4   ar
    23     6     8    2
    24    10    11   ar
    25    12    13   ar
    26    14    15   ar
    27    17    18    2
    28    17    19    2
    29     7     9    1
@<TRIPOS>MOLECULE
MolPort-007-723-438 6818289 ChemDiv-E157-5455 MCULE-8623262614 PubChem-22518003 ZINC000006818289 ZINC06818289
 27 29 0 0 0
SMALL
GASTEIGER

@<TRIPOS>ATOM
      1 C           9.3944   41.7364   10.6609 C.ar    1  UNL1        0.2593
      2 C          11.3737   42.1801    9.4018 C.ar    1  UNL1        0.1896
      3 N           9.9602   40.6189   10.1555 N.ar    1  UNL1       -0.1187
      4 N          11.0636   40.8654    9.4523 N.ar    1  UNL1       -0.1239
      5 S          10.2641   43.1189   10.2489 S.2     1  UNL1       -0.0102
      6 C          13.0532   42.1963    7.4942 C.2     1  UNL1        0.2510
      7 N          12.5090   42.7149    8.7151 N.am    1  UNL1       -0.2592
      8 O          12.5294   41.1923    6.9383 O.2     1  UNL1       -0.2698
      9 H          12.9510   43.5002    9.1117 H       1  UNL1        0.1571
     10 C          14.2310   42.8395    6.8857 C.ar    1  UNL1        0.0546
     11 C          15.4651   42.8376    7.5527 C.ar    1  UNL1        0.0159
     12 C          16.5819   43.4481    6.9746 C.ar    1  UNL1        0.0578
     13 C          16.4732   44.0650    5.7255 C.ar    1  UNL1        0.0114
     14 C          15.2476   44.0716    5.0544 C.ar    1  UNL1        0.0010
     15 C          14.1307   43.4611    5.6324 C.ar    1  UNL1        0.0046
     16 CL         18.1165   43.4397    7.8158 Cl      1  UNL1       -0.0822
     17 S           7.9452   41.7317   11.6447 S.O2    1  UNL1        0.1010
     18 O           7.9446   40.4986   12.5045 O.2     1  UNL1       -0.1477
     19 O           7.9241   42.9448   12.5316 O.2     1  UNL1       -0.1477
     20 C           5.2704   41.3297   11.1962 C.3     1  UNL1        0.1392
     21 N           6.5410   41.7471   10.6193 N.pl3   1  UNL1       -0.1870
     22 C           6.6224   42.1375    9.2334 C.ar    1  UNL1        0.0689
     23 C           6.5325   43.4889    8.8603 C.ar    1  UNL1        0.0161
     24 C           6.6156   43.8653    7.5171 C.ar    1  UNL1        0.0013
     25 C           6.7891   42.8935    6.5292 C.ar    1  UNL1        0.0001
     26 C           6.8793   41.5458    6.8847 C.ar    1  UNL1        0.0013
     27 C           6.7965   41.1704    8.2284 C.ar    1  UNL1        0.0161
@<TRIPOS>BOND
     1    20    21    1
     2    23    24   ar
     3    25    26   ar
     4    27    22   ar
     5     1     5   ar
     6     2     7    1
     7     2     5   ar
     8     6    10    1
     9    11    12   ar
    10    12    16    1
    11    13    14   ar
    12    15    10   ar
    13    21    22    1
    14     3     4   ar
    15     7     6   am
    16    17    21    1
    17    17     1    1
    18    22    23   ar
    19    24    25   ar
    20    26    27   ar
    21     1     3   ar
    22     2     4   ar
    23     6     8    2
    24    10    11   ar
    25    12    13   ar
    26    14    15   ar
    27    17    18    2
    28    17    19    2
    29     7     9    1
@<TRIPOS>MOLECULE
MolPort-007-723-438 6818289 ChemDiv-E157-5455 MCULE-8623262614 PubChem-22518003 ZINC000006818289 ZINC06818289
 27 29 0 0 0
SMALL
GASTEIGER

@<TRIPOS>ATOM
      1 C           8.4941   42.0325    7.9750 C.ar    1  UNL1        0.2593
      2 C          10.7938   42.1245    8.6095 C.ar    1  UNL1        0.1896
      3 N           8.6768   42.4882    9.2333 N.ar    1  UNL1       -0.1187
      4 N           9.9590   42.5390    9.5884 N.ar    1  UNL1       -0.1239
      5 S           9.9566   41.6647    7.2245 S.2     1  UNL1       -0.0102
      6 C          13.1367   42.0248    7.6293 C.2     1  UNL1        0.2510
      7 N          12.2188   42.0824    8.7291 N.am    1  UNL1       -0.2592
      8 O          12.7096   42.0084    6.4424 O.2     1  UNL1       -0.2698
      9 H          12.5986   42.0939    9.6373 H       1  UNL1        0.1571
     10 C          14.5869   41.9843    7.8868 C.ar    1  UNL1        0.0546
     11 C          15.4520   42.8622    7.2168 C.ar    1  UNL1        0.0159
     12 C          16.8277   42.8230    7.4617 C.ar    1  UNL1        0.0578
     13 C          17.3488   41.9057    8.3782 C.ar    1  UNL1        0.0114
     14 C          16.4942   41.0275    9.0498 C.ar    1  UNL1        0.0010
     15 C          15.1184   41.0667    8.8049 C.ar    1  UNL1        0.0046
     16 CL         17.8974   43.9229    6.6201 Cl      1  UNL1       -0.0822
     17 S           6.9223   41.8717    7.2189 S.O2    1  UNL1        0.1010
     18 O           7.0220   42.3224    5.7883 O.2     1  UNL1       -0.1477
     19 O           6.4844   40.4343    7.2482 O.2     1  UNL1       -0.1477
     20 C           5.5609   44.2158    7.6301 C.3     1  UNL1        0.1392
     21 N           5.7595   42.8424    8.0727 N.pl3   1  UNL1       -0.1870
     22 C           5.0243   42.3231    9.1994 C.ar    1  UNL1        0.0689
     23 C           3.6324   42.4911    9.2893 C.ar    1  UNL1        0.0161
     24 C           2.9213   41.9837   10.3800 C.ar    1  UNL1        0.0013
     25 C           3.5945   41.3018   11.3960 C.ar    1  UNL1        0.0001
     26 C           4.9783   41.1276   11.3210 C.ar    1  UNL1        0.0013
     27 C           5.6885   41.6352   10.2295 C.ar    1  UNL1        0.0161
@<TRIPOS>BOND
     1    20    21    1
     2    23    24   ar
     3    25    26   ar
     4    27    22   ar
     5     1     5   ar
     6     2     7    1
     7     2     5   ar
     8     6    10    1
     9    11    12   ar
    10    12    16    1
    11    13    14   ar
    12    15    10   ar
    13    21    22    1
    14     3     4   ar
    15     7     6   am
    16    17    21    1
    17    17     1    1
    18    22    23   ar
    19    24    25   ar
    20    26    27   ar
    21     1     3   ar
    22     2     4   ar
    23     6     8    2
    24    10    11   ar
    25    12    13   ar
    26    14    15   ar
    27    17    18    2
    28    17    19    2
    29     7     9    1
@<TRIPOS>MOLECULE
MolPort-007-723-438 6818289 ChemDiv-E157-5455 MCULE-8623262614 PubChem-22518003 ZINC000006818289 ZINC06818289
 27 29 0 0 0
SMALL
GASTEIGER

@<TRIPOS>ATOM
      1 C          14.6035   39.6861   10.2278 C.ar    1  UNL1        0.2593
      2 C          12.4010   40.2340    9.4873 C.ar    1  UNL1        0.1896
      3 N          13.7251   39.8284   11.2439 N.ar    1  UNL1       -0.1187
      4 N          12.4966   40.1349   10.8320 N.ar    1  UNL1       -0.1239
      5 S          13.8742   39.9383    8.7305 S.2     1  UNL1       -0.0102
      6 C          10.2494   39.5871    8.2991 C.2     1  UNL1        0.2510
      7 N          11.1947   40.5489    8.7858 N.am    1  UNL1       -0.2592
      8 O          10.4461   38.3536    8.4762 O.2     1  UNL1       -0.2698
      9 H          10.9983   41.5001    8.6246 H       1  UNL1        0.1571
     10 C           9.0416   40.0418    7.5881 C.ar    1  UNL1        0.0546
     11 C           8.6611   41.3916    7.6259 C.ar    1  UNL1        0.0159
     12 C           7.5151   41.8221    6.9511 C.ar    1  UNL1        0.0578
     13 C           6.7409   40.9064    6.2336 C.ar    1  UNL1        0.0114
     14 C           7.1126   39.5601    6.1908 C.ar    1  UNL1        0.0010
     15 C           8.2587   39.1295    6.8656 C.ar    1  UNL1        0.0046
     16 CL          7.0500   43.5083    7.0053 Cl      1  UNL1       -0.0822
     17 S          16.2890   39.2658   10.4528 S.O2    1  UNL1        0.1010
     18 O          17.1376   40.2081    9.6454 O.2     1  UNL1       -0.1477
     19 O          16.6603   39.3959   11.9032 O.2     1  UNL1       -0.1477
     20 C          17.9123   37.2430    9.5636 C.3     1  UNL1        0.1392
     21 N          16.5580   37.6270    9.9374 N.pl3   1  UNL1       -0.1870
     22 C          15.4786   36.6741    9.8567 C.ar    1  UNL1        0.0689
     23 C          14.3865   36.7480   10.7374 C.ar    1  UNL1        0.0161
     24 C          13.3397   35.8259   10.6548 C.ar    1  UNL1        0.0013
     25 C          13.3725   34.8170    9.6897 C.ar    1  UNL1        0.0001
     26 C          14.4519   34.7303    8.8077 C.ar    1  UNL1        0.0013
     27 C          15.4983   35.6532    8.8908 C.ar    1  UNL1        0.0161
@<TRIPOS>BOND
     1    20    21    1
     2    23    24   ar
     3    25    26   ar
     4    27    22   ar
     5     1     5   ar
     6     2     7    1
     7     2     5   ar
     8     6    10    1
     9    11    12   ar
    10    12    16    1
    11    13    14   ar
    12    15    10   ar
    13    21    22    1
    14     3     4   ar
    15     7     6   am
    16    17    21    1
    17    17     1    1
    18    22    23   ar
    19    24    25   ar
    20    26    27   ar
    21     1     3   ar
    22     2     4   ar
    23     6     8    2
    24    10    11   ar
    25    12    13   ar
    26    14    15   ar
    27    17    18    2
    28    17    19    2
    29     7     9    1
@<TRIPOS>MOLECULE
MolPort-007-723-438 6818289 ChemDiv-E157-5455 MCULE-8623262614 PubChem-22518003 ZINC000006818289 ZINC06818289
 27 29 0 0 0
SMALL
GASTEIGER

@<TRIPOS>ATOM
      1 C          13.3769   38.5306   10.6749 C.ar    1  UNL1        0.2593
      2 C          11.5955   39.8227    9.7494 C.ar    1  UNL1        0.1896
      3 N          12.3290   37.7767   10.2775 N.ar    1  UNL1       -0.1187
      4 N          11.3346   38.4965    9.7620 N.ar    1  UNL1       -0.1239
      5 S          13.1103   40.1699   10.3938 S.2     1  UNL1       -0.0102
      6 C           9.9265   41.7149   10.0557 C.2     1  UNL1        0.2510
      7 N          10.6973   40.8164    9.2469 N.am    1  UNL1       -0.2592
      8 O          10.0083   41.6702   11.3138 O.2     1  UNL1       -0.2698
      9 H          10.6010   40.8889    8.2698 H       1  UNL1        0.1571
     10 C           9.0336   42.6956    9.4138 C.ar    1  UNL1        0.0546
     11 C           8.3554   42.3702    8.2297 C.ar    1  UNL1        0.0159
     12 C           7.5085   43.3013    7.6214 C.ar    1  UNL1        0.0578
     13 C           7.3336   44.5647    8.1923 C.ar    1  UNL1        0.0114
     14 C           8.0055   44.8971    9.3716 C.ar    1  UNL1        0.0010
     15 C           8.8523   43.9660    9.9799 C.ar    1  UNL1        0.0046
     16 CL          6.6676   42.8844    6.1444 Cl      1  UNL1       -0.0822
     17 S          14.8401   37.8685   11.3741 S.O2    1  UNL1        0.1010
     18 O          15.1848   38.6491   12.6116 O.2     1  UNL1       -0.1477
     19 O          14.6228   36.4296   11.7497 O.2     1  UNL1       -0.1477
     20 C          16.9451   39.1824   10.2079 C.3     1  UNL1        0.1392
     21 N          16.1380   37.9699   10.2215 N.pl3   1  UNL1       -0.1870
     22 C          16.4037   36.9036    9.2877 C.ar    1  UNL1        0.0689
     23 C          17.6509   36.2571    9.2699 C.ar    1  UNL1        0.0161
     24 C          17.9049   35.2213    8.3669 C.ar    1  UNL1        0.0013
     25 C          16.9137   34.8193    7.4689 C.ar    1  UNL1        0.0001
     26 C          15.6691   35.4530    7.4741 C.ar    1  UNL1        0.0013
     27 C          15.4159   36.4887    8.3779 C.ar    1  UNL1        0.0161
@<TRIPOS>BOND
     1    20    21    1
     2    23    24   ar
     3    25    26   ar
     4    27    22   ar
     5     1     5   ar
     6     2     7    1
     7     2     5   ar
     8     6    10    1
     9    11    12   ar
    10    12    16    1
    11    13    14   ar
    12    15    10   ar
    13    21    22    1
    14     3     4   ar
    15     7     6   am
    16    17    21    1
    17    17     1    1
    18    22    23   ar
    19    24    25   ar
    20    26    27   ar
    21     1     3   ar
    22     2     4   ar
    23     6     8    2
    24    10    11   ar
    25    12    13   ar
    26    14    15   ar
    27    17    18    2
    28    17    19    2
    29     7     9    1
