@<TRIPOS>MOLECULE
MolPort-020-292-523 MCULE-5655694091 PubChem-110264991
 33 36 0 0 0
SMALL
GASTEIGER

@<TRIPOS>ATOM
      1 C          13.2144   40.1191   10.1729 C.3     1  UNL1        0.0602
      2 C          12.6794   38.7477    9.7563 C.3     1  UNL1        0.0094
      3 C          11.1756   38.6650   10.0090 C.3     1  UNL1        0.0220
      4 C          10.4550   39.7722    9.2456 C.3     1  UNL1        0.0937
      5 C          12.4818   41.2296    9.4207 C.3     1  UNL1        0.0996
      6 C          10.2600   42.1003   10.2116 C.2     1  UNL1        0.2534
      7 N          11.0411   41.0657    9.5915 N.am    1  UNL1       -0.2756
      8 O          10.8397   43.0592   10.7904 O.2     1  UNL1       -0.2697
      9 C           8.7781   42.0561   10.2081 C.ar    1  UNL1        0.1057
     10 C           8.0609   41.5933   11.3275 C.ar    1  UNL1       -0.0117
     11 C           6.6708   41.5612   11.2913 C.ar    1  UNL1        0.0089
     12 C           5.9928   41.9831   10.1502 C.ar    1  UNL1        0.0400
     13 C           8.0597   42.4598    9.0637 C.ar    1  UNL1        0.2647
     14 C           5.9696   42.8511    7.8598 C.3     1  UNL1        0.1332
     15 C           4.4994   41.9331   10.1616 C.3     1  UNL1        0.0501
     16 C           8.7448   41.0808   12.5510 C.3     1  UNL1        0.0314
     17 N           6.6901   42.4192    9.0552 N.ar    1  UNL1       -0.2971
     18 O           8.6853   42.8716    8.0461 O.2     1  UNL1       -0.2668
     19 C          17.7789   38.4045   10.9840 C.3     1  UNL1        0.0521
     20 C          16.8808   39.3848   10.3207 C.ar    1  UNL1        0.0602
     21 C          17.4162   40.3680    9.4868 C.ar    1  UNL1        0.0294
     22 C          16.5629   41.2886    8.8649 C.ar    1  UNL1        0.0518
     23 C          15.1875   41.2028    9.0936 C.ar    1  UNL1        0.0294
     24 C          14.6852   40.2062    9.9346 C.ar    1  UNL1        0.0611
     25 N          15.5383   39.3237   10.5261 N.ar    1  UNL1       -0.2538
     26 N          17.0545   42.3203    7.9978 N.pl3   1  UNL1       -0.2966
     27 H          18.0308   42.4459    7.9781 H       1  UNL1        0.1537
     28 C          16.2844   43.1893    7.1565 C.ar    1  UNL1        0.1516
     29 C          14.2946   43.6971    5.9689 C.ar    1  UNL1        0.1210
     30 C          14.8568   44.9000    5.5397 C.ar    1  UNL1        0.1196
     31 C          16.8437   44.3941    6.7247 C.ar    1  UNL1        0.1332
     32 N          15.0196   42.8695    6.7666 N.ar    1  UNL1       -0.2258
     33 N          16.1190   45.2223    5.9268 N.ar    1  UNL1       -0.2378
@<TRIPOS>BOND
     1    19    20    1
     2    20    25   ar
     3    21    22   ar
     4    22    26    1
     5    23    24   ar
     6     1    24    1
     7     1     2    1
     8     2     3    1
     9     3     4    1
    10     4     7    1
    11     5     7    1
    12     5     1    1
    13     6     9    1
    14    10    11   ar
    15    12    17   ar
    16    13     9   ar
    17    14    17    1
    18    15    12    1
    19    16    10    1
    20    29    32   ar
    21    30    33   ar
    22    31    28   ar
    23     7     6   am
    24    17    13   ar
    25    26    28    1
    26    20    21   ar
    27    22    23   ar
    28    24    25   ar
    29     6     8    2
    30     9    10   ar
    31    11    12   ar
    32    13    18    2
    33    28    32   ar
    34    29    30   ar
    35    31    33   ar
    36    26    27    1
@<TRIPOS>MOLECULE
MolPort-020-292-523 MCULE-5655694091 PubChem-110264991
 33 36 0 0 0
SMALL
GASTEIGER

@<TRIPOS>ATOM
      1 C          13.0540   40.0012    9.9794 C.3     1  UNL1        0.0602
      2 C          12.6088   38.5555    9.7511 C.3     1  UNL1        0.0094
      3 C          11.0913   38.4407    9.8780 C.3     1  UNL1        0.0220
      4 C          10.4107   39.3717    8.8791 C.3     1  UNL1        0.0937
      5 C          12.3603   40.9367    8.9900 C.3     1  UNL1        0.0996
      6 C          10.0441   41.8135    9.4220 C.2     1  UNL1        0.2534
      7 N          10.9162   40.7317    9.0557 N.am    1  UNL1       -0.2756
      8 O          10.5322   42.8813    9.8825 O.2     1  UNL1       -0.2697
      9 C           8.5719   41.6960    9.2929 C.ar    1  UNL1        0.1057
     10 C           7.9422   41.7807    8.0367 C.ar    1  UNL1       -0.0117
     11 C           6.5585   41.6698    7.9495 C.ar    1  UNL1        0.0089
     12 C           5.8000   41.4785    9.1019 C.ar    1  UNL1        0.0400
     13 C           7.7716   41.5185   10.4403 C.ar    1  UNL1        0.2647
     14 C           5.6049   41.2191   11.5298 C.3     1  UNL1        0.1332
     15 C           4.3175   41.3615    8.9560 C.3     1  UNL1        0.0501
     16 C           8.7077   42.0391    6.7818 C.3     1  UNL1        0.0314
     17 N           6.4104   41.4111   10.3260 N.ar    1  UNL1       -0.2971
     18 O           8.3171   41.4472   11.5778 O.2     1  UNL1       -0.2668
     19 C          17.5747   38.5035   11.3037 C.3     1  UNL1        0.0521
     20 C          16.7119   39.4037   10.4957 C.ar    1  UNL1        0.0602
     21 C          17.2916   40.3432    9.6413 C.ar    1  UNL1        0.0294
     22 C          16.4715   41.1883    8.8826 C.ar    1  UNL1        0.0518
     23 C          15.0841   41.0724    8.9977 C.ar    1  UNL1        0.0294
     24 C          14.5372   40.1210    9.8629 C.ar    1  UNL1        0.0611
     25 N          15.3588   39.3117   10.5886 N.ar    1  UNL1       -0.2538
     26 N          17.0091   42.1725    7.9879 N.pl3   1  UNL1       -0.2966
     27 H          17.9906   42.2158    7.9251 H       1  UNL1        0.1537
     28 C          16.2781   43.1002    7.1749 C.ar    1  UNL1        0.1516
     29 C          14.2942   43.7581    6.0530 C.ar    1  UNL1        0.1210
     30 C          14.9285   44.9197    5.6107 C.ar    1  UNL1        0.1196
     31 C          16.9097   44.2638    6.7301 C.ar    1  UNL1        0.1332
     32 N          14.9819   42.8753    6.8241 N.ar    1  UNL1       -0.2258
     33 N          16.2224   45.1472    5.9587 N.ar    1  UNL1       -0.2378
@<TRIPOS>BOND
     1    19    20    1
     2    20    25   ar
     3    21    22   ar
     4    22    26    1
     5    23    24   ar
     6     1    24    1
     7     1     2    1
     8     2     3    1
     9     3     4    1
    10     4     7    1
    11     5     7    1
    12     5     1    1
    13     6     9    1
    14    10    11   ar
    15    12    17   ar
    16    13     9   ar
    17    14    17    1
    18    15    12    1
    19    16    10    1
    20    29    32   ar
    21    30    33   ar
    22    31    28   ar
    23     7     6   am
    24    17    13   ar
    25    26    28    1
    26    20    21   ar
    27    22    23   ar
    28    24    25   ar
    29     6     8    2
    30     9    10   ar
    31    11    12   ar
    32    13    18    2
    33    28    32   ar
    34    29    30   ar
    35    31    33   ar
    36    26    27    1
@<TRIPOS>MOLECULE
MolPort-020-292-523 MCULE-5655694091 PubChem-110264991
 33 36 0 0 0
SMALL
GASTEIGER

@<TRIPOS>ATOM
      1 C          12.0759   39.9161    9.7545 C.3     1  UNL1        0.0602
      2 C          11.5732   38.8259    8.8063 C.3     1  UNL1        0.0094
      3 C          10.0467   38.7841    8.8066 C.3     1  UNL1        0.0220
      4 C           9.4859   40.1436    8.4002 C.3     1  UNL1        0.0937
      5 C          11.5016   41.2757    9.3581 C.3     1  UNL1        0.0996
      6 C           9.2097   41.9946   10.0998 C.2     1  UNL1        0.2534
      7 N          10.0478   41.1816    9.2622 N.am    1  UNL1       -0.2756
      8 O           9.7194   42.6394   11.0563 O.2     1  UNL1       -0.2697
      9 C           7.7458   42.0766    9.8802 C.ar    1  UNL1        0.1057
     10 C           7.2143   42.7328    8.7538 C.ar    1  UNL1       -0.0117
     11 C           5.8360   42.7952    8.5782 C.ar    1  UNL1        0.0089
     12 C           4.9862   42.2126    9.5155 C.ar    1  UNL1        0.0400
     13 C           6.8557   41.5125   10.8173 C.ar    1  UNL1        0.2647
     14 C           4.6017   40.9871   11.6012 C.3     1  UNL1        0.1332
     15 C           3.5133   42.3030    9.2804 C.3     1  UNL1        0.0501
     16 C           8.0829   43.4179    7.7520 C.3     1  UNL1        0.0314
     17 N           5.5020   41.5873   10.6193 N.ar    1  UNL1       -0.2971
     18 O           7.3128   40.9255   11.8385 O.2     1  UNL1       -0.2668
     19 C          16.3897   38.0734   11.3130 C.3     1  UNL1        0.0521
     20 C          15.6435   39.0766   10.5103 C.ar    1  UNL1        0.0602
     21 C          16.3388   40.0405    9.7781 C.ar    1  UNL1        0.0294
     22 C          15.6282   40.9829    9.0235 C.ar    1  UNL1        0.0518
     23 C          14.2320   40.9379    9.0198 C.ar    1  UNL1        0.0294
     24 C          13.5678   39.9596    9.7645 C.ar    1  UNL1        0.0611
     25 N          14.2844   39.0551   10.4891 N.ar    1  UNL1       -0.2538
     26 N          16.2872   41.9966    8.2513 N.pl3   1  UNL1       -0.2966
     27 H          17.2574   42.0899    8.3904 H       1  UNL1        0.1537
     28 C          15.6923   42.8891    7.2997 C.ar    1  UNL1        0.1516
     29 C          13.9821   43.4217    5.7445 C.ar    1  UNL1        0.1210
     30 C          14.5997   44.6454    5.4831 C.ar    1  UNL1        0.1196
     31 C          16.3077   44.1147    7.0353 C.ar    1  UNL1        0.1332
     32 N          14.5411   42.5718    6.6456 N.ar    1  UNL1       -0.2258
     33 N          15.7490   44.9652    6.1340 N.ar    1  UNL1       -0.2378
@<TRIPOS>BOND
     1    19    20    1
     2    20    25   ar
     3    21    22   ar
     4    22    26    1
     5    23    24   ar
     6     1    24    1
     7     1     2    1
     8     2     3    1
     9     3     4    1
    10     4     7    1
    11     5     7    1
    12     5     1    1
    13     6     9    1
    14    10    11   ar
    15    12    17   ar
    16    13     9   ar
    17    14    17    1
    18    15    12    1
    19    16    10    1
    20    29    32   ar
    21    30    33   ar
    22    31    28   ar
    23     7     6   am
    24    17    13   ar
    25    26    28    1
    26    20    21   ar
    27    22    23   ar
    28    24    25   ar
    29     6     8    2
    30     9    10   ar
    31    11    12   ar
    32    13    18    2
    33    28    32   ar
    34    29    30   ar
    35    31    33   ar
    36    26    27    1
@<TRIPOS>MOLECULE
MolPort-020-292-523 MCULE-5655694091 PubChem-110264991
 33 36 0 0 0
SMALL
GASTEIGER

@<TRIPOS>ATOM
      1 C           9.4271   42.3726    8.3722 C.3     1  UNL1        0.0602
      2 C           9.8558   42.9589    9.7186 C.3     1  UNL1        0.0094
      3 C           8.6336   43.4153   10.5125 C.3     1  UNL1        0.0220
      4 C           7.6782   42.2442   10.7214 C.3     1  UNL1        0.0937
      5 C           8.4572   41.2100    8.5799 C.3     1  UNL1        0.0996
      6 C           6.0008   41.6040    8.9416 C.2     1  UNL1        0.2534
      7 N           7.3518   41.6432    9.4297 N.am    1  UNL1       -0.2756
      8 O           5.7843   41.3898    7.7177 O.2     1  UNL1       -0.2697
      9 C           4.8470   41.8340    9.8436 C.ar    1  UNL1        0.1057
     10 C           4.0325   42.9741    9.7077 C.ar    1  UNL1       -0.0117
     11 C           2.9593   43.1625   10.5721 C.ar    1  UNL1        0.0089
     12 C           2.6944   42.2272   11.5696 C.ar    1  UNL1        0.0400
     13 C           4.5596   40.9162   10.8751 C.ar    1  UNL1        0.2647
     14 C           3.2142   40.1548   12.7674 C.3     1  UNL1        0.1332
     15 C           1.5280   42.4723   12.4708 C.3     1  UNL1        0.0501
     16 C           4.3096   44.0297    8.6897 C.3     1  UNL1        0.0314
     17 N           3.4952   41.1254   11.7122 N.ar    1  UNL1       -0.2971
     18 O           5.2831   39.8902   11.0181 O.2     1  UNL1       -0.2668
     19 C          11.3238   40.0979    4.4147 C.3     1  UNL1        0.0521
     20 C          11.5327   40.8378    5.6861 C.ar    1  UNL1        0.0602
     21 C          12.8280   41.1108    6.1293 C.ar    1  UNL1        0.0294
     22 C          13.0168   41.8091    7.3290 C.ar    1  UNL1        0.0518
     23 C          11.8993   42.2195    8.0599 C.ar    1  UNL1        0.0294
     24 C          10.6167   41.9293    7.5872 C.ar    1  UNL1        0.0611
     25 N          10.4625   41.2489    6.4168 N.ar    1  UNL1       -0.2538
     26 N          14.3231   42.1186    7.8348 N.pl3   1  UNL1       -0.2966
     27 H          14.5196   41.8163    8.7509 H       1  UNL1        0.1537
     28 C          15.3748   42.8186    7.1567 C.ar    1  UNL1        0.1516
     29 C          17.6736   43.3224    6.8583 C.ar    1  UNL1        0.1210
     30 C          17.3487   44.1918    5.8163 C.ar    1  UNL1        0.1196
     31 C          15.0535   43.6898    6.1134 C.ar    1  UNL1        0.1332
     32 N          16.6811   42.6559    7.5045 N.ar    1  UNL1       -0.2258
     33 N          16.0458   44.3567    5.4666 N.ar    1  UNL1       -0.2378
@<TRIPOS>BOND
     1    19    20    1
     2    20    25   ar
     3    21    22   ar
     4    22    26    1
     5    23    24   ar
     6     1    24    1
     7     1     2    1
     8     2     3    1
     9     3     4    1
    10     4     7    1
    11     5     7    1
    12     5     1    1
    13     6     9    1
    14    10    11   ar
    15    12    17   ar
    16    13     9   ar
    17    14    17    1
    18    15    12    1
    19    16    10    1
    20    29    32   ar
    21    30    33   ar
    22    31    28   ar
    23     7     6   am
    24    17    13   ar
    25    26    28    1
    26    20    21   ar
    27    22    23   ar
    28    24    25   ar
    29     6     8    2
    30     9    10   ar
    31    11    12   ar
    32    13    18    2
    33    28    32   ar
    34    29    30   ar
    35    31    33   ar
    36    26    27    1
@<TRIPOS>MOLECULE
MolPort-020-292-523 MCULE-5655694091 PubChem-110264991
 33 36 0 0 0
SMALL
GASTEIGER

@<TRIPOS>ATOM
      1 C           7.0153   41.3291   10.9028 C.3     1  UNL1        0.0602
      2 C           7.5546   41.6633   12.2949 C.3     1  UNL1        0.0094
      3 C           8.9671   41.1083   12.4647 C.3     1  UNL1        0.0220
      4 C           9.8857   41.6765   11.3871 C.3     1  UNL1        0.0937
      5 C           7.9434   41.8838    9.8228 C.3     1  UNL1        0.0996
      6 C           9.9943   40.6285    9.0890 C.2     1  UNL1        0.2534
      7 N           9.3072   41.4241   10.0688 N.am    1  UNL1       -0.2756
      8 O           9.3567   40.1560    8.1088 O.2     1  UNL1       -0.2697
      9 C          11.4405   40.3277    9.2151 C.ar    1  UNL1        0.1057
     10 C          12.4156   41.2541    8.7998 C.ar    1  UNL1       -0.0117
     11 C          13.7646   40.9403    8.9284 C.ar    1  UNL1        0.0089
     12 C          14.1473   39.7127    9.4636 C.ar    1  UNL1        0.0400
     13 C          11.8637   39.0878    9.7369 C.ar    1  UNL1        0.2647
     14 C          13.6111   37.5161   10.4057 C.3     1  UNL1        0.1332
     15 C          15.6084   39.4238    9.5847 C.3     1  UNL1        0.0501
     16 C          12.0537   42.5584    8.1712 C.3     1  UNL1        0.0314
     17 N          13.1993   38.8047    9.8538 N.ar    1  UNL1       -0.2971
     18 O          11.0038   38.2399   10.1086 O.2     1  UNL1       -0.2668
     19 C           3.7965   44.1122    8.3875 C.3     1  UNL1        0.0521
     20 C           4.0815   43.1988    9.5242 C.ar    1  UNL1        0.0602
     21 C           3.0616   42.8504   10.4113 C.ar    1  UNL1        0.0294
     22 C           3.3380   41.9885   11.4805 C.ar    1  UNL1        0.0518
     23 C           4.6349   41.4937   11.6371 C.ar    1  UNL1        0.0294
     24 C           5.6322   41.8632   10.7307 C.ar    1  UNL1        0.0611
     25 N           5.3350   42.7028    9.6995 N.ar    1  UNL1       -0.2538
     26 N           2.3314   41.5949   12.4239 N.pl3   1  UNL1       -0.2966
     27 H           2.3454   40.6530   12.7100 H       1  UNL1        0.1537
     28 C           1.3073   42.4186   12.9972 C.ar    1  UNL1        0.1516
     29 C          -0.9788   42.8931   13.4168 C.ar    1  UNL1        0.1210
     30 C          -0.6122   44.0412   14.1204 C.ar    1  UNL1        0.1196
     31 C           1.6702   43.5685   13.7018 C.ar    1  UNL1        0.1332
     32 N          -0.0125   42.1084   12.8715 N.ar    1  UNL1       -0.2258
     33 N           0.7042   44.3539   14.2475 N.ar    1  UNL1       -0.2378
@<TRIPOS>BOND
     1    19    20    1
     2    20    25   ar
     3    21    22   ar
     4    22    26    1
     5    23    24   ar
     6     1    24    1
     7     1     2    1
     8     2     3    1
     9     3     4    1
    10     4     7    1
    11     5     7    1
    12     5     1    1
    13     6     9    1
    14    10    11   ar
    15    12    17   ar
    16    13     9   ar
    17    14    17    1
    18    15    12    1
    19    16    10    1
    20    29    32   ar
    21    30    33   ar
    22    31    28   ar
    23     7     6   am
    24    17    13   ar
    25    26    28    1
    26    20    21   ar
    27    22    23   ar
    28    24    25   ar
    29     6     8    2
    30     9    10   ar
    31    11    12   ar
    32    13    18    2
    33    28    32   ar
    34    29    30   ar
    35    31    33   ar
    36    26    27    1
@<TRIPOS>MOLECULE
MolPort-020-292-523 MCULE-5655694091 PubChem-110264991
 33 36 0 0 0
SMALL
GASTEIGER

@<TRIPOS>ATOM
      1 C          11.1189   40.1269    9.1624 C.3     1  UNL1        0.0602
      2 C          10.8786   39.8492    7.6773 C.3     1  UNL1        0.0094
      3 C           9.4469   40.2162    7.2931 C.3     1  UNL1        0.0220
      4 C           9.1798   41.6844    7.6105 C.3     1  UNL1        0.0937
      5 C          10.8357   41.5937    9.4846 C.3     1  UNL1        0.0996
      6 C           8.5002   42.4070    9.9359 C.2     1  UNL1        0.2534
      7 N           9.5004   41.9477    9.0120 N.am    1  UNL1       -0.2756
      8 O           8.7054   42.3137   11.1767 O.2     1  UNL1       -0.2697
      9 C           7.2132   42.9709    9.4631 C.ar    1  UNL1        0.1057
     10 C           7.1292   44.2925    8.9855 C.ar    1  UNL1       -0.0117
     11 C           5.9060   44.7931    8.5520 C.ar    1  UNL1        0.0089
     12 C           4.7691   43.9895    8.5936 C.ar    1  UNL1        0.0400
     13 C           6.0390   42.1912    9.5067 C.ar    1  UNL1        0.2647
     14 C           3.6467   41.8769    9.1201 C.3     1  UNL1        0.1332
     15 C           3.4793   44.5715    8.1135 C.3     1  UNL1        0.0501
     16 C           8.3081   45.2076    8.9727 C.3     1  UNL1        0.0314
     17 N           4.8469   42.7087    9.0723 N.ar    1  UNL1       -0.2971
     18 O           6.0921   41.0051    9.9387 O.2     1  UNL1       -0.2668
     19 C          14.2401   37.2286   11.6706 C.3     1  UNL1        0.0521
     20 C          14.0187   38.3741   10.7506 C.ar    1  UNL1        0.0602
     21 C          15.1088   39.0935   10.2579 C.ar    1  UNL1        0.0294
     22 C          14.8921   40.1721    9.3907 C.ar    1  UNL1        0.0518
     23 C          13.5831   40.5066    9.0357 C.ar    1  UNL1        0.0294
     24 C          12.5148   39.7652    9.5475 C.ar    1  UNL1        0.0611
     25 N          12.7549   38.7207   10.3888 N.ar    1  UNL1       -0.2538
     26 N          15.9720   40.9481    8.8525 N.pl3   1  UNL1       -0.2966
     27 H          16.8816   40.6383    9.0668 H       1  UNL1        0.1537
     28 C          15.8760   42.1241    8.0378 C.ar    1  UNL1        0.1516
     29 C          14.7699   43.4157    6.3838 C.ar    1  UNL1        0.1210
     30 C          15.7477   44.4044    6.5007 C.ar    1  UNL1        0.1196
     31 C          16.8529   43.1157    8.1518 C.ar    1  UNL1        0.1332
     32 N          14.8554   42.2991    7.1537 N.ar    1  UNL1       -0.2258
     33 N          16.7680   44.2328    7.3820 N.ar    1  UNL1       -0.2378
@<TRIPOS>BOND
     1    19    20    1
     2    20    25   ar
     3    21    22   ar
     4    22    26    1
     5    23    24   ar
     6     1    24    1
     7     1     2    1
     8     2     3    1
     9     3     4    1
    10     4     7    1
    11     5     7    1
    12     5     1    1
    13     6     9    1
    14    10    11   ar
    15    12    17   ar
    16    13     9   ar
    17    14    17    1
    18    15    12    1
    19    16    10    1
    20    29    32   ar
    21    30    33   ar
    22    31    28   ar
    23     7     6   am
    24    17    13   ar
    25    26    28    1
    26    20    21   ar
    27    22    23   ar
    28    24    25   ar
    29     6     8    2
    30     9    10   ar
    31    11    12   ar
    32    13    18    2
    33    28    32   ar
    34    29    30   ar
    35    31    33   ar
    36    26    27    1
@<TRIPOS>MOLECULE
MolPort-020-292-523 MCULE-5655694091 PubChem-110264991
 33 36 0 0 0
SMALL
GASTEIGER

@<TRIPOS>ATOM
      1 C          13.7579   39.5539    9.6977 C.3     1  UNL1        0.0602
      2 C          13.1887   38.2475   10.2540 C.3     1  UNL1        0.0094
      3 C          11.6678   38.2300   10.1171 C.3     1  UNL1        0.0220
      4 C          11.2720   38.4030    8.6538 C.3     1  UNL1        0.0937
      5 C          13.3483   39.7362    8.2367 C.3     1  UNL1        0.0996
      6 C          11.1121   40.7025    7.6156 C.2     1  UNL1        0.2534
      7 N          11.8987   39.6096    8.1174 N.am    1  UNL1       -0.2756
      8 O          11.6414   41.8378    7.4686 O.2     1  UNL1       -0.2697
      9 C           9.6768   40.5333    7.2856 C.ar    1  UNL1        0.1057
     10 C           9.2726   39.9921    6.0505 C.ar    1  UNL1       -0.0117
     11 C           7.9178   39.8493    5.7699 C.ar    1  UNL1        0.0089
     12 C           6.9659   40.2432    6.7073 C.ar    1  UNL1        0.0400
     13 C           8.6858   40.9367    8.2042 C.ar    1  UNL1        0.2647
     14 C           6.3514   41.2020    8.8759 C.3     1  UNL1        0.1332
     15 C           5.5233   40.0661    6.3607 C.3     1  UNL1        0.0501
     16 C          10.2541   39.6067    4.9943 C.3     1  UNL1        0.0314
     17 N           7.3580   40.7837    7.9030 N.ar    1  UNL1       -0.2971
     18 O           9.0281   41.4313    9.3155 O.2     1  UNL1       -0.2668
     19 C          17.9379   37.4592   11.3019 C.3     1  UNL1        0.0521
     20 C          17.2558   38.5780   10.6014 C.ar    1  UNL1        0.0602
     21 C          18.0048   39.6339   10.0794 C.ar    1  UNL1        0.0294
     22 C          17.3545   40.6849    9.4200 C.ar    1  UNL1        0.0518
     23 C          15.9632   40.6539    9.2984 C.ar    1  UNL1        0.0294
     24 C          15.2441   39.5816    9.8330 C.ar    1  UNL1        0.0611
     25 N          15.9028   38.5725   10.4689 N.ar    1  UNL1       -0.2538
     26 N          18.0706   41.7964    8.8632 N.pl3   1  UNL1       -0.2966
     27 H          18.9949   41.9223    9.1779 H       1  UNL1        0.1537
     28 C          17.5919   42.7445    7.8999 C.ar    1  UNL1        0.1516
     29 C          17.6419   43.6996    5.7290 C.ar    1  UNL1        0.1210
     30 C          16.6310   44.5887    6.0960 C.ar    1  UNL1        0.1196
     31 C          16.5803   43.6362    8.2635 C.ar    1  UNL1        0.1332
     32 N          18.0994   42.7984    6.6376 N.ar    1  UNL1       -0.2258
     33 N          16.1223   44.5378    7.3552 N.ar    1  UNL1       -0.2378
@<TRIPOS>BOND
     1    19    20    1
     2    20    25   ar
     3    21    22   ar
     4    22    26    1
     5    23    24   ar
     6     1    24    1
     7     1     2    1
     8     2     3    1
     9     3     4    1
    10     4     7    1
    11     5     7    1
    12     5     1    1
    13     6     9    1
    14    10    11   ar
    15    12    17   ar
    16    13     9   ar
    17    14    17    1
    18    15    12    1
    19    16    10    1
    20    29    32   ar
    21    30    33   ar
    22    31    28   ar
    23     7     6   am
    24    17    13   ar
    25    26    28    1
    26    20    21   ar
    27    22    23   ar
    28    24    25   ar
    29     6     8    2
    30     9    10   ar
    31    11    12   ar
    32    13    18    2
    33    28    32   ar
    34    29    30   ar
    35    31    33   ar
    36    26    27    1
@<TRIPOS>MOLECULE
MolPort-020-292-523 MCULE-5655694091 PubChem-110264991
 33 36 0 0 0
SMALL
GASTEIGER

@<TRIPOS>ATOM
      1 C          10.7542   41.4032    9.3069 C.3     1  UNL1        0.0602
      2 C          10.9417   42.6485   10.1755 C.3     1  UNL1        0.0094
      3 C           9.8092   43.6430    9.9296 C.3     1  UNL1        0.0220
      4 C           8.4635   42.9866   10.2230 C.3     1  UNL1        0.0937
      5 C           9.3995   40.7543    9.5883 C.3     1  UNL1        0.0996
      6 C           7.2992   41.5760    8.4777 C.2     1  UNL1        0.2534
      7 N           8.3428   41.7522    9.4498 N.am    1  UNL1       -0.2756
      8 O           7.4020   40.6687    7.6077 O.2     1  UNL1       -0.2697
      9 C           6.1063   42.4561    8.4574 C.ar    1  UNL1        0.1057
     10 C           4.9429   42.1220    9.1761 C.ar    1  UNL1       -0.0117
     11 C           3.8392   42.9674    9.1340 C.ar    1  UNL1        0.0089
     12 C           3.8856   44.1381    8.3809 C.ar    1  UNL1        0.0400
     13 C           6.1123   43.6407    7.6923 C.ar    1  UNL1        0.2647
     14 C           5.0468   45.6823    6.8752 C.3     1  UNL1        0.1332
     15 C           2.6758   45.0152    8.3705 C.3     1  UNL1        0.0501
     16 C           4.8275   40.8526    9.9525 C.3     1  UNL1        0.0314
     17 N           5.0115   44.4563    7.6693 N.ar    1  UNL1       -0.2971
     18 O           7.1444   43.9546    7.0345 O.2     1  UNL1       -0.2668
     19 C          12.2464   36.8338   10.4591 C.3     1  UNL1        0.0521
     20 C          12.5824   38.2331   10.0893 C.ar    1  UNL1        0.0602
     21 C          13.9178   38.6186    9.9597 C.ar    1  UNL1        0.0294
     22 C          14.2266   39.9396    9.6105 C.ar    1  UNL1        0.0518
     23 C          13.1865   40.8477    9.3984 C.ar    1  UNL1        0.0294
     24 C          11.8607   40.4282    9.5370 C.ar    1  UNL1        0.0611
     25 N          11.5894   39.1370    9.8771 N.ar    1  UNL1       -0.2538
     26 N          15.5793   40.3940    9.4624 N.pl3   1  UNL1       -0.2966
     27 H          16.2603   39.9176    9.9902 H       1  UNL1        0.1537
     28 C          16.0513   41.4638    8.6326 C.ar    1  UNL1        0.1516
     29 C          15.6970   43.0807    6.9333 C.ar    1  UNL1        0.1210
     30 C          17.0171   43.5126    7.0679 C.ar    1  UNL1        0.1196
     31 C          17.3720   41.8987    8.7642 C.ar    1  UNL1        0.1332
     32 N          15.2438   42.0674    7.7173 N.ar    1  UNL1       -0.2258
     33 N          17.8258   42.9122    7.9802 N.ar    1  UNL1       -0.2378
@<TRIPOS>BOND
     1    19    20    1
     2    20    25   ar
     3    21    22   ar
     4    22    26    1
     5    23    24   ar
     6     1    24    1
     7     1     2    1
     8     2     3    1
     9     3     4    1
    10     4     7    1
    11     5     7    1
    12     5     1    1
    13     6     9    1
    14    10    11   ar
    15    12    17   ar
    16    13     9   ar
    17    14    17    1
    18    15    12    1
    19    16    10    1
    20    29    32   ar
    21    30    33   ar
    22    31    28   ar
    23     7     6   am
    24    17    13   ar
    25    26    28    1
    26    20    21   ar
    27    22    23   ar
    28    24    25   ar
    29     6     8    2
    30     9    10   ar
    31    11    12   ar
    32    13    18    2
    33    28    32   ar
    34    29    30   ar
    35    31    33   ar
    36    26    27    1
@<TRIPOS>MOLECULE
MolPort-020-292-523 MCULE-5655694091 PubChem-110264991
 33 36 0 0 0
SMALL
GASTEIGER

@<TRIPOS>ATOM
      1 C          13.4833   37.8397    9.6215 C.3     1  UNL1        0.0602
      2 C          12.4291   36.7311    9.6207 C.3     1  UNL1        0.0094
      3 C          11.0408   37.3181    9.8659 C.3     1  UNL1        0.0220
      4 C          10.7179   38.3610    8.8001 C.3     1  UNL1        0.0937
      5 C          13.1518   38.8933    8.5654 C.3     1  UNL1        0.0996
      6 C          11.5197   40.7472    9.0339 C.2     1  UNL1        0.2534
      7 N          11.7824   39.3617    8.7571 N.am    1  UNL1       -0.2756
      8 O          12.4759   41.5212    9.3120 O.2     1  UNL1       -0.2697
      9 C          10.1397   41.2886    9.0232 C.ar    1  UNL1        0.1057
     10 C           9.4070   41.4378   10.2159 C.ar    1  UNL1       -0.0117
     11 C           8.1129   41.9458   10.1718 C.ar    1  UNL1        0.0089
     12 C           7.5447   42.3024    8.9512 C.ar    1  UNL1        0.0400
     13 C           9.5271   41.6441    7.8038 C.ar    1  UNL1        0.2647
     14 C           7.6427   42.5121    6.5127 C.3     1  UNL1        0.1332
     15 C           6.1532   42.8469    8.9564 C.3     1  UNL1        0.0501
     16 C           9.9536   41.0191   11.5400 C.3     1  UNL1        0.0314
     17 N           8.2512   42.1434    7.7889 N.ar    1  UNL1       -0.2971
     18 O          10.1655   41.5110    6.7216 O.2     1  UNL1       -0.2668
     19 C          18.1865   37.3064   11.0461 C.3     1  UNL1        0.0521
     20 C          17.1056   37.0135   10.0697 C.ar    1  UNL1        0.0602
     21 C          17.3705   36.2169    8.9544 C.ar    1  UNL1        0.0294
     22 C          16.3461   35.9450    8.0384 C.ar    1  UNL1        0.0518
     23 C          15.0749   36.4796    8.2615 C.ar    1  UNL1        0.0294
     24 C          14.8445   37.2733    9.3882 C.ar    1  UNL1        0.0611
     25 N          15.8594   37.5211   10.2630 N.ar    1  UNL1       -0.2538
     26 N          16.5580   35.1333    6.8746 N.pl3   1  UNL1       -0.2966
     27 H          16.5602   34.1591    7.0161 H       1  UNL1        0.1537
     28 C          16.7670   35.5811    5.5285 C.ar    1  UNL1        0.1516
     29 C          18.1282   36.5857    3.8656 C.ar    1  UNL1        0.1210
     30 C          17.1072   36.4205    2.9289 C.ar    1  UNL1        0.1196
     31 C          15.7474   35.4176    4.5882 C.ar    1  UNL1        0.1332
     32 N          17.9360   36.1631    5.1428 N.ar    1  UNL1       -0.2258
     33 N          15.9390   35.8402    3.3105 N.ar    1  UNL1       -0.2378
@<TRIPOS>BOND
     1    19    20    1
     2    20    25   ar
     3    21    22   ar
     4    22    26    1
     5    23    24   ar
     6     1    24    1
     7     1     2    1
     8     2     3    1
     9     3     4    1
    10     4     7    1
    11     5     7    1
    12     5     1    1
    13     6     9    1
    14    10    11   ar
    15    12    17   ar
    16    13     9   ar
    17    14    17    1
    18    15    12    1
    19    16    10    1
    20    29    32   ar
    21    30    33   ar
    22    31    28   ar
    23     7     6   am
    24    17    13   ar
    25    26    28    1
    26    20    21   ar
    27    22    23   ar
    28    24    25   ar
    29     6     8    2
    30     9    10   ar
    31    11    12   ar
    32    13    18    2
    33    28    32   ar
    34    29    30   ar
    35    31    33   ar
    36    26    27    1
@<TRIPOS>MOLECULE
MolPort-020-292-523 MCULE-5655694091 PubChem-110264991
 33 36 0 0 0
SMALL
GASTEIGER

@<TRIPOS>ATOM
      1 C          11.2723   41.3597    8.4268 C.3     1  UNL1        0.0602
      2 C          10.8270   40.0805    7.7157 C.3     1  UNL1        0.0094
      3 C           9.4025   39.7132    8.1258 C.3     1  UNL1        0.0220
      4 C           8.4519   40.8616    7.8012 C.3     1  UNL1        0.0937
      5 C          10.3114   42.5065    8.1155 C.3     1  UNL1        0.0996
      6 C           8.1685   42.8024    9.3963 C.2     1  UNL1        0.2534
      7 N           8.9442   42.0924    8.4168 N.am    1  UNL1       -0.2756
      8 O           8.7287   43.6524   10.1408 O.2     1  UNL1       -0.2697
      9 C           6.7195   42.5419    9.5705 C.ar    1  UNL1        0.1057
     10 C           5.7625   43.1782    8.7576 C.ar    1  UNL1       -0.0117
     11 C           4.4102   42.9148    8.9485 C.ar    1  UNL1        0.0089
     12 C           4.0060   42.0267    9.9424 C.ar    1  UNL1        0.0400
     13 C           6.2737   41.6614   10.5779 C.ar    1  UNL1        0.2647
     14 C           4.5005   40.4956   11.7893 C.3     1  UNL1        0.1332
     15 C           2.5424   41.7738   10.1058 C.3     1  UNL1        0.0501
     16 C           6.1445   44.1775    7.7170 C.3     1  UNL1        0.0314
     17 N           4.9354   41.4187   10.7436 N.ar    1  UNL1       -0.2971
     18 O           7.1166   41.0858   11.3227 O.2     1  UNL1       -0.2668
     19 C          14.3682   44.0088    5.6285 C.3     1  UNL1        0.0521
     20 C          14.1580   42.9945    6.6937 C.ar    1  UNL1        0.0602
     21 C          15.2565   42.3975    7.3146 C.ar    1  UNL1        0.0294
     22 C          15.0502   41.4422    8.3182 C.ar    1  UNL1        0.0518
     23 C          13.7431   41.1056    8.6782 C.ar    1  UNL1        0.0294
     24 C          12.6663   41.7226    8.0358 C.ar    1  UNL1        0.0611
     25 N          12.8963   42.6488    7.0633 N.ar    1  UNL1       -0.2538
     26 N          16.1391   40.7951    8.9919 N.pl3   1  UNL1       -0.2966
     27 H          17.0364   41.1650    8.8269 H       1  UNL1        0.1537
     28 C          16.0679   39.6703    9.8783 C.ar    1  UNL1        0.1516
     29 C          16.9621   37.6482   10.7379 C.ar    1  UNL1        0.1210
     30 C          15.8736   37.5337   11.6034 C.ar    1  UNL1        0.1196
     31 C          14.9798   39.5522   10.7459 C.ar    1  UNL1        0.1332
     32 N          17.0353   38.7123    9.8957 N.ar    1  UNL1       -0.2258
     33 N          14.9061   38.4881   11.5885 N.ar    1  UNL1       -0.2378
@<TRIPOS>BOND
     1    19    20    1
     2    20    25   ar
     3    21    22   ar
     4    22    26    1
     5    23    24   ar
     6     1    24    1
     7     1     2    1
     8     2     3    1
     9     3     4    1
    10     4     7    1
    11     5     7    1
    12     5     1    1
    13     6     9    1
    14    10    11   ar
    15    12    17   ar
    16    13     9   ar
    17    14    17    1
    18    15    12    1
    19    16    10    1
    20    29    32   ar
    21    30    33   ar
    22    31    28   ar
    23     7     6   am
    24    17    13   ar
    25    26    28    1
    26    20    21   ar
    27    22    23   ar
    28    24    25   ar
    29     6     8    2
    30     9    10   ar
    31    11    12   ar
    32    13    18    2
    33    28    32   ar
    34    29    30   ar
    35    31    33   ar
    36    26    27    1
