@<TRIPOS>MOLECULE
MolPort-007-723-094 ChemDiv-E157-3433 MCULE-8187297256 PubChem-22517706 ZINC000020486367 ZINC20486367
 22 24 0 0 0
SMALL
GASTEIGER

@<TRIPOS>ATOM
      1 C          15.8685   44.0958    6.2758 C.ar    1  UNL1        0.1643
      2 C          13.8436   43.5504    6.1695 C.ar    1  UNL1        0.2195
      3 C          13.7633   41.5179    7.3886 C.ar    1  UNL1        0.1882
      4 N          15.2207   45.0442    5.5462 N.ar    1  UNL1       -0.1310
      5 N          13.9282   44.6994    5.4775 N.ar    1  UNL1       -0.1202
      6 N          15.0221   42.0400    7.3470 N.ar    1  UNL1       -0.1399
      7 N          14.9916   43.1674    6.6558 N.ar    1  UNL1       -0.1881
      8 S          12.6040   42.4886    6.5416 S.2     1  UNL1       -0.0111
      9 C          12.7720   40.1417    9.3110 C.2     1  UNL1        0.2506
     10 N          13.4820   40.2907    8.0724 N.am    1  UNL1       -0.2592
     11 O          12.3261   41.1567    9.9091 O.2     1  UNL1       -0.2698
     12 H          13.8093   39.4643    7.6490 H       1  UNL1        0.1571
     13 C          12.5719   38.7816    9.8749 C.ar    1  UNL1        0.0498
     14 C          13.4625   38.1765   10.8004 C.ar    1  UNL1       -0.0175
     15 C          14.6948   38.8515   11.3009 C.3     1  UNL1        0.0312
     16 C          13.1983   36.8897   11.2822 C.ar    1  UNL1       -0.0041
     17 C          12.0656   36.1916   10.8624 C.ar    1  UNL1       -0.0003
     18 C          11.1853   36.7769    9.9541 C.ar    1  UNL1        0.0001
     19 C          11.4382   38.0600    9.4663 C.ar    1  UNL1        0.0042
     20 C          17.3271   44.0841    6.5803 C.3     1  UNL1        0.0677
     21 C          17.9487   42.6400    8.4895 C.3     1  UNL1        0.0005
     22 C          17.5446   44.0401    8.0795 C.3     1  UNL1        0.0080
@<TRIPOS>BOND
     1    21    22    1
     2    22    20    1
     3    20     1    1
     4     2     8   ar
     5     3     8   ar
     6     3    10    1
     7     9    13    1
     8    14    16   ar
     9    15    14    1
    10    17    18   ar
    11    19    13   ar
    12     4     5   ar
    13    10     9   am
    14     7     6   ar
    15     7     1   ar
    16     7     2   ar
    17     1     4   ar
    18     2     5   ar
    19     3     6   ar
    20     9    11    2
    21    13    14   ar
    22    16    17   ar
    23    18    19   ar
    24    10    12    1
@<TRIPOS>MOLECULE
MolPort-007-723-094 ChemDiv-E157-3433 MCULE-8187297256 PubChem-22517706 ZINC000020486367 ZINC20486367
 22 24 0 0 0
SMALL
GASTEIGER

@<TRIPOS>ATOM
      1 C          16.3124   42.0808    8.1848 C.ar    1  UNL1        0.1643
      2 C          15.1966   43.2277    6.8252 C.ar    1  UNL1        0.2195
      3 C          13.1116   42.1006    6.7462 C.ar    1  UNL1        0.1882
      4 N          17.1034   43.1011    7.7547 N.ar    1  UNL1       -0.1310
      5 N          16.3937   43.8352    6.8878 N.ar    1  UNL1       -0.1202
      6 N          13.9886   41.4949    7.5964 N.ar    1  UNL1       -0.1399
      7 N          15.1234   42.1744    7.5910 N.ar    1  UNL1       -0.1881
      8 S          13.7786   43.5046    5.9797 S.2     1  UNL1       -0.0111
      9 C          10.7561   41.4603    7.5297 C.2     1  UNL1        0.2506
     10 N          11.7893   41.5883    6.5415 N.am    1  UNL1       -0.2592
     11 O          10.9719   41.8163    8.7186 O.2     1  UNL1       -0.2698
     12 H          11.5663   41.2938    5.6290 H       1  UNL1        0.1571
     13 C           9.4361   40.9049    7.1332 C.ar    1  UNL1        0.0498
     14 C           8.2122   41.6098    7.2781 C.ar    1  UNL1       -0.0175
     15 C           8.1308   42.9864    7.8464 C.3     1  UNL1        0.0312
     16 C           7.0121   41.0114    6.8785 C.ar    1  UNL1       -0.0041
     17 C           7.0040   39.7256    6.3372 C.ar    1  UNL1       -0.0003
     18 C           8.2002   39.0255    6.1909 C.ar    1  UNL1        0.0001
     19 C           9.4038   39.6117    6.5859 C.ar    1  UNL1        0.0042
     20 C          16.7180   41.0168    9.1459 C.3     1  UNL1        0.0677
     21 C          15.9040   39.2302   10.6499 C.3     1  UNL1        0.0005
     22 C          15.5101   40.1976    9.5542 C.3     1  UNL1        0.0080
@<TRIPOS>BOND
     1    21    22    1
     2    22    20    1
     3    20     1    1
     4     2     8   ar
     5     3     8   ar
     6     3    10    1
     7     9    13    1
     8    14    16   ar
     9    15    14    1
    10    17    18   ar
    11    19    13   ar
    12     4     5   ar
    13    10     9   am
    14     7     6   ar
    15     7     1   ar
    16     7     2   ar
    17     1     4   ar
    18     2     5   ar
    19     3     6   ar
    20     9    11    2
    21    13    14   ar
    22    16    17   ar
    23    18    19   ar
    24    10    12    1
@<TRIPOS>MOLECULE
MolPort-007-723-094 ChemDiv-E157-3433 MCULE-8187297256 PubChem-22517706 ZINC000020486367 ZINC20486367
 22 24 0 0 0
SMALL
GASTEIGER

@<TRIPOS>ATOM
      1 C           5.5146   42.2582    8.9150 C.ar    1  UNL1        0.1643
      2 C           7.1646   43.5426    9.1075 C.ar    1  UNL1        0.2195
      3 C           8.9577   42.0592    9.5637 C.ar    1  UNL1        0.1882
      4 N           5.0723   43.5324    8.7352 N.ar    1  UNL1       -0.1310
      5 N           6.1232   44.3541    8.8565 N.ar    1  UNL1       -0.1202
      6 N           7.7763   41.3985    9.4005 N.ar    1  UNL1       -0.1399
      7 N           6.8260   42.2836    9.1491 N.ar    1  UNL1       -0.1881
      8 S           8.7976   43.7763    9.3919 S.2     1  UNL1       -0.0111
      9 C          11.4917   41.7090    9.3945 C.2     1  UNL1        0.2506
     10 N          10.1755   41.3601    9.8487 N.am    1  UNL1       -0.2592
     11 O          11.6601   42.7227    8.6658 O.2     1  UNL1       -0.2698
     12 H          10.1019   40.5578   10.4143 H       1  UNL1        0.1571
     13 C          12.6461   40.8626    9.7932 C.ar    1  UNL1        0.0498
     14 C          13.8433   40.7608    9.0368 C.ar    1  UNL1       -0.0175
     15 C          14.0611   41.4986    7.7589 C.3     1  UNL1        0.0312
     16 C          14.8831   39.9390    9.4854 C.ar    1  UNL1       -0.0041
     17 C          14.7569   39.2158   10.6718 C.ar    1  UNL1       -0.0003
     18 C          13.5857   39.3090   11.4215 C.ar    1  UNL1        0.0001
     19 C          12.5413   40.1255   10.9843 C.ar    1  UNL1        0.0042
     20 C           4.6658   41.0340    8.8798 C.3     1  UNL1        0.0677
     21 C           4.0750   40.4016   11.1967 C.3     1  UNL1        0.0005
     22 C           3.5952   41.1131    9.9497 C.3     1  UNL1        0.0080
@<TRIPOS>BOND
     1    21    22    1
     2    22    20    1
     3    20     1    1
     4     2     8   ar
     5     3     8   ar
     6     3    10    1
     7     9    13    1
     8    14    16   ar
     9    15    14    1
    10    17    18   ar
    11    19    13   ar
    12     4     5   ar
    13    10     9   am
    14     7     6   ar
    15     7     1   ar
    16     7     2   ar
    17     1     4   ar
    18     2     5   ar
    19     3     6   ar
    20     9    11    2
    21    13    14   ar
    22    16    17   ar
    23    18    19   ar
    24    10    12    1
@<TRIPOS>MOLECULE
MolPort-007-723-094 ChemDiv-E157-3433 MCULE-8187297256 PubChem-22517706 ZINC000020486367 ZINC20486367
 22 24 0 0 0
SMALL
GASTEIGER

@<TRIPOS>ATOM
      1 C           8.0965   41.8355    6.5743 C.ar    1  UNL1        0.1643
      2 C           9.5111   40.6548    5.5672 C.ar    1  UNL1        0.2195
      3 C          11.5676   41.3199    6.5430 C.ar    1  UNL1        0.1882
      4 N           7.4285   41.0645    5.6738 N.ar    1  UNL1       -0.1310
      5 N           8.3285   40.3093    5.0304 N.ar    1  UNL1       -0.1202
      6 N          10.5071   41.9878    7.0798 N.ar    1  UNL1       -0.1399
      7 N           9.3991   41.5676    6.4922 N.ar    1  UNL1       -0.1881
      8 S          11.0996   40.1917    5.3134 S.2     1  UNL1       -0.0111
      9 C          13.7108   42.7187    6.6920 C.2     1  UNL1        0.2506
     10 N          12.9091   41.5641    6.9828 N.am    1  UNL1       -0.2592
     11 O          13.2448   43.6480    5.9806 O.2     1  UNL1       -0.2698
     12 H          13.3239   40.8683    7.5423 H       1  UNL1        0.1571
     13 C          15.0903   42.8020    7.2382 C.ar    1  UNL1        0.0498
     14 C          15.9955   43.8508    6.9280 C.ar    1  UNL1       -0.0175
     15 C          15.6483   44.9799    6.0174 C.3     1  UNL1        0.0312
     16 C          17.2782   43.8521    7.4870 C.ar    1  UNL1       -0.0041
     17 C          17.6796   42.8310    8.3489 C.ar    1  UNL1       -0.0003
     18 C          16.7984   41.7969    8.6595 C.ar    1  UNL1        0.0001
     19 C          15.5161   41.7846    8.1081 C.ar    1  UNL1        0.0042
     20 C           7.4749   42.8354    7.4876 C.3     1  UNL1        0.0677
     21 C           5.6148   44.4505    7.7078 C.3     1  UNL1        0.0005
     22 C           6.4754   43.6834    6.7267 C.3     1  UNL1        0.0080
@<TRIPOS>BOND
     1    21    22    1
     2    22    20    1
     3    20     1    1
     4     2     8   ar
     5     3     8   ar
     6     3    10    1
     7     9    13    1
     8    14    16   ar
     9    15    14    1
    10    17    18   ar
    11    19    13   ar
    12     4     5   ar
    13    10     9   am
    14     7     6   ar
    15     7     1   ar
    16     7     2   ar
    17     1     4   ar
    18     2     5   ar
    19     3     6   ar
    20     9    11    2
    21    13    14   ar
    22    16    17   ar
    23    18    19   ar
    24    10    12    1
@<TRIPOS>MOLECULE
MolPort-007-723-094 ChemDiv-E157-3433 MCULE-8187297256 PubChem-22517706 ZINC000020486367 ZINC20486367
 22 24 0 0 0
SMALL
GASTEIGER

@<TRIPOS>ATOM
      1 C          15.6959   41.1207    8.8854 C.ar    1  UNL1        0.1643
      2 C          14.8647   39.7886   10.2796 C.ar    1  UNL1        0.2195
      3 C          12.5448   40.2685   10.1736 C.ar    1  UNL1        0.1882
      4 N          16.7141   40.4015    9.4308 N.ar    1  UNL1       -0.1310
      5 N          16.1867   39.5500   10.3201 N.ar    1  UNL1       -0.1202
      6 N          13.2676   41.0468    9.3189 N.ar    1  UNL1       -0.1399
      7 N          14.5459   40.7255    9.4300 N.ar    1  UNL1       -0.1881
      8 S          13.5313   39.1680   11.0789 S.2     1  UNL1       -0.0111
      9 C          10.3523   41.5971   10.1751 C.2     1  UNL1        0.2506
     10 N          11.1208   40.3890   10.2765 N.am    1  UNL1       -0.2592
     11 O          10.9306   42.6985    9.9771 O.2     1  UNL1       -0.2698
     12 H          10.6175   39.5574   10.4328 H       1  UNL1        0.1571
     13 C           8.8736   41.5310   10.3068 C.ar    1  UNL1        0.0498
     14 C           7.9889   41.4667    9.1983 C.ar    1  UNL1       -0.0175
     15 C           8.4600   41.4589    7.7831 C.3     1  UNL1        0.0312
     16 C           6.6073   41.4069    9.4121 C.ar    1  UNL1       -0.0041
     17 C           6.0871   41.4097   10.7066 C.ar    1  UNL1       -0.0003
     18 C           6.9474   41.4727   11.8014 C.ar    1  UNL1        0.0001
     19 C           8.3274   41.5327   11.6009 C.ar    1  UNL1        0.0042
     20 C          15.8448   42.1938    7.8623 C.3     1  UNL1        0.0677
     21 C          17.4785   43.8840    8.6311 C.3     1  UNL1        0.0005
     22 C          17.2906   42.6421    7.7862 C.3     1  UNL1        0.0080
@<TRIPOS>BOND
     1    21    22    1
     2    22    20    1
     3    20     1    1
     4     2     8   ar
     5     3     8   ar
     6     3    10    1
     7     9    13    1
     8    14    16   ar
     9    15    14    1
    10    17    18   ar
    11    19    13   ar
    12     4     5   ar
    13    10     9   am
    14     7     6   ar
    15     7     1   ar
    16     7     2   ar
    17     1     4   ar
    18     2     5   ar
    19     3     6   ar
    20     9    11    2
    21    13    14   ar
    22    16    17   ar
    23    18    19   ar
    24    10    12    1
@<TRIPOS>MOLECULE
MolPort-007-723-094 ChemDiv-E157-3433 MCULE-8187297256 PubChem-22517706 ZINC000020486367 ZINC20486367
 22 24 0 0 0
SMALL
GASTEIGER

@<TRIPOS>ATOM
      1 C           9.1007   40.2783    5.2528 C.ar    1  UNL1        0.1643
      2 C           9.3673   41.3772    7.0221 C.ar    1  UNL1        0.2195
      3 C          11.7240   41.5900    7.1797 C.ar    1  UNL1        0.1882
      4 N           7.8697   40.5270    5.7768 N.ar    1  UNL1       -0.1310
      5 N           8.0368   41.2289    6.9053 N.ar    1  UNL1       -0.1202
      6 N          11.3464   40.8939    6.0699 N.ar    1  UNL1       -0.1399
      7 N          10.0262   40.8157    6.0464 N.ar    1  UNL1       -0.1881
      8 S          10.3770   42.1074    8.1399 S.2     1  UNL1       -0.0111
      9 C          13.9377   42.8512    6.8949 C.2     1  UNL1        0.2506
     10 N          13.1034   41.8383    7.4768 N.am    1  UNL1       -0.2592
     11 O          13.4683   43.6336    6.0264 O.2     1  UNL1       -0.2698
     12 H          13.5223   41.2541    8.1494 H       1  UNL1        0.1571
     13 C          15.3546   42.9630    7.3284 C.ar    1  UNL1        0.0498
     14 C          16.2124   44.0261    6.9415 C.ar    1  UNL1       -0.0175
     15 C          15.7724   45.1428    6.0560 C.3     1  UNL1        0.0312
     16 C          17.5355   44.0544    7.3960 C.ar    1  UNL1       -0.0041
     17 C          18.0235   43.0464    8.2280 C.ar    1  UNL1       -0.0003
     18 C          17.1894   41.9984    8.6133 C.ar    1  UNL1        0.0001
     19 C          15.8676   41.9592    8.1664 C.ar    1  UNL1        0.0042
     20 C           9.3714   39.5085    4.0060 C.3     1  UNL1        0.0677
     21 C          10.0585   37.3151    3.0928 C.3     1  UNL1        0.0005
     22 C           9.6054   38.0482    4.3373 C.3     1  UNL1        0.0080
@<TRIPOS>BOND
     1    21    22    1
     2    22    20    1
     3    20     1    1
     4     2     8   ar
     5     3     8   ar
     6     3    10    1
     7     9    13    1
     8    14    16   ar
     9    15    14    1
    10    17    18   ar
    11    19    13   ar
    12     4     5   ar
    13    10     9   am
    14     7     6   ar
    15     7     1   ar
    16     7     2   ar
    17     1     4   ar
    18     2     5   ar
    19     3     6   ar
    20     9    11    2
    21    13    14   ar
    22    16    17   ar
    23    18    19   ar
    24    10    12    1
@<TRIPOS>MOLECULE
MolPort-007-723-094 ChemDiv-E157-3433 MCULE-8187297256 PubChem-22517706 ZINC000020486367 ZINC20486367
 22 24 0 0 0
SMALL
GASTEIGER

@<TRIPOS>ATOM
      1 C           4.1549   43.2669    9.3633 C.ar    1  UNL1        0.1643
      2 C           5.7817   44.1110    8.3387 C.ar    1  UNL1        0.2195
      3 C           7.5903   42.6959    8.9306 C.ar    1  UNL1        0.1882
      4 N           3.6999   44.3569    8.6878 N.ar    1  UNL1       -0.1310
      5 N           4.7357   44.8970    8.0323 N.ar    1  UNL1       -0.1202
      6 N           6.4206   42.2998    9.5083 N.ar    1  UNL1       -0.1399
      7 N           5.4604   43.1294    9.1352 N.ar    1  UNL1       -0.1881
      8 S           7.4083   44.1084    7.9430 S.2     1  UNL1       -0.0111
      9 C          10.0011   42.4945    9.7789 C.2     1  UNL1        0.2506
     10 N           8.8148   41.9855    9.1512 N.am    1  UNL1       -0.2592
     11 O          10.0331   43.6813   10.1997 O.2     1  UNL1       -0.2698
     12 H           8.8457   41.0519    8.8403 H       1  UNL1        0.1571
     13 C          11.1842   41.6072    9.9242 C.ar    1  UNL1        0.0498
     14 C          12.2369   41.5404    8.9739 C.ar    1  UNL1       -0.0175
     15 C          12.2588   42.3600    7.7280 C.3     1  UNL1        0.0312
     16 C          13.3159   40.6758    9.1891 C.ar    1  UNL1       -0.0041
     17 C          13.3697   39.8757   10.3308 C.ar    1  UNL1       -0.0003
     18 C          12.3412   39.9340   11.2695 C.ar    1  UNL1        0.0001
     19 C          11.2595   40.7925   11.0660 C.ar    1  UNL1        0.0042
     20 C           3.3316   42.3837   10.2365 C.3     1  UNL1        0.0677
     21 C           3.8956   40.1635   11.1692 C.3     1  UNL1        0.0005
     22 C           3.5932   40.9295    9.8990 C.3     1  UNL1        0.0080
@<TRIPOS>BOND
     1    21    22    1
     2    22    20    1
     3    20     1    1
     4     2     8   ar
     5     3     8   ar
     6     3    10    1
     7     9    13    1
     8    14    16   ar
     9    15    14    1
    10    17    18   ar
    11    19    13   ar
    12     4     5   ar
    13    10     9   am
    14     7     6   ar
    15     7     1   ar
    16     7     2   ar
    17     1     4   ar
    18     2     5   ar
    19     3     6   ar
    20     9    11    2
    21    13    14   ar
    22    16    17   ar
    23    18    19   ar
    24    10    12    1
@<TRIPOS>MOLECULE
MolPort-007-723-094 ChemDiv-E157-3433 MCULE-8187297256 PubChem-22517706 ZINC000020486367 ZINC20486367
 22 24 0 0 0
SMALL
GASTEIGER

@<TRIPOS>ATOM
      1 C          14.4022   36.1081    9.6994 C.ar    1  UNL1        0.1643
      2 C          13.8278   37.8451   10.7298 C.ar    1  UNL1        0.2195
      3 C          14.6478   39.5914    9.3506 C.ar    1  UNL1        0.1882
      4 N          13.7538   35.7237   10.8323 N.ar    1  UNL1       -0.1310
      5 N          13.3853   36.8301   11.4913 N.ar    1  UNL1       -0.1202
      6 N          14.9264   38.3598    8.8364 N.ar    1  UNL1       -0.1399
      7 N          14.4412   37.4390    9.6527 N.ar    1  UNL1       -0.1881
      8 S          13.7840   39.5141   10.8512 S.2     1  UNL1       -0.0111
      9 C          14.3098   41.5104    7.6847 C.2     1  UNL1        0.2506
     10 N          15.0515   40.7927    8.6823 N.am    1  UNL1       -0.2592
     11 O          13.1811   41.0915    7.3141 O.2     1  UNL1       -0.2698
     12 H          15.9279   41.1643    8.9332 H       1  UNL1        0.1571
     13 C          14.8887   42.7469    7.0983 C.ar    1  UNL1        0.0498
     14 C          16.2011   43.2096    7.3801 C.ar    1  UNL1       -0.0175
     15 C          17.1339   42.4949    8.2986 C.3     1  UNL1        0.0312
     16 C          16.6680   44.3862    6.7838 C.ar    1  UNL1       -0.0041
     17 C          15.8561   45.1127    5.9123 C.ar    1  UNL1       -0.0003
     18 C          14.5663   44.6669    5.6294 C.ar    1  UNL1        0.0001
     19 C          14.0892   43.4946    6.2180 C.ar    1  UNL1        0.0042
     20 C          14.9943   35.1893    8.6867 C.3     1  UNL1        0.0677
     21 C          17.0940   33.9021    8.4603 C.3     1  UNL1        0.0005
     22 C          16.5070   35.2705    8.7328 C.3     1  UNL1        0.0080
@<TRIPOS>BOND
     1    21    22    1
     2    22    20    1
     3    20     1    1
     4     2     8   ar
     5     3     8   ar
     6     3    10    1
     7     9    13    1
     8    14    16   ar
     9    15    14    1
    10    17    18   ar
    11    19    13   ar
    12     4     5   ar
    13    10     9   am
    14     7     6   ar
    15     7     1   ar
    16     7     2   ar
    17     1     4   ar
    18     2     5   ar
    19     3     6   ar
    20     9    11    2
    21    13    14   ar
    22    16    17   ar
    23    18    19   ar
    24    10    12    1
@<TRIPOS>MOLECULE
MolPort-007-723-094 ChemDiv-E157-3433 MCULE-8187297256 PubChem-22517706 ZINC000020486367 ZINC20486367
 22 24 0 0 0
SMALL
GASTEIGER

@<TRIPOS>ATOM
      1 C           7.1983   40.9283    6.6688 C.ar    1  UNL1        0.1643
      2 C           8.6781   40.0203    5.4878 C.ar    1  UNL1        0.2195
      3 C          10.5634   41.4235    5.8050 C.ar    1  UNL1        0.1882
      4 N           6.6448   39.8349    6.0774 N.ar    1  UNL1       -0.1310
      5 N           7.5871   39.2530    5.3239 N.ar    1  UNL1       -0.1202
      6 N           9.4791   41.8567    6.5090 N.ar    1  UNL1       -0.1399
      7 N           8.4706   41.0302    6.2868 N.ar    1  UNL1       -0.1881
      8 S          10.2421   39.9859    4.8919 S.2     1  UNL1       -0.0111
      9 C          12.8237   42.0119    6.8619 C.2     1  UNL1        0.2506
     10 N          11.8139   42.1216    5.8477 N.am    1  UNL1       -0.2592
     11 O          12.6522   41.2402    7.8427 O.2     1  UNL1       -0.2698
     12 H          11.9997   42.7402    5.1047 H       1  UNL1        0.1571
     13 C          14.0667   42.8169    6.7398 C.ar    1  UNL1        0.0498
     14 C          15.2601   42.5317    7.4541 C.ar    1  UNL1       -0.0175
     15 C          15.3841   41.3881    8.4036 C.3     1  UNL1        0.0312
     16 C          16.3870   43.3426    7.2799 C.ar    1  UNL1       -0.0041
     17 C          16.3517   44.4321    6.4091 C.ar    1  UNL1       -0.0003
     18 C          15.1849   44.7204    5.7034 C.ar    1  UNL1        0.0001
     19 C          14.0542   43.9188    5.8688 C.ar    1  UNL1        0.0042
     20 C           6.4897   41.8728    7.5776 C.3     1  UNL1        0.0677
     21 C           5.5043   44.1380    7.4554 C.3     1  UNL1        0.0005
     22 C           6.7219   43.3009    7.1263 C.3     1  UNL1        0.0080
@<TRIPOS>BOND
     1    21    22    1
     2    22    20    1
     3    20     1    1
     4     2     8   ar
     5     3     8   ar
     6     3    10    1
     7     9    13    1
     8    14    16   ar
     9    15    14    1
    10    17    18   ar
    11    19    13   ar
    12     4     5   ar
    13    10     9   am
    14     7     6   ar
    15     7     1   ar
    16     7     2   ar
    17     1     4   ar
    18     2     5   ar
    19     3     6   ar
    20     9    11    2
    21    13    14   ar
    22    16    17   ar
    23    18    19   ar
    24    10    12    1
@<TRIPOS>MOLECULE
MolPort-007-723-094 ChemDiv-E157-3433 MCULE-8187297256 PubChem-22517706 ZINC000020486367 ZINC20486367
 22 24 0 0 0
SMALL
GASTEIGER

@<TRIPOS>ATOM
      1 C          12.8990   37.0048   10.5935 C.ar    1  UNL1        0.1643
      2 C          11.5223   37.9592    9.3276 C.ar    1  UNL1        0.2195
      3 C          12.7494   39.8043    8.4826 C.ar    1  UNL1        0.1882
      4 N          11.7346   36.3024   10.6414 N.ar    1  UNL1       -0.1310
      5 N          10.8545   36.9086    9.8339 N.ar    1  UNL1       -0.1202
      6 N          13.4910   39.0459    9.3393 N.ar    1  UNL1       -0.1399
      7 N          12.7474   38.0396    9.7681 N.ar    1  UNL1       -0.1881
      8 S          11.1397   39.1984    8.2691 S.2     1  UNL1       -0.0111
      9 C          14.6383   41.4554    7.9554 C.2     1  UNL1        0.2506
     10 N          13.2907   40.9719    7.8530 N.am    1  UNL1       -0.2592
     11 O          15.4802   40.8345    8.6572 O.2     1  UNL1       -0.2698
     12 H          12.6748   41.4968    7.2924 H       1  UNL1        0.1571
     13 C          15.0243   42.6915    7.2267 C.ar    1  UNL1        0.0498
     14 C          16.3161   43.2759    7.3011 C.ar    1  UNL1       -0.0175
     15 C          17.4202   42.7022    8.1236 C.3     1  UNL1        0.0312
     16 C          16.5954   44.4427    6.5812 C.ar    1  UNL1       -0.0041
     17 C          15.6158   45.0410    5.7881 C.ar    1  UNL1       -0.0003
     18 C          14.3447   44.4751    5.7085 C.ar    1  UNL1        0.0001
     19 C          14.0539   43.3112    6.4220 C.ar    1  UNL1        0.0042
     20 C          14.1364   36.6829   11.3588 C.3     1  UNL1        0.0677
     21 C          16.2406   37.9712   11.5306 C.3     1  UNL1        0.0005
     22 C          14.7687   37.9563   11.8839 C.3     1  UNL1        0.0080
@<TRIPOS>BOND
     1    21    22    1
     2    22    20    1
     3    20     1    1
     4     2     8   ar
     5     3     8   ar
     6     3    10    1
     7     9    13    1
     8    14    16   ar
     9    15    14    1
    10    17    18   ar
    11    19    13   ar
    12     4     5   ar
    13    10     9   am
    14     7     6   ar
    15     7     1   ar
    16     7     2   ar
    17     1     4   ar
    18     2     5   ar
    19     3     6   ar
    20     9    11    2
    21    13    14   ar
    22    16    17   ar
    23    18    19   ar
    24    10    12    1
