@<TRIPOS>MOLECULE
Molport-046-956-332 MCULE-5763772112 MCULE-8712035988 PubChem-110095197
 22 24 0 0 0
SMALL
GASTEIGER

@<TRIPOS>ATOM
      1 C           9.3906   40.8262    5.9539 C.3     1  UNL1        0.0737
      2 C          10.6744   40.9981    6.6821 C.ar    1  UNL1        0.1406
      3 C          12.1056   40.3919    8.4642 C.ar    1  UNL1        0.0641
      4 C          13.0521   41.3188    8.0279 C.ar    1  UNL1        0.0492
      5 C          12.7693   42.0810    6.8947 C.ar    1  UNL1        0.1368
      6 N          10.9355   40.2486    7.7843 N.ar    1  UNL1       -0.2349
      7 N          11.5864   41.9052    6.2450 N.ar    1  UNL1       -0.2159
      8 C          12.3875   39.5654    9.6746 C.3     1  UNL1        0.0562
      9 C          13.7028   39.9889   10.3293 C.3     1  UNL1        0.0087
     10 C          14.0260   39.1019   11.5347 C.3     1  UNL1        0.0175
     11 C          13.6009   37.6437   11.3196 C.3     1  UNL1        0.0686
     12 C          12.3629   38.0644    9.3286 C.3     1  UNL1        0.0745
     13 N          13.5022   37.3352    9.8949 N.3     1  UNL1       -0.2971
     14 H          13.3629   36.3324    9.7705 H       1  UNL1        0.1233
     15 N          13.7348   43.0358    6.4384 N.pl3   1  UNL1       -0.2679
     16 H          13.4095   43.7445    5.8374 H       1  UNL1        0.1565
     17 C          15.1281   43.0595    6.7719 C.ar    1  UNL1        0.2218
     18 C          16.9427   42.3298    8.1066 C.ar    1  UNL1        0.1034
     19 C          17.8165   43.1356    7.3792 C.ar    1  UNL1        0.0414
     20 C          17.2964   43.9013    6.3374 C.ar    1  UNL1        0.1034
     21 N          15.6213   42.3055    7.7926 N.ar    1  UNL1       -0.2120
     22 N          15.9688   43.8502    6.0537 N.ar    1  UNL1       -0.2120
@<TRIPOS>BOND
     1     1     2    1
     2     2     7   ar
     3     3     6   ar
     4     4     5   ar
     5     5    15    1
     6    17    22   ar
     7    18    21   ar
     8    19    20   ar
     9     8     3    1
    10     8     9    1
    11     9    10    1
    12    10    11    1
    13    11    13    1
    14    12    13    1
    15    12     8    1
    16    15    17    1
    17     2     6   ar
    18     3     4   ar
    19     5     7   ar
    20    17    21   ar
    21    18    19   ar
    22    20    22   ar
    23    15    16    1
    24    13    14    1
@<TRIPOS>MOLECULE
Molport-046-956-332 MCULE-5763772112 MCULE-8712035988 PubChem-110095197
 22 24 0 0 0
SMALL
GASTEIGER

@<TRIPOS>ATOM
      1 C           9.0453   39.1481    6.5293 C.3     1  UNL1        0.0737
      2 C          10.3807   39.7097    6.8596 C.ar    1  UNL1        0.1406
      3 C          12.3825   39.6083    8.1143 C.ar    1  UNL1        0.0641
      4 C          12.8526   40.7518    7.4688 C.ar    1  UNL1        0.0492
      5 C          12.0441   41.3576    6.5073 C.ar    1  UNL1        0.1368
      6 N          11.1568   39.1086    7.7984 N.ar    1  UNL1       -0.2349
      7 N          10.8249   40.8243    6.2224 N.ar    1  UNL1       -0.2159
      8 C          13.2313   38.9436    9.1465 C.3     1  UNL1        0.0562
      9 C          12.4923   37.7667    9.7842 C.3     1  UNL1        0.0087
     10 C          13.3363   37.1216   10.8869 C.3     1  UNL1        0.0175
     11 C          14.1582   38.1510   11.6731 C.3     1  UNL1        0.0686
     12 C          13.7188   39.9643   10.1924 C.3     1  UNL1        0.0745
     13 N          13.5635   39.4814   11.5683 N.3     1  UNL1       -0.2971
     14 H          14.0351   40.1187   12.2101 H       1  UNL1        0.1233
     15 N          12.5177   42.5326    5.8386 N.pl3   1  UNL1       -0.2679
     16 H          11.9383   42.9089    5.1372 H       1  UNL1        0.1565
     17 C          13.7528   43.2134    6.0917 C.ar    1  UNL1        0.2218
     18 C          15.1606   45.0992    5.8299 C.ar    1  UNL1        0.1034
     19 C          16.1442   44.4866    6.6039 C.ar    1  UNL1        0.0414
     20 C          15.8878   43.2146    7.1121 C.ar    1  UNL1        0.1034
     21 N          13.9886   44.4561    5.5883 N.ar    1  UNL1       -0.2120
     22 N          14.7033   42.6037    6.8486 N.ar    1  UNL1       -0.2120
@<TRIPOS>BOND
     1     1     2    1
     2     2     7   ar
     3     3     6   ar
     4     4     5   ar
     5     5    15    1
     6    17    22   ar
     7    18    21   ar
     8    19    20   ar
     9     8     3    1
    10     8     9    1
    11     9    10    1
    12    10    11    1
    13    11    13    1
    14    12    13    1
    15    12     8    1
    16    15    17    1
    17     2     6   ar
    18     3     4   ar
    19     5     7   ar
    20    17    21   ar
    21    18    19   ar
    22    20    22   ar
    23    15    16    1
    24    13    14    1
@<TRIPOS>MOLECULE
Molport-046-956-332 MCULE-5763772112 MCULE-8712035988 PubChem-110095197
 22 24 0 0 0
SMALL
GASTEIGER

@<TRIPOS>ATOM
      1 C          11.3150   40.8994   10.4504 C.3     1  UNL1        0.0737
      2 C          11.6616   41.1342    9.0247 C.ar    1  UNL1        0.1406
      3 C          11.4802   40.5079    6.7517 C.ar    1  UNL1        0.0641
      4 C          12.3050   41.5716    6.3862 C.ar    1  UNL1        0.0492
      5 C          12.7980   42.4102    7.3855 C.ar    1  UNL1        0.1368
      6 N          11.1739   40.3088    8.0626 N.ar    1  UNL1       -0.2349
      7 N          12.4663   42.1744    8.6842 N.ar    1  UNL1       -0.2159
      8 C          10.9412   39.5981    5.6985 C.3     1  UNL1        0.0562
      9 C          10.9250   40.2914    4.3357 C.3     1  UNL1        0.0087
     10 C          10.3147   39.3826    3.2652 C.3     1  UNL1        0.0175
     11 C           9.1643   38.5266    3.8102 C.3     1  UNL1        0.0686
     12 C           9.5536   39.0615    6.0984 C.3     1  UNL1        0.0745
     13 N           8.5815   39.1366    5.0031 N.3     1  UNL1       -0.2971
     14 H           7.7324   38.6352    5.2640 H       1  UNL1        0.1233
     15 N          13.6461   43.5055    7.0206 N.pl3   1  UNL1       -0.2679
     16 H          13.2045   44.3631    6.8235 H       1  UNL1        0.1565
     17 C          15.0746   43.4739    6.9146 C.ar    1  UNL1        0.2218
     18 C          17.0786   44.1295    5.8371 C.ar    1  UNL1        0.1034
     19 C          17.8254   43.3849    6.7480 C.ar    1  UNL1        0.0414
     20 C          17.1461   42.6870    7.7448 C.ar    1  UNL1        0.1034
     21 N          15.7240   44.1613    5.9351 N.ar    1  UNL1       -0.2120
     22 N          15.7903   42.7433    7.8102 N.ar    1  UNL1       -0.2120
@<TRIPOS>BOND
     1     1     2    1
     2     2     7   ar
     3     3     6   ar
     4     4     5   ar
     5     5    15    1
     6    17    22   ar
     7    18    21   ar
     8    19    20   ar
     9     8     3    1
    10     8     9    1
    11     9    10    1
    12    10    11    1
    13    11    13    1
    14    12    13    1
    15    12     8    1
    16    15    17    1
    17     2     6   ar
    18     3     4   ar
    19     5     7   ar
    20    17    21   ar
    21    18    19   ar
    22    20    22   ar
    23    15    16    1
    24    13    14    1
@<TRIPOS>MOLECULE
Molport-046-956-332 MCULE-5763772112 MCULE-8712035988 PubChem-110095197
 22 24 0 0 0
SMALL
GASTEIGER

@<TRIPOS>ATOM
      1 C           9.1826   41.0616   14.2375 C.3     1  UNL1        0.0737
      2 C           8.8905   41.2302   12.7904 C.ar    1  UNL1        0.1406
      3 C           7.3306   41.6187   11.0561 C.ar    1  UNL1        0.0641
      4 C           8.3530   41.5419   10.1105 C.ar    1  UNL1        0.0492
      5 C           9.6548   41.3036   10.5505 C.ar    1  UNL1        0.1368
      6 N           7.6175   41.4617   12.3771 N.ar    1  UNL1       -0.2349
      7 N           9.8970   41.1526   11.8812 N.ar    1  UNL1       -0.2159
      8 C           5.9300   41.8732   10.6076 C.3     1  UNL1        0.0562
      9 C           4.9495   40.9506   11.3325 C.3     1  UNL1        0.0087
     10 C           3.5196   41.1659   10.8293 C.3     1  UNL1        0.0175
     11 C           3.4670   41.4690    9.3264 C.3     1  UNL1        0.0686
     12 C           5.8179   41.7581    9.0754 C.3     1  UNL1        0.0745
     13 N           4.6604   40.9639    8.6516 N.3     1  UNL1       -0.2971
     14 H           4.5420   41.0433    7.6416 H       1  UNL1        0.1233
     15 N          10.7121   41.2229    9.5873 N.pl3   1  UNL1       -0.2679
     16 H          10.5039   41.5217    8.6726 H       1  UNL1        0.1565
     17 C          12.0432   40.7494    9.8260 C.ar    1  UNL1        0.2218
     18 C          13.5909   39.5093   11.1196 C.ar    1  UNL1        0.1034
     19 C          14.6191   39.8608   10.2472 C.ar    1  UNL1        0.0414
     20 C          14.3116   40.6726    9.1570 C.ar    1  UNL1        0.1034
     21 N          12.3280   39.9568   10.8957 N.ar    1  UNL1       -0.2120
     22 N          13.0363   41.1003    8.9666 N.ar    1  UNL1       -0.2120
@<TRIPOS>BOND
     1     1     2    1
     2     2     7   ar
     3     3     6   ar
     4     4     5   ar
     5     5    15    1
     6    17    22   ar
     7    18    21   ar
     8    19    20   ar
     9     8     3    1
    10     8     9    1
    11     9    10    1
    12    10    11    1
    13    11    13    1
    14    12    13    1
    15    12     8    1
    16    15    17    1
    17     2     6   ar
    18     3     4   ar
    19     5     7   ar
    20    17    21   ar
    21    18    19   ar
    22    20    22   ar
    23    15    16    1
    24    13    14    1
@<TRIPOS>MOLECULE
Molport-046-956-332 MCULE-5763772112 MCULE-8712035988 PubChem-110095197
 22 24 0 0 0
SMALL
GASTEIGER

@<TRIPOS>ATOM
      1 C          14.0460   38.7876   11.7887 C.3     1  UNL1        0.0737
      2 C          13.4360   39.7561   10.8413 C.ar    1  UNL1        0.1406
      3 C          11.6244   41.1487   10.2322 C.ar    1  UNL1        0.0641
      4 C          12.3095   41.5491    9.0852 C.ar    1  UNL1        0.0492
      5 C          13.5783   41.0221    8.8453 C.ar    1  UNL1        0.1368
      6 N          12.1994   40.2607   11.0883 N.ar    1  UNL1       -0.2349
      7 N          14.1156   40.1365    9.7281 N.ar    1  UNL1       -0.2159
      8 C          10.2654   41.7002   10.5088 C.3     1  UNL1        0.0562
      9 C           9.6691   41.0733   11.7695 C.3     1  UNL1        0.0087
     10 C           8.2502   41.5907   12.0209 C.3     1  UNL1        0.0175
     11 C           7.4702   41.8171   10.7195 C.3     1  UNL1        0.0686
     12 C           9.3483   41.5331    9.2823 C.3     1  UNL1        0.0745
     13 N           8.0239   41.0111    9.6340 N.3     1  UNL1       -0.2971
     14 H           7.4091   41.0621    8.8217 H       1  UNL1        0.1233
     15 N          14.2902   41.4269    7.6700 N.pl3   1  UNL1       -0.2679
     16 H          13.9640   41.0762    6.8098 H       1  UNL1        0.1565
     17 C          15.4310   42.2927    7.6249 C.ar    1  UNL1        0.2218
     18 C          16.4547   44.3240    6.9675 C.ar    1  UNL1        0.1034
     19 C          17.6508   43.9270    7.5622 C.ar    1  UNL1        0.0414
     20 C          17.6956   42.6832    8.1891 C.ar    1  UNL1        0.1034
     21 N          15.3715   43.5052    7.0086 N.ar    1  UNL1       -0.2120
     22 N          16.5912   41.8923    8.2094 N.ar    1  UNL1       -0.2120
@<TRIPOS>BOND
     1     1     2    1
     2     2     7   ar
     3     3     6   ar
     4     4     5   ar
     5     5    15    1
     6    17    22   ar
     7    18    21   ar
     8    19    20   ar
     9     8     3    1
    10     8     9    1
    11     9    10    1
    12    10    11    1
    13    11    13    1
    14    12    13    1
    15    12     8    1
    16    15    17    1
    17     2     6   ar
    18     3     4   ar
    19     5     7   ar
    20    17    21   ar
    21    18    19   ar
    22    20    22   ar
    23    15    16    1
    24    13    14    1
@<TRIPOS>MOLECULE
Molport-046-956-332 MCULE-5763772112 MCULE-8712035988 PubChem-110095197
 22 24 0 0 0
SMALL
GASTEIGER

@<TRIPOS>ATOM
      1 C          11.8190   40.2542   10.6555 C.3     1  UNL1        0.0737
      2 C          11.2522   40.8672    9.4263 C.ar    1  UNL1        0.1406
      3 C           9.3776   41.6454    8.2131 C.ar    1  UNL1        0.0641
      4 C          10.2061   42.0023    7.1493 C.ar    1  UNL1        0.0492
      5 C          11.5770   41.7721    7.2624 C.ar    1  UNL1        0.1368
      6 N           9.9150   41.0851    9.3307 N.ar    1  UNL1       -0.2349
      7 N          12.0720   41.2093    8.3984 N.ar    1  UNL1       -0.2159
      8 C           7.9075   41.8830    8.1135 C.3     1  UNL1        0.0562
      9 C           7.6168   43.3001    7.6181 C.3     1  UNL1        0.0087
     10 C           6.1100   43.5676    7.5745 C.3     1  UNL1        0.0175
     11 C           5.3608   42.8874    8.7275 C.3     1  UNL1        0.0686
     12 C           7.2131   41.5782    9.4546 C.3     1  UNL1        0.0745
     13 N           6.2605   42.6215    9.8476 N.3     1  UNL1       -0.2971
     14 H           5.7203   42.3059   10.6532 H       1  UNL1        0.1233
     15 N          12.4366   42.1349    6.1754 N.pl3   1  UNL1       -0.2679
     16 H          12.1771   41.8203    5.2794 H       1  UNL1        0.1565
     17 C          13.6374   42.9113    6.2659 C.ar    1  UNL1        0.2218
     18 C          15.8541   43.1994    7.0469 C.ar    1  UNL1        0.1034
     19 C          15.9282   44.4386    6.4138 C.ar    1  UNL1        0.0414
     20 C          14.8150   44.8855    5.7044 C.ar    1  UNL1        0.1034
     21 N          14.7169   42.4611    6.9628 N.ar    1  UNL1       -0.2120
     22 N          13.6954   44.1184    5.6433 N.ar    1  UNL1       -0.2120
@<TRIPOS>BOND
     1     1     2    1
     2     2     7   ar
     3     3     6   ar
     4     4     5   ar
     5     5    15    1
     6    17    22   ar
     7    18    21   ar
     8    19    20   ar
     9     8     3    1
    10     8     9    1
    11     9    10    1
    12    10    11    1
    13    11    13    1
    14    12    13    1
    15    12     8    1
    16    15    17    1
    17     2     6   ar
    18     3     4   ar
    19     5     7   ar
    20    17    21   ar
    21    18    19   ar
    22    20    22   ar
    23    15    16    1
    24    13    14    1
@<TRIPOS>MOLECULE
Molport-046-956-332 MCULE-5763772112 MCULE-8712035988 PubChem-110095197
 22 24 0 0 0
SMALL
GASTEIGER

@<TRIPOS>ATOM
      1 C          15.9010   43.6100    6.5308 C.3     1  UNL1        0.0737
      2 C          14.7469   42.7203    6.8210 C.ar    1  UNL1        0.1406
      3 C          13.8043   40.9409    8.0608 C.ar    1  UNL1        0.0641
      4 C          12.6082   41.0749    7.3560 C.ar    1  UNL1        0.0492
      5 C          12.5173   42.0605    6.3735 C.ar    1  UNL1        0.1368
      6 N          14.8505   41.7649    7.7809 N.ar    1  UNL1       -0.2349
      7 N          13.5883   42.8630    6.1261 N.ar    1  UNL1       -0.2159
      8 C          13.9236   39.8929    9.1168 C.3     1  UNL1        0.0562
      9 C          13.2345   40.3385   10.4069 C.3     1  UNL1        0.0087
     10 C          13.4089   39.2926   11.5114 C.3     1  UNL1        0.0175
     11 C          14.7813   38.6091   11.4593 C.3     1  UNL1        0.0686
     12 C          15.3990   39.5114    9.3432 C.3     1  UNL1        0.0745
     13 N          15.7546   39.4485   10.7644 N.3     1  UNL1       -0.2971
     14 H          16.6870   39.0477   10.8666 H       1  UNL1        0.1233
     15 N          11.2931   42.2063    5.6439 N.pl3   1  UNL1       -0.2679
     16 H          11.2087   43.0032    5.0721 H       1  UNL1        0.1565
     17 C          10.1797   41.3047    5.6658 C.ar    1  UNL1        0.2218
     18 C           9.1889   39.2353    5.0808 C.ar    1  UNL1        0.1034
     19 C           8.0129   39.6011    5.7328 C.ar    1  UNL1        0.0414
     20 C           7.9607   40.8495    6.3498 C.ar    1  UNL1        0.1034
     21 N          10.2460   40.0881    5.0584 N.ar    1  UNL1       -0.2120
     22 N           9.0389   41.6749    6.3056 N.ar    1  UNL1       -0.2120
@<TRIPOS>BOND
     1     1     2    1
     2     2     7   ar
     3     3     6   ar
     4     4     5   ar
     5     5    15    1
     6    17    22   ar
     7    18    21   ar
     8    19    20   ar
     9     8     3    1
    10     8     9    1
    11     9    10    1
    12    10    11    1
    13    11    13    1
    14    12    13    1
    15    12     8    1
    16    15    17    1
    17     2     6   ar
    18     3     4   ar
    19     5     7   ar
    20    17    21   ar
    21    18    19   ar
    22    20    22   ar
    23    15    16    1
    24    13    14    1
@<TRIPOS>MOLECULE
Molport-046-956-332 MCULE-5763772112 MCULE-8712035988 PubChem-110095197
 22 24 0 0 0
SMALL
GASTEIGER

@<TRIPOS>ATOM
      1 C          10.2722   39.9136    3.9256 C.3     1  UNL1        0.0737
      2 C          10.5089   40.6306    5.2054 C.ar    1  UNL1        0.1406
      3 C           9.6537   41.7512    7.1040 C.ar    1  UNL1        0.0641
      4 C          10.9504   41.9575    7.5743 C.ar    1  UNL1        0.0492
      5 C          12.0204   41.4775    6.8193 C.ar    1  UNL1        0.1368
      6 N           9.4567   41.0923    5.9297 N.ar    1  UNL1       -0.2349
      7 N          11.7778   40.8240    5.6504 N.ar    1  UNL1       -0.2159
      8 C           8.4938   42.2561    7.8960 C.3     1  UNL1        0.0562
      9 C           7.8878   41.1397    8.7472 C.3     1  UNL1        0.0087
     10 C           6.6597   41.6390    9.5130 C.3     1  UNL1        0.0175
     11 C           5.8362   42.6496    8.7044 C.3     1  UNL1        0.0686
     12 C           7.4524   42.9212    6.9759 C.3     1  UNL1        0.0745
     13 N           6.0815   42.4937    7.2725 N.3     1  UNL1       -0.2971
     14 H           5.4224   43.0688    6.7477 H       1  UNL1        0.1233
     15 N          13.3562   41.6843    7.2936 N.pl3   1  UNL1       -0.2679
     16 H          13.6982   41.0394    7.9541 H       1  UNL1        0.1565
     17 C          14.2427   42.7389    6.8998 C.ar    1  UNL1        0.2218
     18 C          14.6448   44.7861    5.7800 C.ar    1  UNL1        0.1034
     19 C          15.9836   44.7465    6.1644 C.ar    1  UNL1        0.0414
     20 C          16.4194   43.6665    6.9298 C.ar    1  UNL1        0.1034
     21 N          13.8020   43.7877    6.1519 N.ar    1  UNL1       -0.2120
     22 N          15.5462   42.6871    7.2820 N.ar    1  UNL1       -0.2120
@<TRIPOS>BOND
     1     1     2    1
     2     2     7   ar
     3     3     6   ar
     4     4     5   ar
     5     5    15    1
     6    17    22   ar
     7    18    21   ar
     8    19    20   ar
     9     8     3    1
    10     8     9    1
    11     9    10    1
    12    10    11    1
    13    11    13    1
    14    12    13    1
    15    12     8    1
    16    15    17    1
    17     2     6   ar
    18     3     4   ar
    19     5     7   ar
    20    17    21   ar
    21    18    19   ar
    22    20    22   ar
    23    15    16    1
    24    13    14    1
@<TRIPOS>MOLECULE
Molport-046-956-332 MCULE-5763772112 MCULE-8712035988 PubChem-110095197
 22 24 0 0 0
SMALL
GASTEIGER

@<TRIPOS>ATOM
      1 C          10.4475   41.1654    5.2822 C.3     1  UNL1        0.0737
      2 C          11.0842   41.2750    6.6203 C.ar    1  UNL1        0.1406
      3 C          10.8914   41.6585    8.9457 C.ar    1  UNL1        0.0641
      4 C          12.2662   41.4772    9.0961 C.ar    1  UNL1        0.0492
      5 C          13.0311   41.1913    7.9655 C.ar    1  UNL1        0.1368
      6 N          10.3262   41.5542    7.7122 N.ar    1  UNL1       -0.2349
      7 N          12.4246   41.0960    6.7509 N.ar    1  UNL1       -0.2159
      8 C          10.0536   41.9651   10.1422 C.3     1  UNL1        0.0562
      9 C          10.3282   40.9690   11.2694 C.3     1  UNL1        0.0087
     10 C           9.4254   41.2428   12.4753 C.3     1  UNL1        0.0175
     11 C           8.0246   41.7132   12.0634 C.3     1  UNL1        0.0686
     12 C           8.5615   42.0233    9.7636 C.3     1  UNL1        0.0745
     13 N           7.7110   41.2846   10.7023 N.3     1  UNL1       -0.2971
     14 H           6.7300   41.4774   10.5001 H       1  UNL1        0.1233
     15 N          14.4439   41.0034    8.1093 N.pl3   1  UNL1       -0.2679
     16 H          14.7484   40.1048    8.3720 H       1  UNL1        0.1565
     17 C          15.4568   41.9966    7.9077 C.ar    1  UNL1        0.2218
     18 C          17.6596   42.7956    8.2479 C.ar    1  UNL1        0.1034
     19 C          17.3756   43.9330    7.4945 C.ar    1  UNL1        0.0414
     20 C          16.0973   44.0661    6.9557 C.ar    1  UNL1        0.1034
     21 N          16.7013   41.8523    8.4406 N.ar    1  UNL1       -0.2120
     22 N          15.1656   43.1011    7.1706 N.ar    1  UNL1       -0.2120
@<TRIPOS>BOND
     1     1     2    1
     2     2     7   ar
     3     3     6   ar
     4     4     5   ar
     5     5    15    1
     6    17    22   ar
     7    18    21   ar
     8    19    20   ar
     9     8     3    1
    10     8     9    1
    11     9    10    1
    12    10    11    1
    13    11    13    1
    14    12    13    1
    15    12     8    1
    16    15    17    1
    17     2     6   ar
    18     3     4   ar
    19     5     7   ar
    20    17    21   ar
    21    18    19   ar
    22    20    22   ar
    23    15    16    1
    24    13    14    1
@<TRIPOS>MOLECULE
Molport-046-956-332 MCULE-5763772112 MCULE-8712035988 PubChem-110095197
 22 24 0 0 0
SMALL
GASTEIGER

@<TRIPOS>ATOM
      1 C           9.1320   41.2125   14.1748 C.3     1  UNL1        0.0737
      2 C           9.1289   41.3556   12.6958 C.ar    1  UNL1        0.1406
      3 C          10.1843   40.9996   10.6099 C.ar    1  UNL1        0.0641
      4 C           9.1200   41.6220    9.9578 C.ar    1  UNL1        0.0492
      5 C           8.0590   42.1075   10.7218 C.ar    1  UNL1        0.1368
      6 N          10.1694   40.8778   11.9652 N.ar    1  UNL1       -0.2349
      7 N           8.0851   41.9644   12.0749 N.ar    1  UNL1       -0.2159
      8 C          11.3301   40.4724    9.8119 C.3     1  UNL1        0.0562
      9 C          12.5672   40.2873   10.6914 C.3     1  UNL1        0.0087
     10 C          13.7618   39.8060    9.8634 C.3     1  UNL1        0.0175
     11 C          13.7874   40.4227    8.4590 C.3     1  UNL1        0.0686
     12 C          11.6079   41.3739    8.5939 C.3     1  UNL1        0.0745
     13 N          13.0334   41.6737    8.4261 N.3     1  UNL1       -0.2971
     14 H          13.1822   42.1397    7.5311 H       1  UNL1        0.1233
     15 N           6.9611   42.7485   10.0617 N.pl3   1  UNL1       -0.2679
     16 H           7.1468   43.6117    9.6263 H       1  UNL1        0.1565
     17 C           5.6187   42.2552    9.9739 C.ar    1  UNL1        0.2218
     18 C           4.0128   40.5615   10.3727 C.ar    1  UNL1        0.1034
     19 C           3.0228   41.3455    9.7837 C.ar    1  UNL1        0.0414
     20 C           3.3788   42.6006    9.2936 C.ar    1  UNL1        0.1034
     21 N           5.2863   41.0266   10.4574 N.ar    1  UNL1       -0.2120
     22 N           4.6632   43.0310    9.3967 N.ar    1  UNL1       -0.2120
@<TRIPOS>BOND
     1     1     2    1
     2     2     7   ar
     3     3     6   ar
     4     4     5   ar
     5     5    15    1
     6    17    22   ar
     7    18    21   ar
     8    19    20   ar
     9     8     3    1
    10     8     9    1
    11     9    10    1
    12    10    11    1
    13    11    13    1
    14    12    13    1
    15    12     8    1
    16    15    17    1
    17     2     6   ar
    18     3     4   ar
    19     5     7   ar
    20    17    21   ar
    21    18    19   ar
    22    20    22   ar
    23    15    16    1
    24    13    14    1
