@<TRIPOS>MOLECULE
MolPort-008-320-696 36356972 CSSS00160791463 LN00861550 MCULE-6121196901 PubChem-45491940 ZINC000036356972 ZINC36356972
 29 33 0 0 0
SMALL
GASTEIGER

@<TRIPOS>ATOM
      1 C          12.3744   40.9202    7.5816 C.ar    1  UNL1        0.0518
      2 C          12.0774   39.5508    7.5388 C.ar    1  UNL1        0.0148
      3 C          10.7507   39.1170    7.5143 C.ar    1  UNL1        0.0025
      4 C           9.7111   40.0494    7.5332 C.ar    1  UNL1        0.0146
      5 C           9.9861   41.4262    7.5762 C.ar    1  UNL1        0.0494
      6 C          11.3270   41.8465    7.6001 C.ar    1  UNL1        0.0292
      7 C           8.1858   42.7012    6.3622 C.3     1  UNL1        0.0932
      8 C           6.9539   43.5701    6.6033 C.3     1  UNL1        0.0459
      9 C           5.8234   42.7618    7.2339 C.3     1  UNL1        0.1090
     10 C           7.2432   42.4131    9.3496 C.ar    1  UNL1        0.1406
     11 C           8.5211   43.0121    8.8639 C.3     1  UNL1        0.1556
     12 C           5.8524   41.4427   10.6113 C.ar    1  UNL1        0.0984
     13 C           5.1932   40.7981   11.6550 C.ar    1  UNL1        0.0206
     14 C           3.8523   40.4263   11.4434 C.ar    1  UNL1        0.0016
     15 C           3.2149   40.7031   10.2131 C.ar    1  UNL1        0.0016
     16 C           3.9097   41.3554    9.1781 C.ar    1  UNL1        0.0188
     17 C           5.2364   41.7102    9.4231 C.ar    1  UNL1        0.0786
     18 N           8.9139   42.3900    7.5992 N.pl3   1  UNL1       -0.3010
     19 N           6.1016   42.3316    8.6093 N.ar    1  UNL1       -0.3135
     20 N           7.1249   41.8770   10.5924 N.ar    1  UNL1       -0.2292
     21 O          13.4037   43.4902    6.5846 O.2     1  UNL1       -0.2693
     22 C          14.1967   42.6630    7.1098 C.2     1  UNL1        0.2555
     23 N          13.7235   41.4050    7.6111 N.am    1  UNL1       -0.2799
     24 H          14.3958   40.8121    8.0182 H       1  UNL1        0.1552
     25 C          15.6235   42.9908    7.2108 C.ar    1  UNL1        0.0831
     26 C          16.5387   42.3750    8.0508 C.ar    1  UNL1        0.0116
     27 C          17.8313   42.9046    7.9266 C.ar    1  UNL1        0.0076
     28 C          17.9456   43.9344    6.9952 C.ar    1  UNL1        0.0356
     29 S          16.4193   44.1757    6.3305 S.2     1  UNL1       -0.0819
@<TRIPOS>BOND
     1    22    23   am
     2    22    25    1
     3     2     3   ar
     4     4     5   ar
     5     5    18    1
     6     6     1   ar
     7     7    18    1
     8     7     8    1
     9     8     9    1
    10     9    19    1
    11    11    10    1
    12    11    18    1
    13    12    20   ar
    14    13    14   ar
    15    15    16   ar
    16    17    12   ar
    17    17    19   ar
    18    25    29   ar
    19    26    27   ar
    20    28    29   ar
    21    23     1    1
    22    19    10   ar
    23    22    21    2
    24     1     2   ar
    25     3     4   ar
    26     5     6   ar
    27    10    20   ar
    28    12    13   ar
    29    14    15   ar
    30    16    17   ar
    31    25    26   ar
    32    27    28   ar
    33    23    24    1
@<TRIPOS>MOLECULE
MolPort-008-320-696 36356972 CSSS00160791463 LN00861550 MCULE-6121196901 PubChem-45491940 ZINC000036356972 ZINC36356972
 29 33 0 0 0
SMALL
GASTEIGER

@<TRIPOS>ATOM
      1 C           8.8222   41.2093   10.7919 C.ar    1  UNL1        0.0518
      2 C           9.5907   41.1390   11.9622 C.ar    1  UNL1        0.0148
      3 C          10.9769   40.9909   11.8882 C.ar    1  UNL1        0.0025
      4 C          11.6047   40.9114   10.6433 C.ar    1  UNL1        0.0146
      5 C          10.8540   40.9795    9.4581 C.ar    1  UNL1        0.0494
      6 C           9.4596   41.1290    9.5498 C.ar    1  UNL1        0.0292
      7 C          10.9823   41.6756    7.0415 C.3     1  UNL1        0.0932
      8 C          11.9029   41.6370    5.8242 C.3     1  UNL1        0.0459
      9 C          13.1403   42.5037    6.0406 C.3     1  UNL1        0.1090
     10 C          13.9083   40.9460    7.9374 C.ar    1  UNL1        0.1406
     11 C          12.7006   40.0723    8.0136 C.3     1  UNL1        0.1556
     12 C          15.8070   41.7612    8.3828 C.ar    1  UNL1        0.0984
     13 C          17.0617   42.0589    8.9084 C.ar    1  UNL1        0.0206
     14 C          17.7568   43.1479    8.3500 C.ar    1  UNL1        0.0016
     15 C          17.1886   43.9002    7.2975 C.ar    1  UNL1        0.0016
     16 C          15.9178   43.5735    6.7894 C.ar    1  UNL1        0.0188
     17 C          15.2584   42.4878    7.3660 C.ar    1  UNL1        0.0786
     18 N          11.5004   40.8941    8.1721 N.pl3   1  UNL1       -0.3010
     19 N          14.0540   41.9825    7.0643 N.ar    1  UNL1       -0.3135
     20 N          14.9729   40.7779    8.7646 N.ar    1  UNL1       -0.2292
     21 O           6.9308   41.1157    8.5397 O.2     1  UNL1       -0.2693
     22 C           6.4997   41.3138    9.7075 C.2     1  UNL1        0.2555
     23 N           7.3964   41.3578   10.8263 N.am    1  UNL1       -0.2799
     24 H           6.9902   41.5056   11.7108 H       1  UNL1        0.1552
     25 C           5.0608   41.5015    9.9266 C.ar    1  UNL1        0.0831
     26 C           4.0653   41.3072    8.9813 C.ar    1  UNL1        0.0116
     27 C           2.7819   41.5671    9.4834 C.ar    1  UNL1        0.0076
     28 C           2.7546   41.9656   10.8182 C.ar    1  UNL1        0.0356
     29 S           4.3459   41.9896   11.3628 S.2     1  UNL1       -0.0819
@<TRIPOS>BOND
     1    22    23   am
     2    22    25    1
     3     2     3   ar
     4     4     5   ar
     5     5    18    1
     6     6     1   ar
     7     7    18    1
     8     7     8    1
     9     8     9    1
    10     9    19    1
    11    11    10    1
    12    11    18    1
    13    12    20   ar
    14    13    14   ar
    15    15    16   ar
    16    17    12   ar
    17    17    19   ar
    18    25    29   ar
    19    26    27   ar
    20    28    29   ar
    21    23     1    1
    22    19    10   ar
    23    22    21    2
    24     1     2   ar
    25     3     4   ar
    26     5     6   ar
    27    10    20   ar
    28    12    13   ar
    29    14    15   ar
    30    16    17   ar
    31    25    26   ar
    32    27    28   ar
    33    23    24    1
@<TRIPOS>MOLECULE
MolPort-008-320-696 36356972 CSSS00160791463 LN00861550 MCULE-6121196901 PubChem-45491940 ZINC000036356972 ZINC36356972
 29 33 0 0 0
SMALL
GASTEIGER

@<TRIPOS>ATOM
      1 C          16.6356   36.8814    9.4848 C.ar    1  UNL1        0.0518
      2 C          17.7664   37.1763   10.2591 C.ar    1  UNL1        0.0148
      3 C          18.9172   36.3928   10.1542 C.ar    1  UNL1        0.0025
      4 C          18.9454   35.3083    9.2748 C.ar    1  UNL1        0.0146
      5 C          17.8235   34.9950    8.4897 C.ar    1  UNL1        0.0494
      6 C          16.6731   35.7936    8.6068 C.ar    1  UNL1        0.0292
      7 C          16.6553   33.0335    7.4273 C.3     1  UNL1        0.0932
      8 C          16.7816   32.0325    6.2815 C.3     1  UNL1        0.0459
      9 C          16.6474   32.7239    4.9276 C.3     1  UNL1        0.1090
     10 C          18.8177   34.0302    5.3714 C.ar    1  UNL1        0.1406
     11 C          19.0475   33.6106    6.7852 C.3     1  UNL1        0.1556
     12 C          19.0819   35.0118    3.5181 C.ar    1  UNL1        0.0984
     13 C          19.5231   35.7878    2.4493 C.ar    1  UNL1        0.0206
     14 C          18.7549   35.7639    1.2702 C.ar    1  UNL1        0.0016
     15 C          17.5832   34.9782    1.1912 C.ar    1  UNL1        0.0016
     16 C          17.1642   34.2057    2.2900 C.ar    1  UNL1        0.0188
     17 C          17.9503   34.2526    3.4415 C.ar    1  UNL1        0.0786
     18 N          17.8499   33.8735    7.5838 N.pl3   1  UNL1       -0.3010
     19 N          17.7676   33.6165    4.6072 N.ar    1  UNL1       -0.3135
     20 N          19.6516   34.8900    4.7302 N.ar    1  UNL1       -0.2292
     21 O          14.5361   36.7723   11.5436 O.2     1  UNL1       -0.2693
     22 C          14.4240   37.5790   10.5815 C.2     1  UNL1        0.2555
     23 N          15.4343   37.6599    9.5663 N.am    1  UNL1       -0.2799
     24 H          15.2873   38.3193    8.8502 H       1  UNL1        0.1552
     25 C          13.2444   38.4480   10.4983 C.ar    1  UNL1        0.0831
     26 C          13.1091   39.6900   11.0997 C.ar    1  UNL1        0.0116
     27 C          11.8655   40.2850   10.8425 C.ar    1  UNL1        0.0076
     28 C          11.0162   39.5235   10.0426 C.ar    1  UNL1        0.0356
     29 S          11.8329   38.1031    9.6612 S.2     1  UNL1       -0.0819
@<TRIPOS>BOND
     1    22    23   am
     2    22    25    1
     3     2     3   ar
     4     4     5   ar
     5     5    18    1
     6     6     1   ar
     7     7    18    1
     8     7     8    1
     9     8     9    1
    10     9    19    1
    11    11    10    1
    12    11    18    1
    13    12    20   ar
    14    13    14   ar
    15    15    16   ar
    16    17    12   ar
    17    17    19   ar
    18    25    29   ar
    19    26    27   ar
    20    28    29   ar
    21    23     1    1
    22    19    10   ar
    23    22    21    2
    24     1     2   ar
    25     3     4   ar
    26     5     6   ar
    27    10    20   ar
    28    12    13   ar
    29    14    15   ar
    30    16    17   ar
    31    25    26   ar
    32    27    28   ar
    33    23    24    1
@<TRIPOS>MOLECULE
MolPort-008-320-696 36356972 CSSS00160791463 LN00861550 MCULE-6121196901 PubChem-45491940 ZINC000036356972 ZINC36356972
 29 33 0 0 0
SMALL
GASTEIGER

@<TRIPOS>ATOM
      1 C          13.8636   40.8081    9.4212 C.ar    1  UNL1        0.0518
      2 C          13.9997   40.0075   10.5639 C.ar    1  UNL1        0.0148
      3 C          12.8820   39.3949   11.1334 C.ar    1  UNL1        0.0025
      4 C          11.6198   39.5788   10.5647 C.ar    1  UNL1        0.0146
      5 C          11.4607   40.3769    9.4199 C.ar    1  UNL1        0.0494
      6 C          12.5958   40.9864    8.8586 C.ar    1  UNL1        0.0292
      7 C           9.7059   41.9253    8.4902 C.3     1  UNL1        0.0932
      8 C           8.4068   41.9304    7.6883 C.3     1  UNL1        0.0459
      9 C           8.6467   41.4911    6.2466 C.3     1  UNL1        0.1090
     10 C           9.3191   39.1477    7.0650 C.ar    1  UNL1        0.1406
     11 C           9.3148   39.4128    8.5338 C.3     1  UNL1        0.1556
     12 C           9.5461   38.1298    5.2264 C.ar    1  UNL1        0.0984
     13 C           9.7806   37.2043    4.2126 C.ar    1  UNL1        0.0206
     14 C           9.6183   37.6421    2.8849 C.ar    1  UNL1        0.0016
     15 C           9.2329   38.9732    2.6086 C.ar    1  UNL1        0.0016
     16 C           9.0044   39.8841    3.6564 C.ar    1  UNL1        0.0188
     17 C           9.1736   39.4154    4.9594 C.ar    1  UNL1        0.0786
     18 N          10.1577   40.5706    8.8336 N.pl3   1  UNL1       -0.3010
     19 N           9.0188   40.0775    6.1146 N.ar    1  UNL1       -0.3135
     20 N           9.6463   37.9325    6.5528 N.ar    1  UNL1       -0.2292
     21 O          13.8516   42.8146    7.2690 O.2     1  UNL1       -0.2693
     22 C          14.9488   42.4284    7.7546 C.2     1  UNL1        0.2555
     23 N          14.9864   41.4566    8.8091 N.am    1  UNL1       -0.2799
     24 H          15.8768   41.2089    9.1482 H       1  UNL1        0.1552
     25 C          16.2054   42.9803    7.2351 C.ar    1  UNL1        0.0831
     26 C          17.4580   42.8215    7.8080 C.ar    1  UNL1        0.0116
     27 C          18.4715   43.4667    7.0845 C.ar    1  UNL1        0.0076
     28 C          18.0303   44.1347    5.9442 C.ar    1  UNL1        0.0356
     29 S          16.3657   43.9113    5.8496 S.2     1  UNL1       -0.0819
@<TRIPOS>BOND
     1    22    23   am
     2    22    25    1
     3     2     3   ar
     4     4     5   ar
     5     5    18    1
     6     6     1   ar
     7     7    18    1
     8     7     8    1
     9     8     9    1
    10     9    19    1
    11    11    10    1
    12    11    18    1
    13    12    20   ar
    14    13    14   ar
    15    15    16   ar
    16    17    12   ar
    17    17    19   ar
    18    25    29   ar
    19    26    27   ar
    20    28    29   ar
    21    23     1    1
    22    19    10   ar
    23    22    21    2
    24     1     2   ar
    25     3     4   ar
    26     5     6   ar
    27    10    20   ar
    28    12    13   ar
    29    14    15   ar
    30    16    17   ar
    31    25    26   ar
    32    27    28   ar
    33    23    24    1
@<TRIPOS>MOLECULE
MolPort-008-320-696 36356972 CSSS00160791463 LN00861550 MCULE-6121196901 PubChem-45491940 ZINC000036356972 ZINC36356972
 29 33 0 0 0
SMALL
GASTEIGER

@<TRIPOS>ATOM
      1 C          14.4728   35.2680    8.8803 C.ar    1  UNL1        0.0518
      2 C          13.5599   34.5969    9.7058 C.ar    1  UNL1        0.0148
      3 C          12.6508   35.3165   10.4836 C.ar    1  UNL1        0.0025
      4 C          12.6483   36.7124   10.4419 C.ar    1  UNL1        0.0146
      5 C          13.5544   37.4050    9.6220 C.ar    1  UNL1        0.0494
      6 C          14.4628   36.6660    8.8450 C.ar    1  UNL1        0.0292
      7 C          14.6078   39.5544    8.8402 C.3     1  UNL1        0.0932
      8 C          14.3398   41.0524    8.7181 C.3     1  UNL1        0.0459
      9 C          13.2370   41.3345    7.7016 C.3     1  UNL1        0.1090
     10 C          11.5350   40.1230    9.2013 C.ar    1  UNL1        0.1406
     11 C          12.4783   39.5941   10.2300 C.3     1  UNL1        0.1556
     12 C           9.7375   40.5001    8.1550 C.ar    1  UNL1        0.0984
     13 C           8.4197   40.5642    7.7093 C.ar    1  UNL1        0.0206
     14 C           8.1712   41.2758    6.5207 C.ar    1  UNL1        0.0016
     15 C           9.2297   41.8946    5.8184 C.ar    1  UNL1        0.0016
     16 C          10.5507   41.8102    6.2954 C.ar    1  UNL1        0.0188
     17 C          10.7598   41.0981    7.4766 C.ar    1  UNL1        0.0786
     18 N          13.5553   38.8463    9.5806 N.pl3   1  UNL1       -0.3010
     19 N          11.9099   40.8749    8.1280 N.ar    1  UNL1       -0.3135
     20 N          10.2002   39.8747    9.2519 N.ar    1  UNL1       -0.2292
     21 O          17.3352   34.8309    9.4038 O.2     1  UNL1       -0.2693
     22 C          16.8178   34.3740    8.3490 C.2     1  UNL1        0.2555
     23 N          15.4238   34.5652    8.0695 N.am    1  UNL1       -0.2799
     24 H          15.0845   34.1724    7.2330 H       1  UNL1        0.1552
     25 C          17.6520   33.6359    7.3936 C.ar    1  UNL1        0.0831
     26 C          19.0376   33.6530    7.3459 C.ar    1  UNL1        0.0116
     27 C          19.5554   32.8482    6.3207 C.ar    1  UNL1        0.0076
     28 C          18.5903   32.1950    5.5571 C.ar    1  UNL1        0.0356
     29 S          17.0878   32.6321    6.1745 S.2     1  UNL1       -0.0819
@<TRIPOS>BOND
     1    22    23   am
     2    22    25    1
     3     2     3   ar
     4     4     5   ar
     5     5    18    1
     6     6     1   ar
     7     7    18    1
     8     7     8    1
     9     8     9    1
    10     9    19    1
    11    11    10    1
    12    11    18    1
    13    12    20   ar
    14    13    14   ar
    15    15    16   ar
    16    17    12   ar
    17    17    19   ar
    18    25    29   ar
    19    26    27   ar
    20    28    29   ar
    21    23     1    1
    22    19    10   ar
    23    22    21    2
    24     1     2   ar
    25     3     4   ar
    26     5     6   ar
    27    10    20   ar
    28    12    13   ar
    29    14    15   ar
    30    16    17   ar
    31    25    26   ar
    32    27    28   ar
    33    23    24    1
@<TRIPOS>MOLECULE
MolPort-008-320-696 36356972 CSSS00160791463 LN00861550 MCULE-6121196901 PubChem-45491940 ZINC000036356972 ZINC36356972
 29 33 0 0 0
SMALL
GASTEIGER

@<TRIPOS>ATOM
      1 C          14.4996   34.8450    9.0893 C.ar    1  UNL1        0.0518
      2 C          13.2456   34.5467    9.6405 C.ar    1  UNL1        0.0148
      3 C          12.6058   35.4642   10.4759 C.ar    1  UNL1        0.0025
      4 C          13.2155   36.6865   10.7666 C.ar    1  UNL1        0.0146
      5 C          14.4717   37.0057   10.2252 C.ar    1  UNL1        0.0494
      6 C          15.1024   36.0714    9.3860 C.ar    1  UNL1        0.0292
      7 C          16.5631   38.3949   10.4182 C.3     1  UNL1        0.0932
      8 C          17.0419   39.8375   10.5615 C.3     1  UNL1        0.0459
      9 C          16.7333   40.6485    9.3061 C.3     1  UNL1        0.1090
     10 C          14.2133   40.3731    9.7388 C.ar    1  UNL1        0.1406
     11 C          14.2851   39.4235   10.8881 C.3     1  UNL1        0.1556
     12 C          13.4081   41.6051    8.2217 C.ar    1  UNL1        0.0984
     13 C          12.5867   42.3137    7.3484 C.ar    1  UNL1        0.0206
     14 C          13.2130   43.0902    6.3556 C.ar    1  UNL1        0.0016
     15 C          14.6221   43.1372    6.2618 C.ar    1  UNL1        0.0016
     16 C          15.4236   42.4085    7.1597 C.ar    1  UNL1        0.0188
     17 C          14.7692   41.6509    8.1311 C.ar    1  UNL1        0.0786
     18 N          15.1040   38.2658   10.5274 N.pl3   1  UNL1       -0.3010
     19 N          15.3000   40.8789    9.0899 N.ar    1  UNL1       -0.3135
     20 N          13.0283   40.8026    9.2317 N.ar    1  UNL1       -0.2292
     21 O          15.8503   35.4123    6.5374 O.2     1  UNL1       -0.2693
     22 C          15.8345   34.2342    6.9855 C.2     1  UNL1        0.2555
     23 N          15.1900   33.9280    8.2299 N.am    1  UNL1       -0.2799
     24 H          15.2254   32.9894    8.5250 H       1  UNL1        0.1552
     25 C          16.4846   33.1608    6.2248 C.ar    1  UNL1        0.0831
     26 C          17.6576   32.5123    6.5796 C.ar    1  UNL1        0.0116
     27 C          18.0360   31.5296    5.6533 C.ar    1  UNL1        0.0076
     28 C          17.1716   31.3960    4.5688 C.ar    1  UNL1        0.0356
     29 S          15.9334   32.5151    4.7787 S.2     1  UNL1       -0.0819
@<TRIPOS>BOND
     1    22    23   am
     2    22    25    1
     3     2     3   ar
     4     4     5   ar
     5     5    18    1
     6     6     1   ar
     7     7    18    1
     8     7     8    1
     9     8     9    1
    10     9    19    1
    11    11    10    1
    12    11    18    1
    13    12    20   ar
    14    13    14   ar
    15    15    16   ar
    16    17    12   ar
    17    17    19   ar
    18    25    29   ar
    19    26    27   ar
    20    28    29   ar
    21    23     1    1
    22    19    10   ar
    23    22    21    2
    24     1     2   ar
    25     3     4   ar
    26     5     6   ar
    27    10    20   ar
    28    12    13   ar
    29    14    15   ar
    30    16    17   ar
    31    25    26   ar
    32    27    28   ar
    33    23    24    1
@<TRIPOS>MOLECULE
MolPort-008-320-696 36356972 CSSS00160791463 LN00861550 MCULE-6121196901 PubChem-45491940 ZINC000036356972 ZINC36356972
 29 33 0 0 0
SMALL
GASTEIGER

@<TRIPOS>ATOM
      1 C          13.7156   38.5387    9.1029 C.ar    1  UNL1        0.0518
      2 C          14.3802   39.2882   10.0837 C.ar    1  UNL1        0.0148
      3 C          15.5864   38.8351   10.6210 C.ar    1  UNL1        0.0025
      4 C          16.1366   37.6288   10.1820 C.ar    1  UNL1        0.0146
      5 C          15.4873   36.8620    9.2004 C.ar    1  UNL1        0.0494
      6 C          14.2741   37.3322    8.6694 C.ar    1  UNL1        0.0292
      7 C          15.2049   34.4182    8.6631 C.3     1  UNL1        0.0932
      8 C          15.8994   33.2496    7.9682 C.3     1  UNL1        0.0459
      9 C          15.9812   33.4737    6.4609 C.3     1  UNL1        0.1090
     10 C          17.5316   35.4906    6.8376 C.ar    1  UNL1        0.1406
     11 C          17.4522   35.5601    8.3264 C.3     1  UNL1        0.1556
     12 C          18.0490   35.9770    4.8467 C.ar    1  UNL1        0.0984
     13 C          18.5611   36.5430    3.6819 C.ar    1  UNL1        0.0206
     14 C          18.1890   35.9562    2.4580 C.ar    1  UNL1        0.0016
     15 C          17.3271   34.8368    2.4299 C.ar    1  UNL1        0.0016
     16 C          16.8262   34.2893    3.6253 C.ar    1  UNL1        0.0188
     17 C          17.2167   34.8956    4.8193 C.ar    1  UNL1        0.0786
     18 N          16.0524   35.6148    8.7487 N.pl3   1  UNL1       -0.3010
     19 N          16.8808   34.5673    6.0748 N.ar    1  UNL1       -0.3135
     20 N          18.2653   36.3752    6.1128 N.ar    1  UNL1       -0.2292
     21 O          11.0313   37.4104    9.5270 O.2     1  UNL1       -0.2693
     22 C          11.1787   38.3925    8.7508 C.2     1  UNL1        0.2555
     23 N          12.4737   38.9685    8.5293 N.am    1  UNL1       -0.2799
     24 H          12.5141   39.7401    7.9192 H       1  UNL1        0.1552
     25 C          10.0102   38.9554    8.0643 C.ar    1  UNL1        0.0831
     26 C           9.1565   38.2638    7.2186 C.ar    1  UNL1        0.0116
     27 C           8.1279   39.0691    6.7086 C.ar    1  UNL1        0.0076
     28 C           8.1614   40.3921    7.1441 C.ar    1  UNL1        0.0356
     29 S           9.4857   40.5447    8.1701 S.2     1  UNL1       -0.0819
@<TRIPOS>BOND
     1    22    23   am
     2    22    25    1
     3     2     3   ar
     4     4     5   ar
     5     5    18    1
     6     6     1   ar
     7     7    18    1
     8     7     8    1
     9     8     9    1
    10     9    19    1
    11    11    10    1
    12    11    18    1
    13    12    20   ar
    14    13    14   ar
    15    15    16   ar
    16    17    12   ar
    17    17    19   ar
    18    25    29   ar
    19    26    27   ar
    20    28    29   ar
    21    23     1    1
    22    19    10   ar
    23    22    21    2
    24     1     2   ar
    25     3     4   ar
    26     5     6   ar
    27    10    20   ar
    28    12    13   ar
    29    14    15   ar
    30    16    17   ar
    31    25    26   ar
    32    27    28   ar
    33    23    24    1
@<TRIPOS>MOLECULE
MolPort-008-320-696 36356972 CSSS00160791463 LN00861550 MCULE-6121196901 PubChem-45491940 ZINC000036356972 ZINC36356972
 29 33 0 0 0
SMALL
GASTEIGER

@<TRIPOS>ATOM
      1 C          12.6718   41.3625    8.8857 C.ar    1  UNL1        0.0518
      2 C          11.3894   41.8372    9.1941 C.ar    1  UNL1        0.0148
      3 C          10.4939   41.0381    9.9073 C.ar    1  UNL1        0.0025
      4 C          10.8741   39.7582   10.3167 C.ar    1  UNL1        0.0146
      5 C          12.1541   39.2627   10.0182 C.ar    1  UNL1        0.0494
      6 C          13.0438   40.0797    9.2998 C.ar    1  UNL1        0.0292
      7 C          11.8792   36.7644    9.8633 C.3     1  UNL1        0.0932
      8 C          12.5565   35.4519   10.2498 C.3     1  UNL1        0.0459
      9 C          13.8637   35.2597    9.4861 C.3     1  UNL1        0.1090
     10 C          14.8693   37.3044   10.6784 C.ar    1  UNL1        0.1406
     11 C          13.6445   37.7742   11.3904 C.3     1  UNL1        0.1556
     12 C          16.8641   37.2342    9.9830 C.ar    1  UNL1        0.0984
     13 C          18.2100   37.4641    9.7090 C.ar    1  UNL1        0.0206
     14 C          18.8566   36.5676    8.8377 C.ar    1  UNL1        0.0016
     15 C          18.1522   35.4818    8.2707 C.ar    1  UNL1        0.0016
     16 C          16.7921   35.2779    8.5675 C.ar    1  UNL1        0.0188
     17 C          16.1840   36.1851    9.4355 C.ar    1  UNL1        0.0786
     18 N          12.5469   37.9401   10.4372 N.pl3   1  UNL1       -0.3010
     19 N          14.9159   36.2086    9.8691 N.ar    1  UNL1       -0.3135
     20 N          16.0552   37.9603   10.7747 N.ar    1  UNL1       -0.2292
     21 O          15.5646   40.9146    8.5855 O.2     1  UNL1       -0.2693
     22 C          15.0274   41.9104    8.0299 C.2     1  UNL1        0.2555
     23 N          13.6185   42.1513    8.1525 N.am    1  UNL1       -0.2799
     24 H          13.2644   42.9414    7.6838 H       1  UNL1        0.1552
     25 C          15.8535   42.8362    7.2464 C.ar    1  UNL1        0.0831
     26 C          17.2337   42.9483    7.3169 C.ar    1  UNL1        0.0116
     27 C          17.7441   43.9234    6.4478 C.ar    1  UNL1        0.0076
     28 C          16.7786   44.5834    5.6906 C.ar    1  UNL1        0.0356
     29 S          15.2850   43.9378    6.1171 S.2     1  UNL1       -0.0819
@<TRIPOS>BOND
     1    22    23   am
     2    22    25    1
     3     2     3   ar
     4     4     5   ar
     5     5    18    1
     6     6     1   ar
     7     7    18    1
     8     7     8    1
     9     8     9    1
    10     9    19    1
    11    11    10    1
    12    11    18    1
    13    12    20   ar
    14    13    14   ar
    15    15    16   ar
    16    17    12   ar
    17    17    19   ar
    18    25    29   ar
    19    26    27   ar
    20    28    29   ar
    21    23     1    1
    22    19    10   ar
    23    22    21    2
    24     1     2   ar
    25     3     4   ar
    26     5     6   ar
    27    10    20   ar
    28    12    13   ar
    29    14    15   ar
    30    16    17   ar
    31    25    26   ar
    32    27    28   ar
    33    23    24    1
@<TRIPOS>MOLECULE
MolPort-008-320-696 36356972 CSSS00160791463 LN00861550 MCULE-6121196901 PubChem-45491940 ZINC000036356972 ZINC36356972
 29 33 0 0 0
SMALL
GASTEIGER

@<TRIPOS>ATOM
      1 C           8.2390   42.9786    9.7607 C.ar    1  UNL1        0.0518
      2 C           8.7398   44.0131   10.5635 C.ar    1  UNL1        0.0148
      3 C          10.1095   44.2811   10.5957 C.ar    1  UNL1        0.0025
      4 C          10.9886   43.5163    9.8258 C.ar    1  UNL1        0.0146
      5 C          10.5083   42.4751    9.0146 C.ar    1  UNL1        0.0494
      6 C           9.1268   42.2182    8.9931 C.ar    1  UNL1        0.0292
      7 C          12.8074   42.1182    8.0513 C.3     1  UNL1        0.0932
      8 C          13.6781   41.0646    7.3713 C.3     1  UNL1        0.0459
      9 C          14.0039   39.9187    8.3252 C.3     1  UNL1        0.1090
     10 C          11.5163   39.2719    8.4093 C.ar    1  UNL1        0.1406
     11 C          10.9591   40.4211    7.6370 C.3     1  UNL1        0.1556
     12 C          11.6020   37.4931    9.5480 C.ar    1  UNL1        0.0984
     13 C          11.3272   36.3284   10.2601 C.ar    1  UNL1        0.0206
     14 C          12.4170   35.6465   10.8331 C.ar    1  UNL1        0.0016
     15 C          13.7328   36.1390   10.6829 C.ar    1  UNL1        0.0016
     16 C          13.9764   37.3198    9.9575 C.ar    1  UNL1        0.0188
     17 C          12.8731   37.9686    9.4028 C.ar    1  UNL1        0.0786
     18 N          11.4151   41.6824    8.2219 N.pl3   1  UNL1       -0.3010
     19 N          12.8410   39.0954    8.6775 N.ar    1  UNL1       -0.3135
     20 N          10.7220   38.2996    8.9287 N.ar    1  UNL1       -0.2292
     21 O           6.6416   41.4196   11.6780 O.2     1  UNL1       -0.2693
     22 C           6.0888   41.9003   10.6522 C.2     1  UNL1        0.2555
     23 N           6.8399   42.6703    9.7030 N.am    1  UNL1       -0.2799
     24 H           6.3423   43.0243    8.9308 H       1  UNL1        0.1552
     25 C           4.6574   41.6701   10.4252 C.ar    1  UNL1        0.0831
     26 C           4.0852   41.2319    9.2408 C.ar    1  UNL1        0.0116
     27 C           2.6910   41.1064    9.3254 C.ar    1  UNL1        0.0076
     28 C           2.1560   41.4420   10.5673 C.ar    1  UNL1        0.0356
     29 S           3.4394   41.8958   11.5556 S.2     1  UNL1       -0.0819
@<TRIPOS>BOND
     1    22    23   am
     2    22    25    1
     3     2     3   ar
     4     4     5   ar
     5     5    18    1
     6     6     1   ar
     7     7    18    1
     8     7     8    1
     9     8     9    1
    10     9    19    1
    11    11    10    1
    12    11    18    1
    13    12    20   ar
    14    13    14   ar
    15    15    16   ar
    16    17    12   ar
    17    17    19   ar
    18    25    29   ar
    19    26    27   ar
    20    28    29   ar
    21    23     1    1
    22    19    10   ar
    23    22    21    2
    24     1     2   ar
    25     3     4   ar
    26     5     6   ar
    27    10    20   ar
    28    12    13   ar
    29    14    15   ar
    30    16    17   ar
    31    25    26   ar
    32    27    28   ar
    33    23    24    1
@<TRIPOS>MOLECULE
MolPort-008-320-696 36356972 CSSS00160791463 LN00861550 MCULE-6121196901 PubChem-45491940 ZINC000036356972 ZINC36356972
 29 33 0 0 0
SMALL
GASTEIGER

@<TRIPOS>ATOM
      1 C          11.9107   40.6134    7.3377 C.ar    1  UNL1        0.0518
      2 C          10.5976   40.4651    6.8696 C.ar    1  UNL1        0.0148
      3 C           9.8041   39.4074    7.3175 C.ar    1  UNL1        0.0025
      4 C          10.3180   38.4899    8.2364 C.ar    1  UNL1        0.0146
      5 C          11.6310   38.6195    8.7184 C.ar    1  UNL1        0.0494
      6 C          12.4167   39.6899    8.2579 C.ar    1  UNL1        0.0292
      7 C          11.3364   36.5436   10.1129 C.3     1  UNL1        0.0932
      8 C          12.1197   35.5257   10.9380 C.3     1  UNL1        0.0459
      9 C          13.0360   34.6857   10.0526 C.3     1  UNL1        0.1090
     10 C          14.4065   36.7822    9.4695 C.ar    1  UNL1        0.1406
     11 C          13.5444   37.8054   10.1311 C.3     1  UNL1        0.1556
     12 C          15.9832   35.9323    8.3472 C.ar    1  UNL1        0.0984
     13 C          17.1196   35.6899    7.5798 C.ar    1  UNL1        0.0206
     14 C          17.3897   34.3550    7.2250 C.ar    1  UNL1        0.0016
     15 C          16.5300   33.3128    7.6390 C.ar    1  UNL1        0.0016
     16 C          15.3889   33.5917    8.4135 C.ar    1  UNL1        0.0188
     17 C          15.1530   34.9255    8.7473 C.ar    1  UNL1        0.0786
     18 N          12.1642   37.6710    9.6645 N.pl3   1  UNL1       -0.3010
     19 N          14.1476   35.4440    9.4664 N.ar    1  UNL1       -0.3135
     20 N          15.5339   37.1197    8.7906 N.ar    1  UNL1       -0.2292
     21 O          14.6654   41.2125    8.1810 O.2     1  UNL1       -0.2693
     22 C          14.0975   41.9545    7.3349 C.2     1  UNL1        0.2555
     23 N          12.7578   41.6840    6.8993 N.am    1  UNL1       -0.2799
     24 H          12.3802   42.2981    6.2288 H       1  UNL1        0.1552
     25 C          14.8162   43.1108    6.7871 C.ar    1  UNL1        0.0831
     26 C          14.2737   44.0865    5.9649 C.ar    1  UNL1        0.0116
     27 C          15.2064   45.0678    5.5988 C.ar    1  UNL1        0.0076
     28 C          16.4821   44.8757    6.1248 C.ar    1  UNL1        0.0356
     29 S          16.4328   43.4713    7.0494 S.2     1  UNL1       -0.0819
@<TRIPOS>BOND
     1    22    23   am
     2    22    25    1
     3     2     3   ar
     4     4     5   ar
     5     5    18    1
     6     6     1   ar
     7     7    18    1
     8     7     8    1
     9     8     9    1
    10     9    19    1
    11    11    10    1
    12    11    18    1
    13    12    20   ar
    14    13    14   ar
    15    15    16   ar
    16    17    12   ar
    17    17    19   ar
    18    25    29   ar
    19    26    27   ar
    20    28    29   ar
    21    23     1    1
    22    19    10   ar
    23    22    21    2
    24     1     2   ar
    25     3     4   ar
    26     5     6   ar
    27    10    20   ar
    28    12    13   ar
    29    14    15   ar
    30    16    17   ar
    31    25    26   ar
    32    27    28   ar
    33    23    24    1
