@<TRIPOS>MOLECULE
MolPort-001-580-126 CSSS00121683590 LN01140996 MCULE-9787704706 PubChem-2950566
 31 33 0 0 0
SMALL
GASTEIGER

@<TRIPOS>ATOM
      1 C           9.1052   41.6888    6.7378 C.ar    1  UNL1        0.1403
      2 C           8.7719   40.5692    5.9594 C.ar    1  UNL1        0.0370
      3 C           9.7602   39.6580    5.5797 C.ar    1  UNL1        0.0044
      4 C          11.0845   39.8604    5.9752 C.ar    1  UNL1        0.0149
      5 C          11.4301   40.9755    6.7533 C.ar    1  UNL1        0.0536
      6 C          10.4337   41.8830    7.1290 C.ar    1  UNL1        0.0516
      7 C          13.5895   42.3599    6.8636 C.2     1  UNL1        0.2496
      8 O          13.1371   43.2895    6.1414 O.2     1  UNL1       -0.2698
      9 N          12.7781   41.2176    7.1780 N.am    1  UNL1       -0.2803
     10 H          13.1913   40.5272    7.7455 H       1  UNL1        0.1552
     11 C          14.9632   42.4460    7.3898 C.ar    1  UNL1        0.0567
     12 C          15.4453   41.4700    8.2732 C.ar    1  UNL1        0.0414
     13 C          16.7532   41.5451    8.7792 C.ar    1  UNL1        0.1389
     14 C          17.5779   42.6066    8.3943 C.ar    1  UNL1        0.0369
     15 C          17.1056   43.5837    7.5144 C.ar    1  UNL1        0.0033
     16 C          15.8033   43.5039    7.0142 C.ar    1  UNL1        0.0047
     17 C          16.4541   39.5340   10.1874 C.3     1  UNL1        0.2525
     18 O          17.2544   40.5834    9.6607 O.3     1  UNL1       -0.4714
     19 O           8.1409   42.6199    7.1328 O.3     1  UNL1       -0.4713
     20 C           8.0566   43.1251    8.4602 C.3     1  UNL1        0.2267
     21 C           7.2359   44.4010    8.4878 C.3     1  UNL1        0.0559
     22 C           7.4927   42.0922    9.3899 C.2     1  UNL1        0.2127
     23 O           8.2645   41.1864    9.8042 O.2     1  UNL1       -0.2875
     24 C           3.3984   42.1233   10.6995 C.ar    1  UNL1        0.1387
     25 C           3.7560   42.7465    9.5006 C.ar    1  UNL1        0.0370
     26 C           5.0856   42.7394    9.0708 C.ar    1  UNL1        0.0061
     27 C           6.0793   42.1078    9.8345 C.ar    1  UNL1        0.0385
     28 C           5.7172   41.4837   11.0372 C.ar    1  UNL1        0.0061
     29 C           4.3879   41.4905   11.4679 C.ar    1  UNL1        0.0370
     30 C           1.6620   42.4924   12.4219 C.3     1  UNL1        0.2525
     31 O           2.0603   42.1476   11.1022 O.3     1  UNL1       -0.4714
@<TRIPOS>BOND
     1    30    31    1
     2    24    31    1
     3    25    26   ar
     4    27    28   ar
     5    27    22    1
     6    29    24   ar
     7    20    22    1
     8    20    21    1
     9    20    19    1
    10     1    19    1
    11     2     3   ar
    12     4     5   ar
    13     5     9    1
    14     7    11    1
    15    12    13   ar
    16    13    18    1
    17    17    18    1
    18    14    15   ar
    19    16    11   ar
    20     6     1   ar
    21     9     7   am
    22    24    25   ar
    23    26    27   ar
    24    28    29   ar
    25    22    23    2
    26     1     2   ar
    27     3     4   ar
    28     5     6   ar
    29     7     8    2
    30    11    12   ar
    31    13    14   ar
    32    15    16   ar
    33     9    10    1
@<TRIPOS>MOLECULE
MolPort-001-580-126 CSSS00121683590 LN01140996 MCULE-9787704706 PubChem-2950566
 31 33 0 0 0
SMALL
GASTEIGER

@<TRIPOS>ATOM
      1 C           8.4727   41.0061    5.9234 C.ar    1  UNL1        0.1403
      2 C           8.4141   39.6540    5.5508 C.ar    1  UNL1        0.0370
      3 C           9.5801   38.9716    5.1963 C.ar    1  UNL1        0.0044
      4 C          10.8090   39.6355    5.2122 C.ar    1  UNL1        0.0149
      5 C          10.8806   40.9867    5.5829 C.ar    1  UNL1        0.0536
      6 C           9.7076   41.6624    5.9364 C.ar    1  UNL1        0.0516
      7 C          12.8713   42.0861    6.7749 C.2     1  UNL1        0.2496
      8 O          12.4539   41.7990    7.9298 O.2     1  UNL1       -0.2698
      9 N          12.1229   41.7024    5.6108 N.am    1  UNL1       -0.2803
     10 H          12.5032   41.9578    4.7394 H       1  UNL1        0.1552
     11 C          14.1380   42.8221    6.6177 C.ar    1  UNL1        0.0567
     12 C          15.2542   42.4844    7.3960 C.ar    1  UNL1        0.0414
     13 C          16.4651   43.1812    7.2522 C.ar    1  UNL1        0.1389
     14 C          16.5518   44.2214    6.3220 C.ar    1  UNL1        0.0369
     15 C          15.4443   44.5647    5.5423 C.ar    1  UNL1        0.0033
     16 C          14.2422   43.8680    5.6896 C.ar    1  UNL1        0.0047
     17 C          17.7340   41.6164    8.6869 C.3     1  UNL1        0.2525
     18 O          17.5900   42.8615    8.0173 O.3     1  UNL1       -0.4714
     19 O           7.3248   41.7179    6.2818 O.3     1  UNL1       -0.4713
     20 C           7.3743   42.9724    6.9513 C.3     1  UNL1        0.2267
     21 C           6.1204   43.7754    6.6600 C.3     1  UNL1        0.0559
     22 C           7.5722   42.7834    8.4258 C.2     1  UNL1        0.2127
     23 O           8.7318   42.9458    8.8916 O.2     1  UNL1       -0.2875
     24 C           4.3672   41.7267   11.0886 C.ar    1  UNL1        0.1387
     25 C           4.1009   42.4520    9.9237 C.ar    1  UNL1        0.0370
     26 C           5.1394   42.7981    9.0552 C.ar    1  UNL1        0.0061
     27 C           6.4618   42.4235    9.3386 C.ar    1  UNL1        0.0385
     28 C           6.7256   41.6961   10.5084 C.ar    1  UNL1        0.0061
     29 C           5.6879   41.3497   11.3777 C.ar    1  UNL1        0.0370
     30 C           2.1884   42.2489   12.1366 C.3     1  UNL1        0.2525
     31 O           3.3070   41.3956   11.9369 O.3     1  UNL1       -0.4714
@<TRIPOS>BOND
     1    30    31    1
     2    24    31    1
     3    25    26   ar
     4    27    28   ar
     5    27    22    1
     6    29    24   ar
     7    20    22    1
     8    20    21    1
     9    20    19    1
    10     1    19    1
    11     2     3   ar
    12     4     5   ar
    13     5     9    1
    14     7    11    1
    15    12    13   ar
    16    13    18    1
    17    17    18    1
    18    14    15   ar
    19    16    11   ar
    20     6     1   ar
    21     9     7   am
    22    24    25   ar
    23    26    27   ar
    24    28    29   ar
    25    22    23    2
    26     1     2   ar
    27     3     4   ar
    28     5     6   ar
    29     7     8    2
    30    11    12   ar
    31    13    14   ar
    32    15    16   ar
    33     9    10    1
@<TRIPOS>MOLECULE
MolPort-001-580-126 CSSS00121683590 LN01140996 MCULE-9787704706 PubChem-2950566
 31 33 0 0 0
SMALL
GASTEIGER

@<TRIPOS>ATOM
      1 C          12.1910   39.5371    9.1425 C.ar    1  UNL1        0.1403
      2 C          12.2643   40.1415   10.4073 C.ar    1  UNL1        0.0370
      3 C          13.1147   39.6222   11.3861 C.ar    1  UNL1        0.0044
      4 C          13.8952   38.4979   11.1067 C.ar    1  UNL1        0.0149
      5 C          13.8309   37.8850    9.8464 C.ar    1  UNL1        0.0536
      6 C          12.9763   38.4119    8.8720 C.ar    1  UNL1        0.0516
      7 C          16.0059   36.7043    9.1627 C.2     1  UNL1        0.2496
      8 O          16.6732   37.7728    9.1036 O.2     1  UNL1       -0.2698
      9 N          14.6158   36.7295    9.5222 N.am    1  UNL1       -0.2803
     10 H          14.1525   35.8613    9.5490 H       1  UNL1        0.1552
     11 C          16.6578   35.4180    8.8600 C.ar    1  UNL1        0.0567
     12 C          15.8934   34.3153    8.4534 C.ar    1  UNL1        0.0414
     13 C          16.5072   33.0859    8.1633 C.ar    1  UNL1        0.1389
     14 C          17.8951   32.9668    8.2834 C.ar    1  UNL1        0.0369
     15 C          18.6647   34.0605    8.6881 C.ar    1  UNL1        0.0033
     16 C          18.0485   35.2813    8.9754 C.ar    1  UNL1        0.0047
     17 C          14.5747   31.5631    8.4149 C.3     1  UNL1        0.2525
     18 O          15.7649   31.9741    7.7563 O.3     1  UNL1       -0.4714
     19 O          11.3493   40.0308    8.1421 O.3     1  UNL1       -0.4713
     20 C          11.7497   40.1343    6.7807 C.3     1  UNL1        0.2267
     21 C          10.7399   39.4477    5.8803 C.3     1  UNL1        0.0559
     22 C          11.9448   41.5688    6.3890 C.2     1  UNL1        0.2127
     23 O          10.9619   42.1858    5.8979 O.2     1  UNL1       -0.2875
     24 C          15.6983   43.5965    6.9169 C.ar    1  UNL1        0.1387
     25 C          14.7283   44.1278    6.0620 C.ar    1  UNL1        0.0370
     26 C          13.5068   43.4721    5.8869 C.ar    1  UNL1        0.0061
     27 C          13.2362   42.2737    6.5651 C.ar    1  UNL1        0.0385
     28 C          14.2117   41.7432    7.4218 C.ar    1  UNL1        0.0061
     29 C          15.4337   42.3979    7.5975 C.ar    1  UNL1        0.0370
     30 C          17.9081   43.8650    7.9952 C.3     1  UNL1        0.2525
     31 O          16.9099   44.2759    7.0710 O.3     1  UNL1       -0.4714
@<TRIPOS>BOND
     1    30    31    1
     2    24    31    1
     3    25    26   ar
     4    27    28   ar
     5    27    22    1
     6    29    24   ar
     7    20    22    1
     8    20    21    1
     9    20    19    1
    10     1    19    1
    11     2     3   ar
    12     4     5   ar
    13     5     9    1
    14     7    11    1
    15    12    13   ar
    16    13    18    1
    17    17    18    1
    18    14    15   ar
    19    16    11   ar
    20     6     1   ar
    21     9     7   am
    22    24    25   ar
    23    26    27   ar
    24    28    29   ar
    25    22    23    2
    26     1     2   ar
    27     3     4   ar
    28     5     6   ar
    29     7     8    2
    30    11    12   ar
    31    13    14   ar
    32    15    16   ar
    33     9    10    1
@<TRIPOS>MOLECULE
MolPort-001-580-126 CSSS00121683590 LN01140996 MCULE-9787704706 PubChem-2950566
 31 33 0 0 0
SMALL
GASTEIGER

@<TRIPOS>ATOM
      1 C          10.8852   41.3289    9.4338 C.ar    1  UNL1        0.1403
      2 C          11.4506   42.5883    9.6883 C.ar    1  UNL1        0.0370
      3 C          10.6506   43.6384   10.1448 C.ar    1  UNL1        0.0044
      4 C           9.2836   43.4360   10.3490 C.ar    1  UNL1        0.0149
      5 C           8.7069   42.1819   10.0982 C.ar    1  UNL1        0.0536
      6 C           9.5157   41.1358    9.6412 C.ar    1  UNL1        0.0516
      7 C           6.2279   42.3808    9.4601 C.2     1  UNL1        0.2496
      8 O           6.4560   43.0669    8.4268 O.2     1  UNL1       -0.2698
      9 N           7.3080   41.9356   10.2952 N.am    1  UNL1       -0.2803
     10 H           7.0620   41.4049   11.0871 H       1  UNL1        0.1552
     11 C           4.8407   42.0328    9.8145 C.ar    1  UNL1        0.0567
     12 C           4.3504   42.2995   11.1007 C.ar    1  UNL1        0.0414
     13 C           3.0295   41.9706   11.4462 C.ar    1  UNL1        0.1389
     14 C           2.2001   41.3711   10.4936 C.ar    1  UNL1        0.0369
     15 C           2.6804   41.1016    9.2095 C.ar    1  UNL1        0.0033
     16 C           3.9956   41.4310    8.8713 C.ar    1  UNL1        0.0047
     17 C           1.1572   42.5575   12.9518 C.3     1  UNL1        0.2525
     18 O           2.5201   42.2275   12.7219 O.3     1  UNL1       -0.4714
     19 O          11.6573   40.2583    8.9750 O.3     1  UNL1       -0.4713
     20 C          12.6343   39.6118    9.7824 C.3     1  UNL1        0.2267
     21 C          12.1278   38.2566   10.2395 C.3     1  UNL1        0.0559
     22 C          13.9370   39.4896    9.0495 C.2     1  UNL1        0.2127
     23 O          14.4043   38.3340    8.8643 O.2     1  UNL1       -0.2875
     24 C          16.1021   42.9018    7.5837 C.ar    1  UNL1        0.1387
     25 C          14.8247   42.6178    7.0925 C.ar    1  UNL1        0.0370
     26 C          14.1170   41.5096    7.5657 C.ar    1  UNL1        0.0061
     27 C          14.6768   40.6675    8.5387 C.ar    1  UNL1        0.0385
     28 C          15.9589   40.9550    9.0292 C.ar    1  UNL1        0.0061
     29 C          16.6675   42.0628    8.5566 C.ar    1  UNL1        0.0370
     30 C          17.4615   44.0130    5.8415 C.3     1  UNL1        0.2525
     31 O          16.7843   44.0175    7.0907 O.3     1  UNL1       -0.4714
@<TRIPOS>BOND
     1    30    31    1
     2    24    31    1
     3    25    26   ar
     4    27    28   ar
     5    27    22    1
     6    29    24   ar
     7    20    22    1
     8    20    21    1
     9    20    19    1
    10     1    19    1
    11     2     3   ar
    12     4     5   ar
    13     5     9    1
    14     7    11    1
    15    12    13   ar
    16    13    18    1
    17    17    18    1
    18    14    15   ar
    19    16    11   ar
    20     6     1   ar
    21     9     7   am
    22    24    25   ar
    23    26    27   ar
    24    28    29   ar
    25    22    23    2
    26     1     2   ar
    27     3     4   ar
    28     5     6   ar
    29     7     8    2
    30    11    12   ar
    31    13    14   ar
    32    15    16   ar
    33     9    10    1
@<TRIPOS>MOLECULE
MolPort-001-580-126 CSSS00121683590 LN01140996 MCULE-9787704706 PubChem-2950566
 31 33 0 0 0
SMALL
GASTEIGER

@<TRIPOS>ATOM
      1 C           8.4783   40.7558    5.8431 C.ar    1  UNL1        0.1403
      2 C           8.4999   39.4402    5.3541 C.ar    1  UNL1        0.0370
      3 C           9.7015   38.8678    4.9302 C.ar    1  UNL1        0.0044
      4 C          10.8858   39.6059    4.9924 C.ar    1  UNL1        0.0149
      5 C          10.8770   40.9217    5.4791 C.ar    1  UNL1        0.0536
      6 C           9.6690   41.4870    5.9016 C.ar    1  UNL1        0.0516
      7 C          12.8017   42.0548    6.7457 C.2     1  UNL1        0.2496
      8 O          12.4107   41.6575    7.8770 O.2     1  UNL1       -0.2698
      9 N          12.0717   41.7109    5.5577 N.am    1  UNL1       -0.2803
     10 H          12.4295   42.0535    4.7069 H       1  UNL1        0.1552
     11 C          14.0182   42.8795    6.6411 C.ar    1  UNL1        0.0567
     12 C          15.1486   42.5745    7.4123 C.ar    1  UNL1        0.0414
     13 C          16.3119   43.3558    7.3185 C.ar    1  UNL1        0.1389
     14 C          16.3365   44.4477    6.4455 C.ar    1  UNL1        0.0369
     15 C          15.2144   44.7589    5.6733 C.ar    1  UNL1        0.0033
     16 C          14.0598   43.9780    5.7708 C.ar    1  UNL1        0.0047
     17 C          17.7598   41.7600    8.5325 C.3     1  UNL1        0.2525
     18 O          17.4499   43.0700    8.0775 O.3     1  UNL1       -0.4714
     19 O           7.2929   41.3582    6.2733 O.3     1  UNL1       -0.4713
     20 C           7.2726   42.4736    7.1564 C.3     1  UNL1        0.2267
     21 C           6.5250   43.6329    6.5246 C.3     1  UNL1        0.0559
     22 C           6.6774   42.0959    8.4802 C.2     1  UNL1        0.2127
     23 O           5.4240   41.9902    8.5555 O.2     1  UNL1       -0.2875
     24 C           9.1015   41.3580   11.9527 C.ar    1  UNL1        0.1387
     25 C           7.7075   41.3390   12.0536 C.ar    1  UNL1        0.0370
     26 C           6.9152   41.5786   10.9277 C.ar    1  UNL1        0.0061
     27 C           7.5058   41.8410    9.6820 C.ar    1  UNL1        0.0385
     28 C           8.9048   41.8597    9.5843 C.ar    1  UNL1        0.0061
     29 C           9.6979   41.6205   10.7095 C.ar    1  UNL1        0.0370
     30 C           9.3185   41.1471   14.4076 C.3     1  UNL1        0.2525
     31 O           9.8663   41.1145   13.0968 O.3     1  UNL1       -0.4714
@<TRIPOS>BOND
     1    30    31    1
     2    24    31    1
     3    25    26   ar
     4    27    28   ar
     5    27    22    1
     6    29    24   ar
     7    20    22    1
     8    20    21    1
     9    20    19    1
    10     1    19    1
    11     2     3   ar
    12     4     5   ar
    13     5     9    1
    14     7    11    1
    15    12    13   ar
    16    13    18    1
    17    17    18    1
    18    14    15   ar
    19    16    11   ar
    20     6     1   ar
    21     9     7   am
    22    24    25   ar
    23    26    27   ar
    24    28    29   ar
    25    22    23    2
    26     1     2   ar
    27     3     4   ar
    28     5     6   ar
    29     7     8    2
    30    11    12   ar
    31    13    14   ar
    32    15    16   ar
    33     9    10    1
@<TRIPOS>MOLECULE
MolPort-001-580-126 CSSS00121683590 LN01140996 MCULE-9787704706 PubChem-2950566
 31 33 0 0 0
SMALL
GASTEIGER

@<TRIPOS>ATOM
      1 C          10.8787   41.3416    9.1478 C.ar    1  UNL1        0.1403
      2 C          11.5169   42.5146    9.5804 C.ar    1  UNL1        0.0370
      3 C          10.7632   43.5908   10.0545 C.ar    1  UNL1        0.0044
      4 C           9.3699   43.5007   10.0988 C.ar    1  UNL1        0.0149
      5 C           8.7204   42.3337    9.6694 C.ar    1  UNL1        0.0536
      6 C           9.4833   41.2607    9.1960 C.ar    1  UNL1        0.0516
      7 C           6.4960   41.6854   10.7756 C.2     1  UNL1        0.2496
      8 O           7.0393   41.2813   11.8396 O.2     1  UNL1       -0.2698
      9 N           7.2926   42.2037    9.6991 N.am    1  UNL1       -0.2803
     10 H           6.8070   42.5014    8.8961 H       1  UNL1        0.1552
     11 C           5.0304   41.6252   10.6350 C.ar    1  UNL1        0.0567
     12 C           4.2012   42.1577   11.6322 C.ar    1  UNL1        0.0414
     13 C           2.8035   42.1041   11.5057 C.ar    1  UNL1        0.1389
     14 C           2.2395   41.5120   10.3715 C.ar    1  UNL1        0.0369
     15 C           3.0584   40.9788    9.3729 C.ar    1  UNL1        0.0033
     16 C           4.4484   41.0350    9.5042 C.ar    1  UNL1        0.0047
     17 C           0.6661   42.0987   12.7500 C.3     1  UNL1        0.2525
     18 O           1.9581   42.6285   12.4871 O.3     1  UNL1       -0.4714
     19 O          11.6033   40.2480    8.6665 O.3     1  UNL1       -0.4713
     20 C          11.7442   39.9684    7.2785 C.3     1  UNL1        0.2267
     21 C          10.5199   39.2368    6.7609 C.3     1  UNL1        0.0559
     22 C          11.9973   41.2270    6.5032 C.2     1  UNL1        0.2127
     23 O          11.1170   41.6028    5.6835 O.2     1  UNL1       -0.2875
     24 C          15.5612   43.5828    6.9810 C.ar    1  UNL1        0.1387
     25 C          15.4359   42.3582    7.6432 C.ar    1  UNL1        0.0370
     26 C          14.2792   41.5889    7.4913 C.ar    1  UNL1        0.0061
     27 C          13.2288   42.0332    6.6736 C.ar    1  UNL1        0.0385
     28 C          13.3575   43.2625    6.0109 C.ar    1  UNL1        0.0061
     29 C          14.5136   44.0326    6.1623 C.ar    1  UNL1        0.0370
     30 C          17.9180   43.7781    7.7059 C.3     1  UNL1        0.2525
     31 O          16.7303   44.3289    7.1531 O.3     1  UNL1       -0.4714
@<TRIPOS>BOND
     1    30    31    1
     2    24    31    1
     3    25    26   ar
     4    27    28   ar
     5    27    22    1
     6    29    24   ar
     7    20    22    1
     8    20    21    1
     9    20    19    1
    10     1    19    1
    11     2     3   ar
    12     4     5   ar
    13     5     9    1
    14     7    11    1
    15    12    13   ar
    16    13    18    1
    17    17    18    1
    18    14    15   ar
    19    16    11   ar
    20     6     1   ar
    21     9     7   am
    22    24    25   ar
    23    26    27   ar
    24    28    29   ar
    25    22    23    2
    26     1     2   ar
    27     3     4   ar
    28     5     6   ar
    29     7     8    2
    30    11    12   ar
    31    13    14   ar
    32    15    16   ar
    33     9    10    1
@<TRIPOS>MOLECULE
MolPort-001-580-126 CSSS00121683590 LN01140996 MCULE-9787704706 PubChem-2950566
 31 33 0 0 0
SMALL
GASTEIGER

@<TRIPOS>ATOM
      1 C          11.0768   38.3214    9.0668 C.ar    1  UNL1        0.1403
      2 C          11.3087   37.2203    9.9059 C.ar    1  UNL1        0.0370
      3 C          12.5607   37.0393   10.4980 C.ar    1  UNL1        0.0044
      4 C          13.5862   37.9561   10.2551 C.ar    1  UNL1        0.0149
      5 C          13.3668   39.0607    9.4183 C.ar    1  UNL1        0.0536
      6 C          12.1096   39.2341    8.8295 C.ar    1  UNL1        0.0516
      7 C          14.3634   41.0584    8.1503 C.2     1  UNL1        0.2496
      8 O          13.3597   41.1979    7.3996 O.2     1  UNL1       -0.2698
      9 N          14.3944   40.0227    9.1445 N.am    1  UNL1       -0.2803
     10 H          15.2075   39.9673    9.6969 H       1  UNL1        0.1552
     11 C          15.5153   41.9659    8.0062 C.ar    1  UNL1        0.0567
     12 C          15.4378   43.0790    7.1574 C.ar    1  UNL1        0.0414
     13 C          16.5313   43.9486    7.0146 C.ar    1  UNL1        0.1389
     14 C          17.7066   43.6958    7.7286 C.ar    1  UNL1        0.0369
     15 C          17.7927   42.5887    8.5765 C.ar    1  UNL1        0.0033
     16 C          16.7015   41.7270    8.7147 C.ar    1  UNL1        0.0047
     17 C          15.2701   45.5098    5.5694 C.3     1  UNL1        0.2525
     18 O          16.4760   45.0639    6.1745 O.3     1  UNL1       -0.4714
     19 O           9.8365   38.5303    8.4578 O.3     1  UNL1       -0.4713
     20 C           9.6866   39.2638    7.2479 C.3     1  UNL1        0.2267
     21 C           8.7056   38.5647    6.3254 C.3     1  UNL1        0.0559
     22 C           9.2632   40.6750    7.5278 C.2     1  UNL1        0.2127
     23 O           9.8903   41.6048    6.9532 O.2     1  UNL1       -0.2875
     24 C           5.9972   41.6269   10.1559 C.ar    1  UNL1        0.1387
     25 C           7.3121   41.6656   10.6287 C.ar    1  UNL1        0.0370
     26 C           8.3770   41.3568    9.7783 C.ar    1  UNL1        0.0061
     27 C           8.1430   41.0041    8.4403 C.ar    1  UNL1        0.0385
     28 C           6.8226   40.9659    7.9692 C.ar    1  UNL1        0.0061
     29 C           5.7569   41.2744    8.8187 C.ar    1  UNL1        0.0370
     30 C           4.0691   40.9602   11.5544 C.3     1  UNL1        0.2525
     31 O           4.9538   41.9413   11.0309 O.3     1  UNL1       -0.4714
@<TRIPOS>BOND
     1    30    31    1
     2    24    31    1
     3    25    26   ar
     4    27    28   ar
     5    27    22    1
     6    29    24   ar
     7    20    22    1
     8    20    21    1
     9    20    19    1
    10     1    19    1
    11     2     3   ar
    12     4     5   ar
    13     5     9    1
    14     7    11    1
    15    12    13   ar
    16    13    18    1
    17    17    18    1
    18    14    15   ar
    19    16    11   ar
    20     6     1   ar
    21     9     7   am
    22    24    25   ar
    23    26    27   ar
    24    28    29   ar
    25    22    23    2
    26     1     2   ar
    27     3     4   ar
    28     5     6   ar
    29     7     8    2
    30    11    12   ar
    31    13    14   ar
    32    15    16   ar
    33     9    10    1
@<TRIPOS>MOLECULE
MolPort-001-580-126 CSSS00121683590 LN01140996 MCULE-9787704706 PubChem-2950566
 31 33 0 0 0
SMALL
GASTEIGER

@<TRIPOS>ATOM
      1 C          14.1519   40.7720    8.4972 C.ar    1  UNL1        0.1403
      2 C          14.8915   41.7204    7.7734 C.ar    1  UNL1        0.0370
      3 C          14.2380   42.7470    7.0880 C.ar    1  UNL1        0.0044
      4 C          12.8440   42.8313    7.1221 C.ar    1  UNL1        0.0149
      5 C          12.0938   41.8895    7.8420 C.ar    1  UNL1        0.0536
      6 C          12.7568   40.8645    8.5255 C.ar    1  UNL1        0.0516
      7 C           9.8627   42.5793    8.9090 C.2     1  UNL1        0.2496
      8 O          10.4071   43.1744    9.8785 O.2     1  UNL1       -0.2698
      9 N          10.6619   41.9425    7.9001 N.am    1  UNL1       -0.2803
     10 H          10.1751   41.4947    7.1709 H       1  UNL1        0.1552
     11 C           8.3931   42.5364    8.8101 C.ar    1  UNL1        0.0567
     12 C           7.6613   43.7179    8.6257 C.ar    1  UNL1        0.0414
     13 C           6.2605   43.6854    8.5306 C.ar    1  UNL1        0.1389
     14 C           5.5949   42.4592    8.6219 C.ar    1  UNL1        0.0369
     15 C           6.3163   41.2769    8.8058 C.ar    1  UNL1        0.0033
     16 C           7.7099   41.3153    8.8997 C.ar    1  UNL1        0.0047
     17 C           4.1776   44.8358    7.8560 C.3     1  UNL1        0.2525
     18 O           5.5111   44.8505    8.3466 O.3     1  UNL1       -0.4714
     19 O          14.7749   39.7318    9.1921 O.3     1  UNL1       -0.4713
     20 C          14.7231   39.6128   10.6089 C.3     1  UNL1        0.2267
     21 C          13.2940   39.7558   11.0982 C.3     1  UNL1        0.0559
     22 C          15.3276   38.3161   11.0585 C.2     1  UNL1        0.2127
     23 O          15.8031   38.2589   12.2241 O.2     1  UNL1       -0.2875
     24 C          15.4452   34.8307    8.5450 C.ar    1  UNL1        0.1387
     25 C          16.5754   35.6436    8.6701 C.ar    1  UNL1        0.0370
     26 C          16.5420   36.7779    9.4857 C.ar    1  UNL1        0.0061
     27 C          15.3763   37.1167   10.1897 C.ar    1  UNL1        0.0385
     28 C          14.2439   36.2991   10.0618 C.ar    1  UNL1        0.0061
     29 C          14.2762   35.1648    9.2463 C.ar    1  UNL1        0.0370
     30 C          16.4084   33.6043    6.6250 C.3     1  UNL1        0.2525
     31 O          15.5102   33.7032    7.7218 O.3     1  UNL1       -0.4714
@<TRIPOS>BOND
     1    30    31    1
     2    24    31    1
     3    25    26   ar
     4    27    28   ar
     5    27    22    1
     6    29    24   ar
     7    20    22    1
     8    20    21    1
     9    20    19    1
    10     1    19    1
    11     2     3   ar
    12     4     5   ar
    13     5     9    1
    14     7    11    1
    15    12    13   ar
    16    13    18    1
    17    17    18    1
    18    14    15   ar
    19    16    11   ar
    20     6     1   ar
    21     9     7   am
    22    24    25   ar
    23    26    27   ar
    24    28    29   ar
    25    22    23    2
    26     1     2   ar
    27     3     4   ar
    28     5     6   ar
    29     7     8    2
    30    11    12   ar
    31    13    14   ar
    32    15    16   ar
    33     9    10    1
@<TRIPOS>MOLECULE
MolPort-001-580-126 CSSS00121683590 LN01140996 MCULE-9787704706 PubChem-2950566
 31 33 0 0 0
SMALL
GASTEIGER

@<TRIPOS>ATOM
      1 C           9.2505   40.2729    7.0274 C.ar    1  UNL1        0.1403
      2 C           8.7620   39.6163    5.8870 C.ar    1  UNL1        0.0370
      3 C           9.4721   39.6723    4.6855 C.ar    1  UNL1        0.0044
      4 C          10.6723   40.3838    4.6173 C.ar    1  UNL1        0.0149
      5 C          11.1709   41.0442    5.7502 C.ar    1  UNL1        0.0536
      6 C          10.4530   40.9827    6.9494 C.ar    1  UNL1        0.0516
      7 C          12.9978   42.5067    6.8065 C.2     1  UNL1        0.2496
      8 O          12.4432   42.5391    7.9387 O.2     1  UNL1       -0.2698
      9 N          12.3985   41.7849    5.7193 N.am    1  UNL1       -0.2803
     10 H          12.8817   41.8001    4.8617 H       1  UNL1        0.1552
     11 C          14.2721   43.2160    6.5965 C.ar    1  UNL1        0.0567
     12 C          15.4537   42.7361    7.1788 C.ar    1  UNL1        0.0414
     13 C          16.6722   43.4065    6.9835 C.ar    1  UNL1        0.1389
     14 C          16.7005   44.5639    6.1996 C.ar    1  UNL1        0.0369
     15 C          15.5277   45.0493    5.6156 C.ar    1  UNL1        0.0033
     16 C          14.3183   44.3781    5.8133 C.ar    1  UNL1        0.0047
     17 C          17.9057   41.8493    8.4568 C.3     1  UNL1        0.2525
     18 O          17.8618   42.9460    7.5542 O.3     1  UNL1       -0.4714
     19 O           8.5635   40.2379    8.2438 O.3     1  UNL1       -0.4713
     20 C           8.6464   41.2835    9.2052 C.3     1  UNL1        0.2267
     21 C           7.2614   41.8093    9.5332 C.3     1  UNL1        0.0559
     22 C           9.3611   40.8190   10.4392 C.2     1  UNL1        0.2127
     23 O           8.8331   41.0671   11.5561 O.2     1  UNL1       -0.2875
     24 C          13.0766   38.6631   10.2757 C.ar    1  UNL1        0.1387
     25 C          13.0485   39.9771   10.7516 C.ar    1  UNL1        0.0370
     26 C          11.8432   40.6821   10.8064 C.ar    1  UNL1        0.0061
     27 C          10.6460   40.0829   10.3857 C.ar    1  UNL1        0.0385
     28 C          10.6777   38.7645    9.9083 C.ar    1  UNL1        0.0061
     29 C          11.8824   38.0587    9.8529 C.ar    1  UNL1        0.0370
     30 C          15.4208   38.4697    9.5106 C.3     1  UNL1        0.2525
     31 O          14.2976   37.9845   10.2334 O.3     1  UNL1       -0.4714
@<TRIPOS>BOND
     1    30    31    1
     2    24    31    1
     3    25    26   ar
     4    27    28   ar
     5    27    22    1
     6    29    24   ar
     7    20    22    1
     8    20    21    1
     9    20    19    1
    10     1    19    1
    11     2     3   ar
    12     4     5   ar
    13     5     9    1
    14     7    11    1
    15    12    13   ar
    16    13    18    1
    17    17    18    1
    18    14    15   ar
    19    16    11   ar
    20     6     1   ar
    21     9     7   am
    22    24    25   ar
    23    26    27   ar
    24    28    29   ar
    25    22    23    2
    26     1     2   ar
    27     3     4   ar
    28     5     6   ar
    29     7     8    2
    30    11    12   ar
    31    13    14   ar
    32    15    16   ar
    33     9    10    1
@<TRIPOS>MOLECULE
MolPort-001-580-126 CSSS00121683590 LN01140996 MCULE-9787704706 PubChem-2950566
 31 33 0 0 0
SMALL
GASTEIGER

@<TRIPOS>ATOM
      1 C           9.3768   39.7355    6.4857 C.ar    1  UNL1        0.1403
      2 C           8.9448   39.2073    5.2590 C.ar    1  UNL1        0.0370
      3 C           9.6637   39.4669    4.0900 C.ar    1  UNL1        0.0044
      4 C          10.8163   40.2545    4.1403 C.ar    1  UNL1        0.0149
      5 C          11.2582   40.7880    5.3603 C.ar    1  UNL1        0.0536
      6 C          10.5319   40.5229    6.5263 C.ar    1  UNL1        0.0516
      7 C          12.8648   42.3729    6.5847 C.2     1  UNL1        0.2496
      8 O          12.1848   42.3871    7.6467 O.2     1  UNL1       -0.2698
      9 N          12.4358   41.6012    5.4521 N.am    1  UNL1       -0.2803
     10 H          13.0112   41.6339    4.6540 H       1  UNL1        0.1552
     11 C          14.1110   43.1551    6.5044 C.ar    1  UNL1        0.0567
     12 C          15.2775   42.6945    7.1310 C.ar    1  UNL1        0.0414
     13 C          16.4691   43.4344    7.0592 C.ar    1  UNL1        0.1389
     14 C          16.4856   44.6419    6.3545 C.ar    1  UNL1        0.0369
     15 C          15.3276   45.1085    5.7271 C.ar    1  UNL1        0.0033
     16 C          14.1449   44.3681    5.8019 C.ar    1  UNL1        0.0047
     17 C          17.6704   41.9005    8.5827 C.3     1  UNL1        0.2525
     18 O          17.6433   42.9943    7.6759 O.3     1  UNL1       -0.4714
     19 O           8.6794   39.4961    7.6729 O.3     1  UNL1       -0.4713
     20 C           9.2269   39.7730    8.9566 C.3     1  UNL1        0.2267
     21 C          10.7026   39.4216    8.9877 C.3     1  UNL1        0.0559
     22 C           8.9980   41.2055    9.3372 C.2     1  UNL1        0.2127
     23 O           9.9604   41.8434    9.8419 O.2     1  UNL1       -0.2875
     24 C           5.2130   43.1625    8.7688 C.ar    1  UNL1        0.1387
     25 C           6.2999   43.4870    7.9521 C.ar    1  UNL1        0.0370
     26 C           7.5324   42.8538    8.1332 C.ar    1  UNL1        0.0061
     27 C           7.6968   41.8850    9.1350 C.ar    1  UNL1        0.0385
     28 C           6.6043   41.5619    9.9530 C.ar    1  UNL1        0.0061
     29 C           5.3715   42.1946    9.7729 C.ar    1  UNL1        0.0370
     30 C           3.8669   44.9633    7.7378 C.3     1  UNL1        0.2525
     31 O           3.9934   43.8132    8.5627 O.3     1  UNL1       -0.4714
@<TRIPOS>BOND
     1    30    31    1
     2    24    31    1
     3    25    26   ar
     4    27    28   ar
     5    27    22    1
     6    29    24   ar
     7    20    22    1
     8    20    21    1
     9    20    19    1
    10     1    19    1
    11     2     3   ar
    12     4     5   ar
    13     5     9    1
    14     7    11    1
    15    12    13   ar
    16    13    18    1
    17    17    18    1
    18    14    15   ar
    19    16    11   ar
    20     6     1   ar
    21     9     7   am
    22    24    25   ar
    23    26    27   ar
    24    28    29   ar
    25    22    23    2
    26     1     2   ar
    27     3     4   ar
    28     5     6   ar
    29     7     8    2
    30    11    12   ar
    31    13    14   ar
    32    15    16   ar
    33     9    10    1
