@<TRIPOS>MOLECULE
Molport-020-275-227 MCULE-3494478915 PubChem-110252904
 24 26 0 0 0
SMALL
GASTEIGER

@<TRIPOS>ATOM
      1 C          11.9243   39.8539    8.0324 C.ar    1  UNL1        0.0805
      2 C          10.7354   39.3060    7.5351 C.ar    1  UNL1        0.1137
      3 C          10.6147   41.0310    5.9197 C.ar    1  UNL1        0.1332
      4 C          11.8033   41.5854    6.4116 C.ar    1  UNL1        0.1533
      5 N          10.1087   39.9070    6.4908 N.ar    1  UNL1       -0.2382
      6 N          12.4259   40.9789    7.4572 N.ar    1  UNL1       -0.2316
      7 C          14.8670   39.0361   11.0327 C.3     1  UNL1        0.0954
      8 C          13.4895   39.5147   11.4952 C.3     1  UNL1        0.0196
      9 C          12.7694   40.2005   10.3475 C.3     1  UNL1        0.0089
     10 C          12.6502   39.2299    9.1810 C.3     1  UNL1        0.0596
     11 C          14.0370   38.7384    8.7524 C.3     1  UNL1        0.1013
     12 N          14.7991   38.1471    9.8627 N.3     1  UNL1       -0.1590
     13 C          12.4587   36.4757    9.8401 C.3     1  UNL1        0.1960
     14 S          14.1750   36.5776   10.2941 S.O2    1  UNL1        0.0457
     15 O          14.3062   36.3352   11.7722 O.2     1  UNL1       -0.1572
     16 O          14.9348   35.5157    9.5503 O.2     1  UNL1       -0.1572
     17 N          12.3836   42.7705    5.8485 N.pl3   1  UNL1       -0.2667
     18 H          11.8238   43.2685    5.2097 H       1  UNL1        0.1565
     19 C          13.6852   43.3132    6.1091 C.ar    1  UNL1        0.2218
     20 C          15.2182   45.0975    5.8486 C.ar    1  UNL1        0.1034
     21 C          16.1750   44.4000    6.5835 C.ar    1  UNL1        0.0414
     22 C          15.8412   43.1387    7.0727 C.ar    1  UNL1        0.1034
     23 N          13.9972   44.5450    5.6256 N.ar    1  UNL1       -0.2120
     24 N          14.6097   42.6200    6.8287 N.ar    1  UNL1       -0.2120
@<TRIPOS>BOND
     1    13    14    1
     2     7    12    1
     3     7     8    1
     4     8     9    1
     5     9    10    1
     6    10    11    1
     7    10     1    1
     8    11    12    1
     9     1     6   ar
    10     2     5   ar
    11     3     4   ar
    12     4    17    1
    13    19    24   ar
    14    20    23   ar
    15    21    22   ar
    16    14    12    1
    17    17    19    1
    18     1     2   ar
    19     3     5   ar
    20     4     6   ar
    21    19    23   ar
    22    20    21   ar
    23    22    24   ar
    24    14    15    2
    25    14    16    2
    26    17    18    1
@<TRIPOS>MOLECULE
Molport-020-275-227 MCULE-3494478915 PubChem-110252904
 24 26 0 0 0
SMALL
GASTEIGER

@<TRIPOS>ATOM
      1 C          13.3425   39.9953   10.1544 C.ar    1  UNL1        0.0805
      2 C          13.5423   39.0336   11.1525 C.ar    1  UNL1        0.1137
      3 C          15.8830   39.2020   10.8481 C.ar    1  UNL1        0.1332
      4 C          15.6915   40.1644    9.8483 C.ar    1  UNL1        0.1533
      5 N          14.8072   38.6597   11.4760 N.ar    1  UNL1       -0.2382
      6 N          14.4226   40.5344    9.5292 N.ar    1  UNL1       -0.2316
      7 C           9.9595   41.1944    7.8205 C.3     1  UNL1        0.0954
      8 C           9.8744   39.8634    8.5699 C.3     1  UNL1        0.0196
      9 C          11.2701   39.3793    8.9217 C.3     1  UNL1        0.0089
     10 C          11.9695   40.4385    9.7618 C.3     1  UNL1        0.0596
     11 C          12.0176   41.7715    9.0073 C.3     1  UNL1        0.1013
     12 N          10.6885   42.2272    8.5727 N.3     1  UNL1       -0.1590
     13 C           9.6383   41.5475   11.1623 C.3     1  UNL1        0.1960
     14 S           9.7487   42.8137    9.9186 S.O2    1  UNL1        0.0457
     15 O           8.3612   43.1925    9.4804 O.2     1  UNL1       -0.1572
     16 O          10.4242   44.0169   10.5137 O.2     1  UNL1       -0.1572
     17 N          16.7894   40.7706    9.1516 N.pl3   1  UNL1       -0.2667
     18 H          17.6528   40.3007    9.2061 H       1  UNL1        0.1565
     19 C          16.7736   41.9824    8.3849 C.ar    1  UNL1        0.2218
     20 C          15.6600   43.3702    6.8243 C.ar    1  UNL1        0.1034
     21 C          16.6970   44.2989    6.8904 C.ar    1  UNL1        0.0414
     22 C          17.7741   44.0269    7.7315 C.ar    1  UNL1        0.1034
     23 N          15.7163   42.2350    7.5684 N.ar    1  UNL1       -0.2120
     24 N          17.7940   42.8804    8.4599 N.ar    1  UNL1       -0.2120
@<TRIPOS>BOND
     1    13    14    1
     2     7    12    1
     3     7     8    1
     4     8     9    1
     5     9    10    1
     6    10    11    1
     7    10     1    1
     8    11    12    1
     9     1     6   ar
    10     2     5   ar
    11     3     4   ar
    12     4    17    1
    13    19    24   ar
    14    20    23   ar
    15    21    22   ar
    16    14    12    1
    17    17    19    1
    18     1     2   ar
    19     3     5   ar
    20     4     6   ar
    21    19    23   ar
    22    20    21   ar
    23    22    24   ar
    24    14    15    2
    25    14    16    2
    26    17    18    1
@<TRIPOS>MOLECULE
Molport-020-275-227 MCULE-3494478915 PubChem-110252904
 24 26 0 0 0
SMALL
GASTEIGER

@<TRIPOS>ATOM
      1 C           9.7308   41.5944    8.0548 C.ar    1  UNL1        0.0805
      2 C          10.2105   40.8036    9.1062 C.ar    1  UNL1        0.1137
      3 C          12.3844   40.8813    8.1745 C.ar    1  UNL1        0.1332
      4 C          11.9122   41.6723    7.1192 C.ar    1  UNL1        0.1533
      5 N          11.5254   40.4657    9.1416 N.ar    1  UNL1       -0.2382
      6 N          10.5947   42.0071    7.0897 N.ar    1  UNL1       -0.2316
      7 C           6.1649   43.9239    7.6209 C.3     1  UNL1        0.0954
      8 C           6.4741   42.8838    6.5423 C.3     1  UNL1        0.0196
      9 C           7.9475   42.5186    6.5852 C.3     1  UNL1        0.0089
     10 C           8.2917   41.9913    7.9709 C.3     1  UNL1        0.0596
     11 C           7.9465   43.0344    9.0393 C.3     1  UNL1        0.1013
     12 N           6.5459   43.4777    8.9698 N.3     1  UNL1       -0.1590
     13 C           6.1172   41.5476   11.0584 C.3     1  UNL1        0.1960
     14 S           5.4620   42.2467    9.5604 S.O2    1  UNL1        0.0457
     15 O           5.2873   41.1524    8.5443 O.2     1  UNL1       -0.1572
     16 O           4.1235   42.8608    9.8597 O.2     1  UNL1       -0.1572
     17 N          12.7728   42.1394    6.0706 N.pl3   1  UNL1       -0.2667
     18 H          12.5545   41.8354    5.1600 H       1  UNL1        0.1565
     19 C          13.9143   42.9983    6.1965 C.ar    1  UNL1        0.2218
     20 C          14.9359   45.0809    5.7267 C.ar    1  UNL1        0.1034
     21 C          16.0842   44.6868    6.4109 C.ar    1  UNL1        0.0414
     22 C          16.1078   43.4170    6.9843 C.ar    1  UNL1        0.1034
     23 N          13.8773   44.2346    5.6321 N.ar    1  UNL1       -0.2120
     24 N          15.0292   42.5994    6.8681 N.ar    1  UNL1       -0.2120
@<TRIPOS>BOND
     1    13    14    1
     2     7    12    1
     3     7     8    1
     4     8     9    1
     5     9    10    1
     6    10    11    1
     7    10     1    1
     8    11    12    1
     9     1     6   ar
    10     2     5   ar
    11     3     4   ar
    12     4    17    1
    13    19    24   ar
    14    20    23   ar
    15    21    22   ar
    16    14    12    1
    17    17    19    1
    18     1     2   ar
    19     3     5   ar
    20     4     6   ar
    21    19    23   ar
    22    20    21   ar
    23    22    24   ar
    24    14    15    2
    25    14    16    2
    26    17    18    1
@<TRIPOS>MOLECULE
Molport-020-275-227 MCULE-3494478915 PubChem-110252904
 24 26 0 0 0
SMALL
GASTEIGER

@<TRIPOS>ATOM
      1 C          10.0027   41.2348    8.3040 C.ar    1  UNL1        0.0805
      2 C          10.4833   39.9862    8.7176 C.ar    1  UNL1        0.1137
      3 C          12.3479   40.2264    7.2804 C.ar    1  UNL1        0.1332
      4 C          11.8737   41.4761    6.8613 C.ar    1  UNL1        0.1533
      5 N          11.6441   39.5115    8.1965 N.ar    1  UNL1       -0.2382
      6 N          10.7109   41.9458    7.3869 N.ar    1  UNL1       -0.2316
      7 C           6.0393   41.5603    9.8898 C.3     1  UNL1        0.0954
      8 C           7.2057   41.9614   10.7949 C.3     1  UNL1        0.0196
      9 C           8.4940   41.3437   10.2803 C.3     1  UNL1        0.0089
     10 C           8.7293   41.7995    8.8472 C.3     1  UNL1        0.0596
     11 C           7.5375   41.4163    7.9632 C.3     1  UNL1        0.1013
     12 N           6.2584   41.9245    8.4815 N.3     1  UNL1       -0.1590
     13 C           7.6008   44.4473    8.8049 C.3     1  UNL1        0.1960
     14 S           6.1168   43.6453    8.2420 S.O2    1  UNL1        0.0457
     15 O           4.9427   44.1985    9.0009 O.2     1  UNL1       -0.1572
     16 O           5.9383   43.9334    6.7779 O.2     1  UNL1       -0.1572
     17 N          12.5742   42.2746    5.8970 N.pl3   1  UNL1       -0.2667
     18 H          12.2037   42.2810    4.9849 H       1  UNL1        0.1565
     19 C          13.7522   43.0645    6.1089 C.ar    1  UNL1        0.2218
     20 C          15.9001   43.2661    7.0823 C.ar    1  UNL1        0.1034
     21 C          16.0379   44.5446    6.5452 C.ar    1  UNL1        0.0414
     22 C          14.9907   45.0562    5.7816 C.ar    1  UNL1        0.1034
     23 N          14.7662   42.5527    6.8561 N.ar    1  UNL1       -0.2120
     24 N          13.8726   44.3121    5.5777 N.ar    1  UNL1       -0.2120
@<TRIPOS>BOND
     1    13    14    1
     2     7    12    1
     3     7     8    1
     4     8     9    1
     5     9    10    1
     6    10    11    1
     7    10     1    1
     8    11    12    1
     9     1     6   ar
    10     2     5   ar
    11     3     4   ar
    12     4    17    1
    13    19    24   ar
    14    20    23   ar
    15    21    22   ar
    16    14    12    1
    17    17    19    1
    18     1     2   ar
    19     3     5   ar
    20     4     6   ar
    21    19    23   ar
    22    20    21   ar
    23    22    24   ar
    24    14    15    2
    25    14    16    2
    26    17    18    1
@<TRIPOS>MOLECULE
Molport-020-275-227 MCULE-3494478915 PubChem-110252904
 24 26 0 0 0
SMALL
GASTEIGER

@<TRIPOS>ATOM
      1 C          12.9268   41.8567    6.8806 C.ar    1  UNL1        0.0805
      2 C          13.3934   42.9945    6.2107 C.ar    1  UNL1        0.1137
      3 C          15.4950   42.7595    7.2728 C.ar    1  UNL1        0.1332
      4 C          15.0356   41.6206    7.9469 C.ar    1  UNL1        0.1533
      5 N          14.6660   43.4190    6.4223 N.ar    1  UNL1       -0.2382
      6 N          13.7606   41.2008    7.7306 N.ar    1  UNL1       -0.2316
      7 C           9.2146   39.8053    7.4648 C.3     1  UNL1        0.0954
      8 C           9.2024   41.3341    7.5220 C.3     1  UNL1        0.0196
      9 C          10.6064   41.8519    7.7803 C.3     1  UNL1        0.0089
     10 C          11.5337   41.3511    6.6821 C.3     1  UNL1        0.0596
     11 C          11.5089   39.8200    6.6202 C.3     1  UNL1        0.1013
     12 N          10.1506   39.2794    6.4592 N.3     1  UNL1       -0.1590
     13 C           9.9127   38.1101    3.8424 C.3     1  UNL1        0.1960
     14 S           9.5541   39.5368    4.8416 S.O2    1  UNL1        0.0457
     15 O          10.1957   40.7453    4.2185 O.2     1  UNL1       -0.1572
     16 O           8.0650   39.7346    4.8833 O.2     1  UNL1       -0.1572
     17 N          15.8659   40.8848    8.8565 N.pl3   1  UNL1       -0.2667
     18 H          16.8381   40.9846    8.7371 H       1  UNL1        0.1565
     19 C          15.4426   40.0205    9.9197 C.ar    1  UNL1        0.2218
     20 C          13.7182   39.3027   11.3732 C.ar    1  UNL1        0.1034
     21 C          14.5807   38.3800   11.9620 C.ar    1  UNL1        0.0414
     22 C          15.8904   38.3074   11.4921 C.ar    1  UNL1        0.1034
     23 N          14.1618   40.1021   10.3683 N.ar    1  UNL1       -0.2120
     24 N          16.2966   39.1238   10.4852 N.ar    1  UNL1       -0.2120
@<TRIPOS>BOND
     1    13    14    1
     2     7    12    1
     3     7     8    1
     4     8     9    1
     5     9    10    1
     6    10    11    1
     7    10     1    1
     8    11    12    1
     9     1     6   ar
    10     2     5   ar
    11     3     4   ar
    12     4    17    1
    13    19    24   ar
    14    20    23   ar
    15    21    22   ar
    16    14    12    1
    17    17    19    1
    18     1     2   ar
    19     3     5   ar
    20     4     6   ar
    21    19    23   ar
    22    20    21   ar
    23    22    24   ar
    24    14    15    2
    25    14    16    2
    26    17    18    1
@<TRIPOS>MOLECULE
Molport-020-275-227 MCULE-3494478915 PubChem-110252904
 24 26 0 0 0
SMALL
GASTEIGER

@<TRIPOS>ATOM
      1 C          14.4614   39.2510   10.5404 C.ar    1  UNL1        0.0805
      2 C          14.9520   38.4679   11.5926 C.ar    1  UNL1        0.1137
      3 C          17.1389   39.2667   11.1690 C.ar    1  UNL1        0.1332
      4 C          16.6560   40.0527   10.1148 C.ar    1  UNL1        0.1533
      5 N          16.2786   38.4941   11.8822 N.ar    1  UNL1       -0.2382
      6 N          15.3268   40.0219    9.8300 N.ar    1  UNL1       -0.2316
      7 C          10.7983   38.7919    8.3722 C.3     1  UNL1        0.0954
      8 C          11.0234   37.8959    9.5918 C.3     1  UNL1        0.0196
      9 C          12.5037   37.8423    9.9263 C.3     1  UNL1        0.0089
     10 C          13.0098   39.2549   10.1820 C.3     1  UNL1        0.0596
     11 C          12.7478   40.1443    8.9619 C.3     1  UNL1        0.1013
     12 N          11.3345   40.1495    8.5548 N.3     1  UNL1       -0.1590
     13 C          10.9255   42.7580    9.6948 C.3     1  UNL1        0.1960
     14 S          10.3588   41.0727    9.6658 S.O2    1  UNL1        0.0457
     15 O          10.4425   40.5035   11.0550 O.2     1  UNL1       -0.1572
     16 O           8.9271   41.0528    9.2096 O.2     1  UNL1       -0.1572
     17 N          17.5174   40.8872    9.3276 N.pl3   1  UNL1       -0.2667
     18 H          18.4763   40.6648    9.3472 H       1  UNL1        0.1565
     19 C          17.1423   42.0080    8.5154 C.ar    1  UNL1        0.2218
     20 C          17.7085   44.1129    7.5933 C.ar    1  UNL1        0.1034
     21 C          16.4677   44.1853    6.9632 C.ar    1  UNL1        0.0414
     22 C          15.5762   43.1288    7.1375 C.ar    1  UNL1        0.1034
     23 N          18.0222   43.0318    8.3539 N.ar    1  UNL1       -0.2120
     24 N          15.9264   42.0647    7.9059 N.ar    1  UNL1       -0.2120
@<TRIPOS>BOND
     1    13    14    1
     2     7    12    1
     3     7     8    1
     4     8     9    1
     5     9    10    1
     6    10    11    1
     7    10     1    1
     8    11    12    1
     9     1     6   ar
    10     2     5   ar
    11     3     4   ar
    12     4    17    1
    13    19    24   ar
    14    20    23   ar
    15    21    22   ar
    16    14    12    1
    17    17    19    1
    18     1     2   ar
    19     3     5   ar
    20     4     6   ar
    21    19    23   ar
    22    20    21   ar
    23    22    24   ar
    24    14    15    2
    25    14    16    2
    26    17    18    1
@<TRIPOS>MOLECULE
Molport-020-275-227 MCULE-3494478915 PubChem-110252904
 24 26 0 0 0
SMALL
GASTEIGER

@<TRIPOS>ATOM
      1 C          11.9930   40.6915    9.5150 C.ar    1  UNL1        0.0805
      2 C          11.9259   39.9405   10.6950 C.ar    1  UNL1        0.1137
      3 C          14.2777   39.6797   10.6642 C.ar    1  UNL1        0.1332
      4 C          14.3532   40.4298    9.4835 C.ar    1  UNL1        0.1533
      5 N          13.0693   39.4525   11.2419 N.ar    1  UNL1       -0.2382
      6 N          13.2048   40.9155    8.9412 N.ar    1  UNL1       -0.2316
      7 C           7.8982   41.6218    8.6797 C.3     1  UNL1        0.0954
      8 C           8.8182   42.7674    9.1065 C.3     1  UNL1        0.0196
      9 C          10.0436   42.2105    9.8094 C.3     1  UNL1        0.0089
     10 C          10.7624   41.2486    8.8739 C.3     1  UNL1        0.0596
     11 C           9.8165   40.1262    8.4334 C.3     1  UNL1        0.1013
     12 N           8.5761   40.6330    7.8272 N.3     1  UNL1       -0.1590
     13 C          10.6150   41.4387    5.9658 C.3     1  UNL1        0.1960
     14 S           8.8648   41.2656    6.2287 S.O2    1  UNL1        0.0457
     15 O           8.2081   42.6070    6.0551 O.2     1  UNL1       -0.1572
     16 O           8.3154   40.3110    5.2064 O.2     1  UNL1       -0.1572
     17 N          15.6010   40.7010    8.8296 N.pl3   1  UNL1       -0.2667
     18 H          16.2380   39.9521    8.7787 H       1  UNL1        0.1565
     19 C          16.0269   41.9376    8.2415 C.ar    1  UNL1        0.2218
     20 C          17.5720   43.7301    8.2059 C.ar    1  UNL1        0.1034
     21 C          16.8862   44.3174    7.1444 C.ar    1  UNL1        0.0414
     22 C          15.7547   43.6710    6.6512 C.ar    1  UNL1        0.1034
     23 N          17.1328   42.5574    8.7327 N.ar    1  UNL1       -0.2120
     24 N          15.3468   42.4994    7.2046 N.ar    1  UNL1       -0.2120
@<TRIPOS>BOND
     1    13    14    1
     2     7    12    1
     3     7     8    1
     4     8     9    1
     5     9    10    1
     6    10    11    1
     7    10     1    1
     8    11    12    1
     9     1     6   ar
    10     2     5   ar
    11     3     4   ar
    12     4    17    1
    13    19    24   ar
    14    20    23   ar
    15    21    22   ar
    16    14    12    1
    17    17    19    1
    18     1     2   ar
    19     3     5   ar
    20     4     6   ar
    21    19    23   ar
    22    20    21   ar
    23    22    24   ar
    24    14    15    2
    25    14    16    2
    26    17    18    1
@<TRIPOS>MOLECULE
Molport-020-275-227 MCULE-3494478915 PubChem-110252904
 24 26 0 0 0
SMALL
GASTEIGER

@<TRIPOS>ATOM
      1 C           8.3558   41.6530   11.0725 C.ar    1  UNL1        0.0805
      2 C           8.5324   41.5012   12.4533 C.ar    1  UNL1        0.1137
      3 C          10.8047   40.9415   12.1026 C.ar    1  UNL1        0.1332
      4 C          10.6362   41.0910   10.7200 C.ar    1  UNL1        0.1533
      5 N           9.7521   41.1493   12.9359 N.ar    1  UNL1       -0.2382
      6 N           9.4125   41.4435   10.2433 N.ar    1  UNL1       -0.2316
      7 C           4.5313   41.4489    9.1590 C.3     1  UNL1        0.0954
      8 C           4.5685   41.8183   10.6432 C.3     1  UNL1        0.0196
      9 C           5.8887   41.3788   11.2513 C.3     1  UNL1        0.0089
     10 C           7.0323   42.0375   10.4929 C.3     1  UNL1        0.0596
     11 C           6.9602   41.6809    9.0042 C.3     1  UNL1        0.1013
     12 N           5.6599   42.0125    8.4022 N.3     1  UNL1       -0.1590
     13 C           6.9541   44.5573    8.7492 C.3     1  UNL1        0.1960
     14 S           5.4825   43.7331    8.1861 S.O2    1  UNL1        0.0457
     15 O           4.3029   44.2529    8.9601 O.2     1  UNL1       -0.1572
     16 O           5.2879   44.0363    6.7271 O.2     1  UNL1       -0.1572
     17 N          11.7113   40.8842    9.7928 N.pl3   1  UNL1       -0.2667
     18 H          11.5360   41.1400    8.8584 H       1  UNL1        0.1565
     19 C          13.0119   40.3478   10.0707 C.ar    1  UNL1        0.2218
     20 C          14.3936   39.0184   11.4583 C.ar    1  UNL1        0.1034
     21 C          15.4935   39.2919   10.6474 C.ar    1  UNL1        0.0414
     22 C          15.3070   40.1130    9.5372 C.ar    1  UNL1        0.1034
     23 N          13.1792   39.5481   11.1574 N.ar    1  UNL1       -0.2120
     24 N          14.0771   40.6238    9.2693 N.ar    1  UNL1       -0.2120
@<TRIPOS>BOND
     1    13    14    1
     2     7    12    1
     3     7     8    1
     4     8     9    1
     5     9    10    1
     6    10    11    1
     7    10     1    1
     8    11    12    1
     9     1     6   ar
    10     2     5   ar
    11     3     4   ar
    12     4    17    1
    13    19    24   ar
    14    20    23   ar
    15    21    22   ar
    16    14    12    1
    17    17    19    1
    18     1     2   ar
    19     3     5   ar
    20     4     6   ar
    21    19    23   ar
    22    20    21   ar
    23    22    24   ar
    24    14    15    2
    25    14    16    2
    26    17    18    1
@<TRIPOS>MOLECULE
Molport-020-275-227 MCULE-3494478915 PubChem-110252904
 24 26 0 0 0
SMALL
GASTEIGER

@<TRIPOS>ATOM
      1 C           9.7271   41.8218    7.3000 C.ar    1  UNL1        0.0805
      2 C           9.2326   41.4247    6.0514 C.ar    1  UNL1        0.1137
      3 C          11.4437   41.0668    5.2881 C.ar    1  UNL1        0.1332
      4 C          11.9463   41.4630    6.5342 C.ar    1  UNL1        0.1533
      5 N          10.1020   41.0566    5.0752 N.ar    1  UNL1       -0.2382
      6 N          11.0706   41.8304    7.5073 N.ar    1  UNL1       -0.2316
      7 C           7.9396   42.2514   11.1665 C.3     1  UNL1        0.0954
      8 C           8.5706   43.4911   10.5297 C.3     1  UNL1        0.0196
      9 C           9.5460   43.0733    9.4435 C.3     1  UNL1        0.0089
     10 C           8.8105   42.2373    8.4057 C.3     1  UNL1        0.0596
     11 C           8.1599   41.0177    9.0673 C.3     1  UNL1        0.1013
     12 N           7.2749   41.3810   10.1843 N.3     1  UNL1       -0.1590
     13 C           6.1395   43.6490    8.8285 C.3     1  UNL1        0.1960
     14 S           5.7897   42.0908    9.6106 S.O2    1  UNL1        0.0457
     15 O           4.8289   42.3165   10.7448 O.2     1  UNL1       -0.1572
     16 O           5.1555   41.1759    8.6011 O.2     1  UNL1       -0.1572
     17 N          13.3528   41.4937    6.8156 N.pl3   1  UNL1       -0.2667
     18 H          13.7488   40.6561    7.1485 H       1  UNL1        0.1565
     19 C          14.2480   42.6043    6.6679 C.ar    1  UNL1        0.2218
     20 C          14.7053   44.7140    5.6977 C.ar    1  UNL1        0.1034
     21 C          15.9350   44.7628    6.3515 C.ar    1  UNL1        0.0414
     22 C          16.2904   43.6925    7.1697 C.ar    1  UNL1        0.1034
     23 N          13.8882   43.6419    5.8664 N.ar    1  UNL1       -0.2120
     24 N          15.4462   42.6379    7.3132 N.ar    1  UNL1       -0.2120
@<TRIPOS>BOND
     1    13    14    1
     2     7    12    1
     3     7     8    1
     4     8     9    1
     5     9    10    1
     6    10    11    1
     7    10     1    1
     8    11    12    1
     9     1     6   ar
    10     2     5   ar
    11     3     4   ar
    12     4    17    1
    13    19    24   ar
    14    20    23   ar
    15    21    22   ar
    16    14    12    1
    17    17    19    1
    18     1     2   ar
    19     3     5   ar
    20     4     6   ar
    21    19    23   ar
    22    20    21   ar
    23    22    24   ar
    24    14    15    2
    25    14    16    2
    26    17    18    1
@<TRIPOS>MOLECULE
Molport-020-275-227 MCULE-3494478915 PubChem-110252904
 24 26 0 0 0
SMALL
GASTEIGER

@<TRIPOS>ATOM
      1 C          10.8479   41.3376    9.7863 C.ar    1  UNL1        0.0805
      2 C          11.4845   40.6217   10.8076 C.ar    1  UNL1        0.1137
      3 C          13.4231   40.4272    9.4646 C.ar    1  UNL1        0.1332
      4 C          12.7932   41.1423    8.4380 C.ar    1  UNL1        0.1533
      5 N          12.7566   40.1835   10.6231 N.ar    1  UNL1       -0.2382
      6 N          11.5195   41.5783    8.6291 N.ar    1  UNL1       -0.2316
      7 C           6.6011   41.4688   10.3135 C.3     1  UNL1        0.0954
      8 C           7.4774   42.0394   11.4303 C.3     1  UNL1        0.0196
      9 C           8.8875   41.4885   11.3121 C.3     1  UNL1        0.0089
     10 C           9.4480   41.8395    9.9411 C.3     1  UNL1        0.0596
     11 C           8.5410   41.2863    8.8367 C.3     1  UNL1        0.1013
     12 N           7.1451   41.7295    8.9718 N.3     1  UNL1       -0.1590
     13 C           6.8964   43.5498    6.7592 C.3     1  UNL1        0.1960
     14 S           6.9675   43.4064    8.5302 S.O2    1  UNL1        0.0457
     15 O           8.1225   44.2218    9.0420 O.2     1  UNL1       -0.1572
     16 O           5.6891   43.9434    9.1095 O.2     1  UNL1       -0.1572
     17 N          13.4476   41.4287    7.1939 N.pl3   1  UNL1       -0.2667
     18 H          13.3022   40.7818    6.4661 H       1  UNL1        0.1565
     19 C          14.2892   42.5490    6.8885 C.ar    1  UNL1        0.2218
     20 C          14.5834   44.6020    5.7484 C.ar    1  UNL1        0.1034
     21 C          15.8695   44.7232    6.2712 C.ar    1  UNL1        0.0414
     22 C          16.3367   43.7171    7.1143 C.ar    1  UNL1        0.1034
     23 N          13.8203   43.5233    6.0644 N.ar    1  UNL1       -0.2120
     24 N          15.5436   42.6537    7.4069 N.ar    1  UNL1       -0.2120
@<TRIPOS>BOND
     1    13    14    1
     2     7    12    1
     3     7     8    1
     4     8     9    1
     5     9    10    1
     6    10    11    1
     7    10     1    1
     8    11    12    1
     9     1     6   ar
    10     2     5   ar
    11     3     4   ar
    12     4    17    1
    13    19    24   ar
    14    20    23   ar
    15    21    22   ar
    16    14    12    1
    17    17    19    1
    18     1     2   ar
    19     3     5   ar
    20     4     6   ar
    21    19    23   ar
    22    20    21   ar
    23    22    24   ar
    24    14    15    2
    25    14    16    2
    26    17    18    1
