@<TRIPOS>MOLECULE
Molport-020-279-176 MCULE-7641056097 PubChem-110255930
 27 30 0 0 0
SMALL
GASTEIGER

@<TRIPOS>ATOM
      1 C          16.7229   40.0772   10.1476 C.ar    1  UNL1        0.1522
      2 C          14.5548   39.2976   10.7229 C.ar    1  UNL1        0.0808
      3 C          15.1179   38.4300   11.6671 C.ar    1  UNL1        0.1137
      4 C          17.2784   39.2070   11.0943 C.ar    1  UNL1        0.1332
      5 N          15.3726   40.0974    9.9886 N.ar    1  UNL1       -0.2317
      6 N          16.4660   38.4050   11.8307 N.ar    1  UNL1       -0.2382
      7 C          13.0768   39.3595   10.5055 C.3     1  UNL1        0.0617
      8 C          12.5457   38.0392    9.9416 C.3     1  UNL1        0.0094
      9 C          11.0336   38.1155    9.7428 C.3     1  UNL1        0.0219
     10 C          10.6884   39.2733    8.8112 C.3     1  UNL1        0.0909
     11 C          12.7057   40.5276    9.5909 C.3     1  UNL1        0.0968
     12 N          11.2668   40.5093    9.3351 N.pl3   1  UNL1       -0.3047
     13 C          10.4464   41.6585    9.6121 C.ar    1  UNL1        0.0868
     14 C           9.0497   41.5652    9.6267 C.ar    1  UNL1        0.1167
     15 C           8.8724   43.8631   10.1461 C.ar    1  UNL1        0.1990
     16 C          11.0171   42.9089    9.8780 C.ar    1  UNL1        0.1167
     17 N           8.2927   42.6616    9.8916 N.ar    1  UNL1       -0.2211
     18 N          10.2255   43.9816   10.1385 N.ar    1  UNL1       -0.2211
     19 N          17.5319   40.9459    9.3418 N.pl3   1  UNL1       -0.2821
     20 H          18.5035   40.7899    9.3724 H       1  UNL1        0.1551
     21 C          14.0743   42.9363    6.4927 C.3     1  UNL1        0.0521
     22 C          15.4247   43.0032    7.1091 C.ar    1  UNL1        0.0608
     23 C          17.0864   42.0155    8.4970 C.ar    1  UNL1        0.1328
     24 C          17.9377   43.1010    8.2729 C.ar    1  UNL1        0.0344
     25 C          17.5144   44.1479    7.4522 C.ar    1  UNL1        0.0041
     26 C          16.2497   44.1026    6.8643 C.ar    1  UNL1        0.0148
     27 N          15.8558   41.9934    7.9119 N.ar    1  UNL1       -0.2349
@<TRIPOS>BOND
     1    21    22    1
     2    23    27   ar
     3    23    19    1
     4    24    25   ar
     5    26    22   ar
     6     2     5   ar
     7     3     6   ar
     8     4     1   ar
     9     7     2    1
    10     7     8    1
    11     8     9    1
    12     9    10    1
    13    10    12    1
    14    11    12    1
    15    11     7    1
    16    14    17   ar
    17    15    18   ar
    18    16    13   ar
    19    19     1    1
    20    12    13    1
    21    22    27   ar
    22    23    24   ar
    23    25    26   ar
    24     1     5   ar
    25     2     3   ar
    26     4     6   ar
    27    13    14   ar
    28    15    17   ar
    29    16    18   ar
    30    19    20    1
@<TRIPOS>MOLECULE
Molport-020-279-176 MCULE-7641056097 PubChem-110255930
 27 30 0 0 0
SMALL
GASTEIGER

@<TRIPOS>ATOM
      1 C           8.2581   42.7370    8.7314 C.ar    1  UNL1        0.1522
      2 C          10.6202   42.4967    8.7788 C.ar    1  UNL1        0.0808
      3 C          10.6861   43.3659    9.8748 C.ar    1  UNL1        0.1137
      4 C           8.3323   43.6052    9.8281 C.ar    1  UNL1        0.1332
      5 N           9.4081   42.2061    8.2366 N.ar    1  UNL1       -0.2317
      6 N           9.5411   43.8996   10.3737 N.ar    1  UNL1       -0.2382
      7 C          11.8531   41.8860    8.1934 C.3     1  UNL1        0.0617
      8 C          11.9884   40.4166    8.6006 C.3     1  UNL1        0.0094
      9 C          13.2427   39.8058    7.9797 C.3     1  UNL1        0.0219
     10 C          14.4746   40.5963    8.4095 C.3     1  UNL1        0.0909
     11 C          13.0995   42.6762    8.5939 C.3     1  UNL1        0.0968
     12 N          14.2901   42.0069    8.0734 N.pl3   1  UNL1       -0.3047
     13 C          15.2328   42.7053    7.2404 C.ar    1  UNL1        0.0868
     14 C          14.8196   43.3760    6.0832 C.ar    1  UNL1        0.1167
     15 C          17.0416   44.0473    5.6435 C.ar    1  UNL1        0.1990
     16 C          16.5955   42.7391    7.5595 C.ar    1  UNL1        0.1167
     17 N          15.7250   44.0306    5.3106 N.ar    1  UNL1       -0.2211
     18 N          17.4697   43.4049    6.7610 N.ar    1  UNL1       -0.2211
     19 N           7.0098   42.3911    8.1146 N.pl3   1  UNL1       -0.2821
     20 H           7.0434   42.1701    7.1558 H       1  UNL1        0.1551
     21 C           3.8190   40.0916   11.0413 C.3     1  UNL1        0.0521
     22 C           4.1513   41.2343   10.1514 C.ar    1  UNL1        0.0608
     23 C           5.7188   42.3307    8.7357 C.ar    1  UNL1        0.1328
     24 C           4.7994   43.3537    8.4880 C.ar    1  UNL1        0.0344
     25 C           3.5396   43.3052    9.0872 C.ar    1  UNL1        0.0041
     26 C           3.2093   42.2397    9.9256 C.ar    1  UNL1        0.0148
     27 N           5.3734   41.3003    9.5580 N.ar    1  UNL1       -0.2349
@<TRIPOS>BOND
     1    21    22    1
     2    23    27   ar
     3    23    19    1
     4    24    25   ar
     5    26    22   ar
     6     2     5   ar
     7     3     6   ar
     8     4     1   ar
     9     7     2    1
    10     7     8    1
    11     8     9    1
    12     9    10    1
    13    10    12    1
    14    11    12    1
    15    11     7    1
    16    14    17   ar
    17    15    18   ar
    18    16    13   ar
    19    19     1    1
    20    12    13    1
    21    22    27   ar
    22    23    24   ar
    23    25    26   ar
    24     1     5   ar
    25     2     3   ar
    26     4     6   ar
    27    13    14   ar
    28    15    17   ar
    29    16    18   ar
    30    19    20    1
@<TRIPOS>MOLECULE
Molport-020-279-176 MCULE-7641056097 PubChem-110255930
 27 30 0 0 0
SMALL
GASTEIGER

@<TRIPOS>ATOM
      1 C          15.4600   42.0333    7.8884 C.ar    1  UNL1        0.1522
      2 C          13.1192   42.4281    7.8237 C.ar    1  UNL1        0.0808
      3 C          13.2856   43.2245    6.6838 C.ar    1  UNL1        0.1137
      4 C          15.6181   42.8309    6.7478 C.ar    1  UNL1        0.1332
      5 N          14.2109   41.8544    8.3953 N.ar    1  UNL1       -0.2317
      6 N          14.5306   43.4071    6.1727 N.ar    1  UNL1       -0.2382
      7 C          11.7691   42.1992    8.4241 C.3     1  UNL1        0.0617
      8 C          11.7874   41.0097    9.3873 C.3     1  UNL1        0.0094
      9 C          10.4055   40.8025   10.0032 C.3     1  UNL1        0.0219
     10 C           9.3720   40.5844    8.9024 C.3     1  UNL1        0.0909
     11 C          10.7124   41.9997    7.3368 C.3     1  UNL1        0.0968
     12 N           9.4239   41.6987    7.9577 N.pl3   1  UNL1       -0.3047
     13 C           8.2552   42.4863    7.6675 C.ar    1  UNL1        0.0868
     14 C           7.6764   42.4817    6.3928 C.ar    1  UNL1        0.1167
     15 C           6.0112   43.9957    7.1115 C.ar    1  UNL1        0.1990
     16 C           7.6560   43.2830    8.6505 C.ar    1  UNL1        0.1167
     17 N           6.5724   43.2313    6.1392 N.ar    1  UNL1       -0.2211
     18 N           6.5523   44.0184    8.3571 N.ar    1  UNL1       -0.2211
     19 N          16.5720   41.4007    8.5378 N.pl3   1  UNL1       -0.2821
     20 H          17.4677   41.6963    8.2556 H       1  UNL1        0.1551
     21 C          13.9807   38.5700   11.5884 C.3     1  UNL1        0.0521
     22 C          15.2930   39.0019   11.0412 C.ar    1  UNL1        0.0608
     23 C          16.5274   40.3871    9.5510 C.ar    1  UNL1        0.1328
     24 C          17.7257   39.8265   10.0015 C.ar    1  UNL1        0.0344
     25 C          17.6942   38.8390   10.9876 C.ar    1  UNL1        0.0041
     26 C          16.4713   38.4208   11.5137 C.ar    1  UNL1        0.0148
     27 N          15.3452   39.9626   10.0798 N.ar    1  UNL1       -0.2349
@<TRIPOS>BOND
     1    21    22    1
     2    23    27   ar
     3    23    19    1
     4    24    25   ar
     5    26    22   ar
     6     2     5   ar
     7     3     6   ar
     8     4     1   ar
     9     7     2    1
    10     7     8    1
    11     8     9    1
    12     9    10    1
    13    10    12    1
    14    11    12    1
    15    11     7    1
    16    14    17   ar
    17    15    18   ar
    18    16    13   ar
    19    19     1    1
    20    12    13    1
    21    22    27   ar
    22    23    24   ar
    23    25    26   ar
    24     1     5   ar
    25     2     3   ar
    26     4     6   ar
    27    13    14   ar
    28    15    17   ar
    29    16    18   ar
    30    19    20    1
@<TRIPOS>MOLECULE
Molport-020-279-176 MCULE-7641056097 PubChem-110255930
 27 30 0 0 0
SMALL
GASTEIGER

@<TRIPOS>ATOM
      1 C           8.0462   41.3561   10.9836 C.ar    1  UNL1        0.1522
      2 C           9.9468   41.7672    9.6204 C.ar    1  UNL1        0.0808
      3 C          10.7683   41.7241   10.7538 C.ar    1  UNL1        0.1137
      4 C           8.8746   41.3139   12.1123 C.ar    1  UNL1        0.1332
      5 N           8.6080   41.5824    9.7661 N.ar    1  UNL1       -0.2317
      6 N          10.2133   41.4985   11.9727 N.ar    1  UNL1       -0.2382
      7 C          10.5110   42.0143    8.2580 C.3     1  UNL1        0.0617
      8 C           9.7059   41.2773    7.1848 C.3     1  UNL1        0.0094
      9 C          10.2859   41.5554    5.7998 C.3     1  UNL1        0.0219
     10 C          11.7513   41.1333    5.7543 C.3     1  UNL1        0.0909
     11 C          11.9868   41.6182    8.1957 C.3     1  UNL1        0.0968
     12 N          12.4829   41.7961    6.8325 N.pl3   1  UNL1       -0.3047
     13 C          13.6350   42.6138    6.5599 C.ar    1  UNL1        0.0868
     14 C          14.8410   42.4175    7.2433 C.ar    1  UNL1        0.1167
     15 C          15.8464   44.1814    6.0352 C.ar    1  UNL1        0.1990
     16 C          13.5898   43.6329    5.6010 C.ar    1  UNL1        0.1167
     17 N          15.9178   43.1994    6.9707 N.ar    1  UNL1       -0.2211
     18 N          14.6887   44.3933    5.3574 N.ar    1  UNL1       -0.2211
     19 N           6.6265   41.1688   11.0712 N.pl3   1  UNL1       -0.2821
     20 H           6.3172   40.4533   11.6726 H       1  UNL1        0.1551
     21 C           5.3419   44.4996    7.7112 C.3     1  UNL1        0.0521
     22 C           4.9566   43.5179    8.7581 C.ar    1  UNL1        0.0608
     23 C           5.6067   41.9050   10.3826 C.ar    1  UNL1        0.1328
     24 C           4.2679   41.6800   10.7143 C.ar    1  UNL1        0.0344
     25 C           3.2668   42.3911   10.0504 C.ar    1  UNL1        0.0041
     26 C           3.6093   43.3175    9.0646 C.ar    1  UNL1        0.0148
     27 N           5.9169   42.8148    9.4165 N.ar    1  UNL1       -0.2349
@<TRIPOS>BOND
     1    21    22    1
     2    23    27   ar
     3    23    19    1
     4    24    25   ar
     5    26    22   ar
     6     2     5   ar
     7     3     6   ar
     8     4     1   ar
     9     7     2    1
    10     7     8    1
    11     8     9    1
    12     9    10    1
    13    10    12    1
    14    11    12    1
    15    11     7    1
    16    14    17   ar
    17    15    18   ar
    18    16    13   ar
    19    19     1    1
    20    12    13    1
    21    22    27   ar
    22    23    24   ar
    23    25    26   ar
    24     1     5   ar
    25     2     3   ar
    26     4     6   ar
    27    13    14   ar
    28    15    17   ar
    29    16    18   ar
    30    19    20    1
@<TRIPOS>MOLECULE
Molport-020-279-176 MCULE-7641056097 PubChem-110255930
 27 30 0 0 0
SMALL
GASTEIGER

@<TRIPOS>ATOM
      1 C           8.9251   42.1334   10.9172 C.ar    1  UNL1        0.1522
      2 C          10.9836   41.2893   10.0866 C.ar    1  UNL1        0.0808
      3 C          11.3691   42.5863    9.7256 C.ar    1  UNL1        0.1137
      4 C           9.3182   43.4277   10.5536 C.ar    1  UNL1        0.1332
      5 N           9.7719   41.0980   10.6723 N.ar    1  UNL1       -0.2317
      6 N          10.5278   43.6248    9.9674 N.ar    1  UNL1       -0.2382
      7 C          11.8744   40.1142    9.8391 C.3     1  UNL1        0.0617
      8 C          11.0645   38.8196    9.7340 C.3     1  UNL1        0.0094
      9 C          11.9886   37.6343    9.4640 C.3     1  UNL1        0.0219
     10 C          13.0324   37.5247   10.5712 C.3     1  UNL1        0.0909
     11 C          12.9432   39.9979   10.9266 C.3     1  UNL1        0.0968
     12 N          13.7429   38.7959   10.6986 N.pl3   1  UNL1       -0.3047
     13 C          15.1751   38.8656   10.5796 C.ar    1  UNL1        0.0868
     14 C          15.7919   39.8756    9.8317 C.ar    1  UNL1        0.1167
     15 C          17.9235   39.0007   10.3533 C.ar    1  UNL1        0.1990
     16 C          16.0010   37.9266   11.2089 C.ar    1  UNL1        0.1167
     17 N          17.1457   39.9249    9.7325 N.ar    1  UNL1       -0.2211
     18 N          17.3511   38.0102   11.0855 N.ar    1  UNL1       -0.2211
     19 N           7.6598   41.8659   11.5383 N.pl3   1  UNL1       -0.2821
     20 H           7.6637   41.7862   12.5196 H       1  UNL1        0.1551
     21 C           2.7621   41.9598   11.7350 C.3     1  UNL1        0.0521
     22 C           4.0116   41.7396   10.9614 C.ar    1  UNL1        0.0608
     23 C           6.3901   41.7016   10.8926 C.ar    1  UNL1        0.1328
     24 C           6.3584   41.3366    9.5438 C.ar    1  UNL1        0.0344
     25 C           5.1279   41.1738    8.9050 C.ar    1  UNL1        0.0041
     26 C           3.9439   41.3758    9.6152 C.ar    1  UNL1        0.0148
     27 N           5.2206   41.8933   11.5654 N.ar    1  UNL1       -0.2349
@<TRIPOS>BOND
     1    21    22    1
     2    23    27   ar
     3    23    19    1
     4    24    25   ar
     5    26    22   ar
     6     2     5   ar
     7     3     6   ar
     8     4     1   ar
     9     7     2    1
    10     7     8    1
    11     8     9    1
    12     9    10    1
    13    10    12    1
    14    11    12    1
    15    11     7    1
    16    14    17   ar
    17    15    18   ar
    18    16    13   ar
    19    19     1    1
    20    12    13    1
    21    22    27   ar
    22    23    24   ar
    23    25    26   ar
    24     1     5   ar
    25     2     3   ar
    26     4     6   ar
    27    13    14   ar
    28    15    17   ar
    29    16    18   ar
    30    19    20    1
@<TRIPOS>MOLECULE
Molport-020-279-176 MCULE-7641056097 PubChem-110255930
 27 30 0 0 0
SMALL
GASTEIGER

@<TRIPOS>ATOM
      1 C           7.9575   40.7188    7.6978 C.ar    1  UNL1        0.1522
      2 C          10.1459   40.5518    6.7909 C.ar    1  UNL1        0.0808
      3 C           9.6023   40.3929    5.5100 C.ar    1  UNL1        0.1137
      4 C           7.4215   40.5598    6.4135 C.ar    1  UNL1        0.1332
      5 N           9.3087   40.7101    7.8500 N.ar    1  UNL1       -0.2317
      6 N           8.2534   40.4007    5.3513 N.ar    1  UNL1       -0.2382
      7 C          11.6240   40.5482    7.0160 C.3     1  UNL1        0.0617
      8 C          12.0116   39.5652    8.1235 C.3     1  UNL1        0.0094
      9 C          13.5250   39.5626    8.3269 C.3     1  UNL1        0.0219
     10 C          14.0074   40.9695    8.6666 C.3     1  UNL1        0.0909
     11 C          12.1330   41.9541    7.3369 C.3     1  UNL1        0.0968
     12 N          13.5638   41.9001    7.6302 N.pl3   1  UNL1       -0.3047
     13 C          14.5035   42.7159    6.9078 C.ar    1  UNL1        0.0868
     14 C          15.8290   42.8485    7.3383 C.ar    1  UNL1        0.1167
     15 C          16.3072   44.2793    5.5201 C.ar    1  UNL1        0.1990
     16 C          14.1248   43.4037    5.7488 C.ar    1  UNL1        0.1167
     17 N          16.7013   43.6225    6.6417 N.ar    1  UNL1       -0.2211
     18 N          15.0270   44.1679    5.0802 N.ar    1  UNL1       -0.2211
     19 N           7.1275   40.8899    8.8556 N.pl3   1  UNL1       -0.2821
     20 H           7.4339   40.4493    9.6809 H       1  UNL1        0.1551
     21 C           4.5319   44.9286    7.8627 C.3     1  UNL1        0.0521
     22 C           4.6210   43.5794    8.4789 C.ar    1  UNL1        0.0608
     23 C           5.9026   41.6297    8.9474 C.ar    1  UNL1        0.1328
     24 C           4.8163   41.0606    9.6176 C.ar    1  UNL1        0.0344
     25 C           3.6189   41.7717    9.7131 C.ar    1  UNL1        0.0041
     26 C           3.5163   43.0403    9.1410 C.ar    1  UNL1        0.0148
     27 N           5.7787   42.8701    8.3967 N.ar    1  UNL1       -0.2349
@<TRIPOS>BOND
     1    21    22    1
     2    23    27   ar
     3    23    19    1
     4    24    25   ar
     5    26    22   ar
     6     2     5   ar
     7     3     6   ar
     8     4     1   ar
     9     7     2    1
    10     7     8    1
    11     8     9    1
    12     9    10    1
    13    10    12    1
    14    11    12    1
    15    11     7    1
    16    14    17   ar
    17    15    18   ar
    18    16    13   ar
    19    19     1    1
    20    12    13    1
    21    22    27   ar
    22    23    24   ar
    23    25    26   ar
    24     1     5   ar
    25     2     3   ar
    26     4     6   ar
    27    13    14   ar
    28    15    17   ar
    29    16    18   ar
    30    19    20    1
@<TRIPOS>MOLECULE
Molport-020-279-176 MCULE-7641056097 PubChem-110255930
 27 30 0 0 0
SMALL
GASTEIGER

@<TRIPOS>ATOM
      1 C          13.8911   40.5768    8.8546 C.ar    1  UNL1        0.1522
      2 C          15.3023   39.2244   10.2034 C.ar    1  UNL1        0.0808
      3 C          14.3307   39.2176   11.2120 C.ar    1  UNL1        0.1137
      4 C          12.9241   40.5648    9.8680 C.ar    1  UNL1        0.1332
      5 N          15.0562   39.9041    9.0522 N.ar    1  UNL1       -0.2317
      6 N          13.1649   39.8876   11.0209 N.ar    1  UNL1       -0.2382
      7 C          16.6017   38.5033   10.3682 C.3     1  UNL1        0.0617
      8 C          17.7759   39.4843   10.4123 C.3     1  UNL1        0.0094
      9 C          19.0914   38.7314   10.5984 C.3     1  UNL1        0.0219
     10 C          19.2784   37.7225    9.4694 C.3     1  UNL1        0.0909
     11 C          16.8000   37.4704    9.2581 C.3     1  UNL1        0.0968
     12 N          18.1123   36.8435    9.4034 N.pl3   1  UNL1       -0.3047
     13 C          18.2483   35.4145    9.5022 C.ar    1  UNL1        0.0868
     14 C          19.2376   34.8345   10.3052 C.ar    1  UNL1        0.1167
     15 C          18.5076   32.6724    9.6937 C.ar    1  UNL1        0.1990
     16 C          17.3949   34.5552    8.7999 C.ar    1  UNL1        0.1167
     17 N          19.3489   33.4831   10.3861 N.ar    1  UNL1       -0.2211
     18 N          17.5387   33.2087    8.9073 N.ar    1  UNL1       -0.2211
     19 N          13.6916   41.2752    7.6173 N.pl3   1  UNL1       -0.2821
     20 H          12.9426   40.9663    7.0579 H       1  UNL1        0.1551
     21 C          17.8075   43.9386    7.6229 C.3     1  UNL1        0.0521
     22 C          16.4461   43.6810    7.0859 C.ar    1  UNL1        0.0608
     23 C          14.4589   42.3718    7.1028 C.ar    1  UNL1        0.1328
     24 C          13.9048   43.1760    6.1030 C.ar    1  UNL1        0.0344
     25 C          14.6428   44.2464    5.5947 C.ar    1  UNL1        0.0041
     26 C          15.9229   44.5041    6.0868 C.ar    1  UNL1        0.0148
     27 N          15.7109   42.6431    7.5677 N.ar    1  UNL1       -0.2349
@<TRIPOS>BOND
     1    21    22    1
     2    23    27   ar
     3    23    19    1
     4    24    25   ar
     5    26    22   ar
     6     2     5   ar
     7     3     6   ar
     8     4     1   ar
     9     7     2    1
    10     7     8    1
    11     8     9    1
    12     9    10    1
    13    10    12    1
    14    11    12    1
    15    11     7    1
    16    14    17   ar
    17    15    18   ar
    18    16    13   ar
    19    19     1    1
    20    12    13    1
    21    22    27   ar
    22    23    24   ar
    23    25    26   ar
    24     1     5   ar
    25     2     3   ar
    26     4     6   ar
    27    13    14   ar
    28    15    17   ar
    29    16    18   ar
    30    19    20    1
@<TRIPOS>MOLECULE
Molport-020-279-176 MCULE-7641056097 PubChem-110255930
 27 30 0 0 0
SMALL
GASTEIGER

@<TRIPOS>ATOM
      1 C           8.3123   42.2651    6.8544 C.ar    1  UNL1        0.1522
      2 C          10.3131   41.0251    6.5400 C.ar    1  UNL1        0.0808
      3 C           9.6378   40.1561    5.6740 C.ar    1  UNL1        0.1137
      4 C           7.6440   41.3918    5.9867 C.ar    1  UNL1        0.1332
      5 N           9.6320   42.0558    7.1069 N.ar    1  UNL1       -0.2317
      6 N           8.3196   40.3596    5.4176 N.ar    1  UNL1       -0.2382
      7 C          11.7632   40.8407    6.8543 C.3     1  UNL1        0.0617
      8 C          11.9642   39.7616    7.9212 C.3     1  UNL1        0.0094
      9 C          13.4508   39.5754    8.2161 C.3     1  UNL1        0.0219
     10 C          14.0615   40.8977    8.6701 C.3     1  UNL1        0.0909
     11 C          12.4014   42.1600    7.2910 C.3     1  UNL1        0.0968
     12 N          13.7945   41.9273    7.6674 N.pl3   1  UNL1       -0.3047
     13 C          14.8651   42.6682    7.0549 C.ar    1  UNL1        0.0868
     14 C          14.6503   43.4334    5.9024 C.ar    1  UNL1        0.1167
     15 C          16.9191   44.0918    5.8812 C.ar    1  UNL1        0.1990
     16 C          16.1581   42.6504    7.5914 C.ar    1  UNL1        0.1167
     17 N          15.6739   44.1268    5.3399 N.ar    1  UNL1       -0.2211
     18 N          17.1552   43.3575    6.9991 N.ar    1  UNL1       -0.2211
     19 N           7.6498   43.3710    7.4840 N.pl3   1  UNL1       -0.2821
     20 H           8.1715   44.2016    7.5679 H       1  UNL1        0.1551
     21 C           4.1664   41.4362   10.3401 C.3     1  UNL1        0.0521
     22 C           4.6059   42.4848    9.3833 C.ar    1  UNL1        0.0608
     23 C           6.3143   43.4041    8.0050 C.ar    1  UNL1        0.1328
     24 C           5.4538   44.4275    7.5984 C.ar    1  UNL1        0.0344
     25 C           4.1514   44.4696    8.0991 C.ar    1  UNL1        0.0041
     26 C           3.7205   43.4933    8.9982 C.ar    1  UNL1        0.0148
     27 N           5.8709   42.4617    8.8840 N.ar    1  UNL1       -0.2349
@<TRIPOS>BOND
     1    21    22    1
     2    23    27   ar
     3    23    19    1
     4    24    25   ar
     5    26    22   ar
     6     2     5   ar
     7     3     6   ar
     8     4     1   ar
     9     7     2    1
    10     7     8    1
    11     8     9    1
    12     9    10    1
    13    10    12    1
    14    11    12    1
    15    11     7    1
    16    14    17   ar
    17    15    18   ar
    18    16    13   ar
    19    19     1    1
    20    12    13    1
    21    22    27   ar
    22    23    24   ar
    23    25    26   ar
    24     1     5   ar
    25     2     3   ar
    26     4     6   ar
    27    13    14   ar
    28    15    17   ar
    29    16    18   ar
    30    19    20    1
@<TRIPOS>MOLECULE
Molport-020-279-176 MCULE-7641056097 PubChem-110255930
 27 30 0 0 0
SMALL
GASTEIGER

@<TRIPOS>ATOM
      1 C          11.9410   41.5293    6.6341 C.ar    1  UNL1        0.1522
      2 C           9.7520   41.9151    7.4704 C.ar    1  UNL1        0.0808
      3 C           9.2167   41.5883    6.2183 C.ar    1  UNL1        0.1137
      4 C          11.3977   41.2033    5.3848 C.ar    1  UNL1        0.1332
      5 N          11.0997   41.8770    7.6442 N.ar    1  UNL1       -0.2317
      6 N          10.0516   41.2401    5.2052 N.ar    1  UNL1       -0.2382
      7 C           8.8737   42.3063    8.6154 C.3     1  UNL1        0.0617
      8 C           9.6965   42.5611    9.8808 C.3     1  UNL1        0.0094
      9 C           8.7851   42.9760   11.0336 C.3     1  UNL1        0.0219
     10 C           7.7376   41.8954   11.2843 C.3     1  UNL1        0.0909
     11 C           7.8013   41.2463    8.8707 C.3     1  UNL1        0.0968
     12 N           7.0144   41.6208   10.0440 N.pl3   1  UNL1       -0.3047
     13 C           5.5820   41.7384    9.9736 C.ar    1  UNL1        0.0868
     14 C           4.9746   42.8509    9.3791 C.ar    1  UNL1        0.1167
     15 C           2.8336   41.9628    9.8363 C.ar    1  UNL1        0.1990
     16 C           4.7468   40.7436   10.4958 C.ar    1  UNL1        0.1167
     17 N           3.6206   42.9427    9.3214 N.ar    1  UNL1       -0.2211
     18 N           3.3968   40.8726   10.4184 N.ar    1  UNL1       -0.2211
     19 N          13.3541   41.5082    6.8811 N.pl3   1  UNL1       -0.2821
     20 H          13.7278   40.6565    7.2038 H       1  UNL1        0.1551
     21 C          17.6444   43.6149    7.9717 C.3     1  UNL1        0.0521
     22 C          16.3604   43.6301    7.2239 C.ar    1  UNL1        0.0608
     23 C          14.2840   42.5864    6.7113 C.ar    1  UNL1        0.1328
     24 C          13.9586   43.6309    5.8417 C.ar    1  UNL1        0.0344
     25 C          14.8563   44.6858    5.6687 C.ar    1  UNL1        0.0041
     26 C          16.0669   44.6892    6.3628 C.ar    1  UNL1        0.0148
     27 N          15.4722   42.6116    7.3784 N.ar    1  UNL1       -0.2349
@<TRIPOS>BOND
     1    21    22    1
     2    23    27   ar
     3    23    19    1
     4    24    25   ar
     5    26    22   ar
     6     2     5   ar
     7     3     6   ar
     8     4     1   ar
     9     7     2    1
    10     7     8    1
    11     8     9    1
    12     9    10    1
    13    10    12    1
    14    11    12    1
    15    11     7    1
    16    14    17   ar
    17    15    18   ar
    18    16    13   ar
    19    19     1    1
    20    12    13    1
    21    22    27   ar
    22    23    24   ar
    23    25    26   ar
    24     1     5   ar
    25     2     3   ar
    26     4     6   ar
    27    13    14   ar
    28    15    17   ar
    29    16    18   ar
    30    19    20    1
@<TRIPOS>MOLECULE
Molport-020-279-176 MCULE-7641056097 PubChem-110255930
 27 30 0 0 0
SMALL
GASTEIGER

@<TRIPOS>ATOM
      1 C          14.4481   40.0842    9.2916 C.ar    1  UNL1        0.1522
      2 C          15.5480   38.2624   10.3456 C.ar    1  UNL1        0.0808
      3 C          14.6736   38.3654   11.4347 C.ar    1  UNL1        0.1137
      4 C          13.5771   40.1805   10.3844 C.ar    1  UNL1        0.1332
      5 N          15.4117   39.1249    9.3038 N.ar    1  UNL1       -0.2317
      6 N          13.7090   39.3215   11.4286 N.ar    1  UNL1       -0.2382
      7 C          16.6266   37.2277   10.3074 C.3     1  UNL1        0.0617
      8 C          18.0125   37.8708   10.4019 C.3     1  UNL1        0.0094
      9 C          19.0993   36.7983   10.3789 C.3     1  UNL1        0.0219
     10 C          18.9814   35.9644    9.1068 C.3     1  UNL1        0.0909
     11 C          16.5142   36.3650    9.0497 C.3     1  UNL1        0.0968
     12 N          17.6286   35.4203    9.0046 N.pl3   1  UNL1       -0.3047
     13 C          17.4004   34.0044    8.8883 C.ar    1  UNL1        0.0868
     14 C          16.1770   33.5029    8.4282 C.ar    1  UNL1        0.1167
     15 C          16.9634   31.2875    8.6629 C.ar    1  UNL1        0.1990
     16 C          18.3945   33.0798    9.2300 C.ar    1  UNL1        0.1167
     17 N          15.9816   32.1627    8.3244 N.ar    1  UNL1       -0.2211
     18 N          18.1600   31.7471    9.1121 N.ar    1  UNL1       -0.2211
     19 N          14.3561   40.9643    8.1622 N.pl3   1  UNL1       -0.2821
     20 H          13.6029   40.8080    7.5477 H       1  UNL1        0.1551
     21 C          15.1839   45.1739    5.7899 C.3     1  UNL1        0.0521
     22 C          15.6638   44.0893    6.6851 C.ar    1  UNL1        0.0608
     23 C          15.2361   42.0455    7.8267 C.ar    1  UNL1        0.1328
     24 C          16.5309   42.0532    8.3528 C.ar    1  UNL1        0.0344
     25 C          17.3963   43.1007    8.0329 C.ar    1  UNL1        0.0041
     26 C          16.9635   44.1280    7.1935 C.ar    1  UNL1        0.0148
     27 N          14.8361   43.0597    7.0090 N.ar    1  UNL1       -0.2349
@<TRIPOS>BOND
     1    21    22    1
     2    23    27   ar
     3    23    19    1
     4    24    25   ar
     5    26    22   ar
     6     2     5   ar
     7     3     6   ar
     8     4     1   ar
     9     7     2    1
    10     7     8    1
    11     8     9    1
    12     9    10    1
    13    10    12    1
    14    11    12    1
    15    11     7    1
    16    14    17   ar
    17    15    18   ar
    18    16    13   ar
    19    19     1    1
    20    12    13    1
    21    22    27   ar
    22    23    24   ar
    23    25    26   ar
    24     1     5   ar
    25     2     3   ar
    26     4     6   ar
    27    13    14   ar
    28    15    17   ar
    29    16    18   ar
    30    19    20    1
