@<TRIPOS>MOLECULE
MolPort-021-777-938 47305697 CSC047387094 CSSS00047387094 MCULE-1790405355 PubChem-56920870 ZINC000047305697
 26 28 0 0 0
SMALL
GASTEIGER

@<TRIPOS>ATOM
      1 C          10.6278   42.3120    9.5061 C.2     1  UNL1        0.2257
      2 O          11.1034   43.4049    9.9129 O.2     1  UNL1       -0.2748
      3 N          11.4449   41.3631    8.8045 N.am    1  UNL1       -0.2839
      4 H          11.0037   40.5334    8.5111 H       1  UNL1        0.1549
      5 C          15.1360   40.8698    8.9518 C.ar    1  UNL1        0.0085
      6 C          15.5762   41.7099    7.9230 C.ar    1  UNL1       -0.0018
      7 C          14.6515   42.4455    7.1773 C.ar    1  UNL1        0.0010
      8 C          13.2866   42.3398    7.4584 C.ar    1  UNL1        0.0147
      9 C          12.8365   41.4972    8.4864 C.ar    1  UNL1        0.0501
     10 C          13.7692   40.7641    9.2281 C.ar    1  UNL1        0.0128
     11 C          16.1135   40.0739    9.7450 C.3     1  UNL1        0.1687
     12 C          18.2119   39.4635   10.0468 C.3     1  UNL1        0.1746
     13 O          17.4072   40.2970    9.2717 O.3     1  UNL1       -0.3463
     14 C           9.1875   42.0099    9.7592 C.3     1  UNL1        0.0796
     15 C           8.5401   41.3955    8.5139 C.3     1  UNL1        0.0265
     16 C           7.0985   41.8695    8.3629 C.3     1  UNL1        0.0729
     17 C           7.8883   44.0844    9.1172 C.3     1  UNL1        0.0729
     18 C           8.4438   43.2464   10.2762 C.3     1  UNL1        0.0265
     19 N           7.0438   43.3256    8.1743 N.3     1  UNL1       -0.2689
     20 C           5.6663   43.7370    8.4098 C.3     1  UNL1        0.0991
     21 C           4.9270   42.7665    9.2844 C.ar    1  UNL1       -0.0061
     22 C           3.6469   42.2909    8.9563 C.ar    1  UNL1       -0.0029
     23 C           2.9926   41.3875    9.7989 C.ar    1  UNL1       -0.0003
     24 C           3.6125   40.9545   10.9739 C.ar    1  UNL1       -0.0000
     25 C           4.8861   41.4248   11.3062 C.ar    1  UNL1       -0.0003
     26 C           5.5401   42.3287   10.4634 C.ar    1  UNL1       -0.0029
@<TRIPOS>BOND
     1    12    13    1
     2    11    13    1
     3    11     5    1
     4     6     7   ar
     5     8     9   ar
     6     9     3    1
     7    14     1    1
     8    14    15    1
     9    15    16    1
    10    16    19    1
    11    20    19    1
    12    20    21    1
    13    22    23   ar
    14    24    25   ar
    15    26    21   ar
    16    17    19    1
    17    17    18    1
    18    18    14    1
    19    10     5   ar
    20     3     1   am
    21     5     6   ar
    22     7     8   ar
    23     9    10   ar
    24     1     2    2
    25    21    22   ar
    26    23    24   ar
    27    25    26   ar
    28     3     4    1
@<TRIPOS>MOLECULE
MolPort-021-777-938 47305697 CSC047387094 CSSS00047387094 MCULE-1790405355 PubChem-56920870 ZINC000047305697
 26 28 0 0 0
SMALL
GASTEIGER

@<TRIPOS>ATOM
      1 C          11.8550   41.2397    8.5008 C.2     1  UNL1        0.2257
      2 O          11.7965   42.4213    8.9323 O.2     1  UNL1       -0.2748
      3 N          13.1021   40.6630    8.0852 N.am    1  UNL1       -0.2839
      4 H          13.0704   39.7367    7.7531 H       1  UNL1        0.1549
      5 C          15.8354   43.0687    7.2911 C.ar    1  UNL1        0.0085
      6 C          16.8808   42.5830    8.0845 C.ar    1  UNL1       -0.0018
      7 C          16.6849   41.4542    8.8844 C.ar    1  UNL1        0.0010
      8 C          15.4435   40.8122    8.8932 C.ar    1  UNL1        0.0147
      9 C          14.3890   41.2948    8.1031 C.ar    1  UNL1        0.0501
     10 C          14.5936   42.4256    7.3050 C.ar    1  UNL1        0.0128
     11 C          16.0318   44.2773    6.4433 C.3     1  UNL1        0.1687
     12 C          14.1515   44.3053    5.2899 C.3     1  UNL1        0.1746
     13 O          15.5169   44.0535    5.1657 O.3     1  UNL1       -0.3463
     14 C          10.5997   40.4350    8.4200 C.3     1  UNL1        0.0796
     15 C           9.8508   40.7362    7.1177 C.3     1  UNL1        0.0265
     16 C           8.3426   40.7117    7.3419 C.3     1  UNL1        0.0729
     17 C           8.7805   41.8193    9.5053 C.3     1  UNL1        0.0729
     18 C           9.7347   40.6292    9.6703 C.3     1  UNL1        0.0265
     19 N           7.9385   41.7544    8.2950 N.3     1  UNL1       -0.2689
     20 C           6.5865   41.4344    8.7330 C.3     1  UNL1        0.0991
     21 C           5.6390   42.5809    8.5298 C.ar    1  UNL1       -0.0061
     22 C           4.4223   42.6763    9.2248 C.ar    1  UNL1       -0.0029
     23 C           3.5681   43.7611    9.0059 C.ar    1  UNL1       -0.0003
     24 C           3.9237   44.7561    8.0916 C.ar    1  UNL1       -0.0000
     25 C           5.1329   44.6663    7.3964 C.ar    1  UNL1       -0.0003
     26 C           5.9870   43.5810    7.6153 C.ar    1  UNL1       -0.0029
@<TRIPOS>BOND
     1    12    13    1
     2    11    13    1
     3    11     5    1
     4     6     7   ar
     5     8     9   ar
     6     9     3    1
     7    14     1    1
     8    14    15    1
     9    15    16    1
    10    16    19    1
    11    20    19    1
    12    20    21    1
    13    22    23   ar
    14    24    25   ar
    15    26    21   ar
    16    17    19    1
    17    17    18    1
    18    18    14    1
    19    10     5   ar
    20     3     1   am
    21     5     6   ar
    22     7     8   ar
    23     9    10   ar
    24     1     2    2
    25    21    22   ar
    26    23    24   ar
    27    25    26   ar
    28     3     4    1
@<TRIPOS>MOLECULE
MolPort-021-777-938 47305697 CSC047387094 CSSS00047387094 MCULE-1790405355 PubChem-56920870 ZINC000047305697
 26 28 0 0 0
SMALL
GASTEIGER

@<TRIPOS>ATOM
      1 C          11.1572   39.1579    8.3153 C.2     1  UNL1        0.2257
      2 O          10.2165   38.3744    8.0197 O.2     1  UNL1       -0.2748
      3 N          12.3246   38.6877    9.0056 N.am    1  UNL1       -0.2839
      4 H          13.0162   39.3581    9.2091 H       1  UNL1        0.1549
      5 C          14.0163   35.3821    9.3221 C.ar    1  UNL1        0.0085
      6 C          13.1694   34.7136   10.2131 C.ar    1  UNL1       -0.0018
      7 C          12.0322   35.3549   10.7111 C.ar    1  UNL1        0.0010
      8 C          11.7428   36.6651   10.3204 C.ar    1  UNL1        0.0147
      9 C          12.5887   37.3438    9.4298 C.ar    1  UNL1        0.0501
     10 C          13.7253   36.6943    8.9360 C.ar    1  UNL1        0.0128
     11 C          15.2362   34.7103    8.7943 C.3     1  UNL1        0.1687
     12 C          16.2340   32.7586    8.5446 C.3     1  UNL1        0.1746
     13 O          14.9759   33.3585    8.5652 O.3     1  UNL1       -0.3463
     14 C          11.0444   40.5989    7.9408 C.3     1  UNL1        0.0796
     15 C          11.2098   40.7759    6.4280 C.3     1  UNL1        0.0265
     16 C          11.9571   42.0671    6.1119 C.3     1  UNL1        0.0729
     17 C          13.3798   41.5653    8.0671 C.3     1  UNL1        0.0729
     18 C          12.0133   41.4618    8.7571 C.3     1  UNL1        0.0265
     19 N          13.3162   42.0347    6.6693 N.3     1  UNL1       -0.2689
     20 C          13.8181   43.4021    6.6556 C.3     1  UNL1        0.0991
     21 C          15.3183   43.4547    6.6454 C.ar    1  UNL1       -0.0061
     22 C          16.0389   44.0072    5.5738 C.ar    1  UNL1       -0.0029
     23 C          17.4362   44.0364    5.6040 C.ar    1  UNL1       -0.0003
     24 C          18.1217   43.5136    6.7037 C.ar    1  UNL1       -0.0000
     25 C          17.4101   42.9618    7.7727 C.ar    1  UNL1       -0.0003
     26 C          16.0125   42.9325    7.7421 C.ar    1  UNL1       -0.0029
@<TRIPOS>BOND
     1    12    13    1
     2    11    13    1
     3    11     5    1
     4     6     7   ar
     5     8     9   ar
     6     9     3    1
     7    14     1    1
     8    14    15    1
     9    15    16    1
    10    16    19    1
    11    20    19    1
    12    20    21    1
    13    22    23   ar
    14    24    25   ar
    15    26    21   ar
    16    17    19    1
    17    17    18    1
    18    18    14    1
    19    10     5   ar
    20     3     1   am
    21     5     6   ar
    22     7     8   ar
    23     9    10   ar
    24     1     2    2
    25    21    22   ar
    26    23    24   ar
    27    25    26   ar
    28     3     4    1
@<TRIPOS>MOLECULE
MolPort-021-777-938 47305697 CSC047387094 CSSS00047387094 MCULE-1790405355 PubChem-56920870 ZINC000047305697
 26 28 0 0 0
SMALL
GASTEIGER

@<TRIPOS>ATOM
      1 C           9.4021   41.4793    7.0598 C.2     1  UNL1        0.2257
      2 O          10.0642   41.7278    6.0178 O.2     1  UNL1       -0.2748
      3 N          10.0565   41.1255    8.2874 N.am    1  UNL1       -0.2839
      4 H           9.4746   40.9388    9.0592 H       1  UNL1        0.1549
      5 C          13.2908   40.2665    9.9278 C.ar    1  UNL1        0.0085
      6 C          14.2181   40.7653    9.0062 C.ar    1  UNL1       -0.0018
      7 C          13.7753   41.3909    7.8380 C.ar    1  UNL1        0.0010
      8 C          12.4056   41.5159    7.5896 C.ar    1  UNL1        0.0147
      9 C          11.4691   41.0155    8.5070 C.ar    1  UNL1        0.0501
     10 C          11.9211   40.3905    9.6744 C.ar    1  UNL1        0.0128
     11 C          13.7535   39.5890   11.1708 C.3     1  UNL1        0.1687
     12 C          15.5113   38.3396   11.6355 C.3     1  UNL1        0.1746
     13 O          14.3571   38.3710   10.8547 O.3     1  UNL1       -0.3463
     14 C           7.9116   41.5527    7.0058 C.3     1  UNL1        0.0796
     15 C           7.4613   42.8543    6.3347 C.3     1  UNL1        0.0265
     16 C           6.1926   43.3906    6.9891 C.3     1  UNL1        0.0729
     17 C           7.1634   42.6782    9.1452 C.3     1  UNL1        0.0729
     18 C           7.2953   41.3469    8.3940 C.3     1  UNL1        0.0265
     19 N           6.4320   43.7215    8.4006 N.3     1  UNL1       -0.2689
     20 C           5.1283   43.8632    9.0349 C.3     1  UNL1        0.0991
     21 C           4.6694   42.5865    9.6775 C.ar    1  UNL1       -0.0061
     22 C           3.6902   41.7664    9.0934 C.ar    1  UNL1       -0.0029
     23 C           3.2909   40.5850    9.7254 C.ar    1  UNL1       -0.0003
     24 C           3.8665   40.2165   10.9440 C.ar    1  UNL1       -0.0000
     25 C           4.8410   41.0289   11.5306 C.ar    1  UNL1       -0.0003
     26 C           5.2399   42.2106   10.8985 C.ar    1  UNL1       -0.0029
@<TRIPOS>BOND
     1    12    13    1
     2    11    13    1
     3    11     5    1
     4     6     7   ar
     5     8     9   ar
     6     9     3    1
     7    14     1    1
     8    14    15    1
     9    15    16    1
    10    16    19    1
    11    20    19    1
    12    20    21    1
    13    22    23   ar
    14    24    25   ar
    15    26    21   ar
    16    17    19    1
    17    17    18    1
    18    18    14    1
    19    10     5   ar
    20     3     1   am
    21     5     6   ar
    22     7     8   ar
    23     9    10   ar
    24     1     2    2
    25    21    22   ar
    26    23    24   ar
    27    25    26   ar
    28     3     4    1
@<TRIPOS>MOLECULE
MolPort-021-777-938 47305697 CSC047387094 CSSS00047387094 MCULE-1790405355 PubChem-56920870 ZINC000047305697
 26 28 0 0 0
SMALL
GASTEIGER

@<TRIPOS>ATOM
      1 C           8.8704   42.0615    9.5811 C.2     1  UNL1        0.2257
      2 O           8.8473   43.1529   10.2092 O.2     1  UNL1       -0.2748
      3 N           7.6830   41.2702    9.4257 N.am    1  UNL1       -0.2839
      4 H           7.7778   40.4260    8.9281 H       1  UNL1        0.1549
      5 C           4.2851   42.7870    9.6323 C.ar    1  UNL1        0.0085
      6 C           3.8000   42.2362   10.8236 C.ar    1  UNL1       -0.0018
      7 C           4.5981   41.3613   11.5651 C.ar    1  UNL1        0.0010
      8 C           5.8803   41.0351   11.1148 C.ar    1  UNL1        0.0147
      9 C           6.3731   41.5806    9.9194 C.ar    1  UNL1        0.0501
     10 C           5.5673   42.4558    9.1830 C.ar    1  UNL1        0.0128
     11 C           3.4376   43.7123    8.8300 C.3     1  UNL1        0.1687
     12 C           3.3902   45.4291    7.4454 C.3     1  UNL1        0.1746
     13 O           4.2300   44.4287    7.9321 O.3     1  UNL1       -0.3463
     14 C          10.1606   41.5898    8.9958 C.3     1  UNL1        0.0796
     15 C          10.0546   40.1205    8.5746 C.3     1  UNL1        0.0265
     16 C          11.3691   39.3890    8.8244 C.3     1  UNL1        0.0729
     17 C          11.5416   40.6904   10.9162 C.3     1  UNL1        0.0729
     18 C          11.3326   41.8603    9.9458 C.3     1  UNL1        0.0265
     19 N          11.6985   39.3796   10.2564 N.3     1  UNL1       -0.2689
     20 C          13.1028   39.0101   10.3710 C.3     1  UNL1        0.0991
     21 C          13.3364   37.5637   10.0440 C.ar    1  UNL1       -0.0061
     22 C          14.3751   37.1484    9.1947 C.ar    1  UNL1       -0.0029
     23 C          14.5581   35.7908    8.9159 C.ar    1  UNL1       -0.0003
     24 C          13.7047   34.8406    9.4828 C.ar    1  UNL1       -0.0000
     25 C          12.6688   35.2479   10.3282 C.ar    1  UNL1       -0.0003
     26 C          12.4859   36.6058   10.6067 C.ar    1  UNL1       -0.0029
@<TRIPOS>BOND
     1    12    13    1
     2    11    13    1
     3    11     5    1
     4     6     7   ar
     5     8     9   ar
     6     9     3    1
     7    14     1    1
     8    14    15    1
     9    15    16    1
    10    16    19    1
    11    20    19    1
    12    20    21    1
    13    22    23   ar
    14    24    25   ar
    15    26    21   ar
    16    17    19    1
    17    17    18    1
    18    18    14    1
    19    10     5   ar
    20     3     1   am
    21     5     6   ar
    22     7     8   ar
    23     9    10   ar
    24     1     2    2
    25    21    22   ar
    26    23    24   ar
    27    25    26   ar
    28     3     4    1
@<TRIPOS>MOLECULE
MolPort-021-777-938 47305697 CSC047387094 CSSS00047387094 MCULE-1790405355 PubChem-56920870 ZINC000047305697
 26 28 0 0 0
SMALL
GASTEIGER

@<TRIPOS>ATOM
      1 C           8.9120   41.1552    6.8667 C.2     1  UNL1        0.2257
      2 O           8.3621   41.2293    5.7361 O.2     1  UNL1       -0.2748
      3 N           8.3673   41.8431    8.0027 N.am    1  UNL1       -0.2839
      4 H           8.8540   41.7445    8.8528 H       1  UNL1        0.1549
      5 C           5.0294   43.1448    9.0288 C.ar    1  UNL1        0.0085
      6 C           4.8539   44.2101    8.1386 C.ar    1  UNL1       -0.0018
      7 C           5.8404   44.5002    7.1926 C.ar    1  UNL1        0.0010
      8 C           7.0033   43.7270    7.1377 C.ar    1  UNL1        0.0147
      9 C           7.1886   42.6589    8.0289 C.ar    1  UNL1        0.0501
     10 C           6.1958   42.3753    8.9730 C.ar    1  UNL1        0.0128
     11 C           3.9880   42.8347   10.0473 C.3     1  UNL1        0.1687
     12 C           2.7290   41.1552    9.3681 C.3     1  UNL1        0.1746
     13 O           2.7755   42.5474    9.4189 O.3     1  UNL1       -0.3463
     14 C          10.1534   40.3390    7.0163 C.3     1  UNL1        0.0796
     15 C          10.6765   40.4144    8.4545 C.3     1  UNL1        0.0265
     16 C          12.2013   40.4162    8.4771 C.3     1  UNL1        0.0729
     17 C          12.0963   41.8707    6.4841 C.3     1  UNL1        0.0729
     18 C          11.2048   40.7316    5.9723 C.3     1  UNL1        0.0265
     19 N          12.7332   41.5996    7.7875 N.3     1  UNL1       -0.2689
     20 C          14.1441   41.3467    7.5281 C.3     1  UNL1        0.0991
     21 C          14.8662   42.5812    7.0719 C.ar    1  UNL1       -0.0061
     22 C          14.3379   43.4356    6.0903 C.ar    1  UNL1       -0.0029
     23 C          15.0432   44.5756    5.6938 C.ar    1  UNL1       -0.0003
     24 C          16.2799   44.8684    6.2745 C.ar    1  UNL1       -0.0000
     25 C          16.8112   44.0215    7.2513 C.ar    1  UNL1       -0.0003
     26 C          16.1057   42.8812    7.6475 C.ar    1  UNL1       -0.0029
@<TRIPOS>BOND
     1    12    13    1
     2    11    13    1
     3    11     5    1
     4     6     7   ar
     5     8     9   ar
     6     9     3    1
     7    14     1    1
     8    14    15    1
     9    15    16    1
    10    16    19    1
    11    20    19    1
    12    20    21    1
    13    22    23   ar
    14    24    25   ar
    15    26    21   ar
    16    17    19    1
    17    17    18    1
    18    18    14    1
    19    10     5   ar
    20     3     1   am
    21     5     6   ar
    22     7     8   ar
    23     9    10   ar
    24     1     2    2
    25    21    22   ar
    26    23    24   ar
    27    25    26   ar
    28     3     4    1
@<TRIPOS>MOLECULE
MolPort-021-777-938 47305697 CSC047387094 CSSS00047387094 MCULE-1790405355 PubChem-56920870 ZINC000047305697
 26 28 0 0 0
SMALL
GASTEIGER

@<TRIPOS>ATOM
      1 C          12.6632   40.8144    7.6998 C.2     1  UNL1        0.2257
      2 O          13.3744   40.6900    8.7316 O.2     1  UNL1       -0.2748
      3 N          13.0041   41.7586    6.6737 N.am    1  UNL1       -0.2839
      4 H          12.3986   41.8053    5.8989 H       1  UNL1        0.1549
      5 C          16.3613   43.1652    7.4734 C.ar    1  UNL1        0.0085
      6 C          16.3805   44.3207    6.6844 C.ar    1  UNL1       -0.0018
      7 C          15.2796   44.6401    5.8856 C.ar    1  UNL1        0.0010
      8 C          14.1602   43.8033    5.8735 C.ar    1  UNL1        0.0147
      9 C          14.1341   42.6409    6.6593 C.ar    1  UNL1        0.0501
     10 C          15.2409   42.3285    7.4563 C.ar    1  UNL1        0.0128
     11 C          17.5344   42.8113    8.3200 C.3     1  UNL1        0.1687
     12 C          17.3544   40.9183    9.4386 C.3     1  UNL1        0.1746
     13 O          17.7966   41.4439    8.2256 O.3     1  UNL1       -0.3463
     14 C          11.4447   39.9639    7.5530 C.3     1  UNL1        0.0796
     15 C          10.7154   40.2904    6.2457 C.3     1  UNL1        0.0265
     16 C           9.2045   40.1953    6.4297 C.3     1  UNL1        0.0729
     17 C           9.5440   41.2257    8.6482 C.3     1  UNL1        0.0729
     18 C          10.5426   40.0692    8.7877 C.3     1  UNL1        0.0265
     19 N           8.7348   41.1789    7.4149 N.3     1  UNL1       -0.2689
     20 C           7.3871   40.7861    7.8041 C.3     1  UNL1        0.0991
     21 C           6.4732   41.9677    7.9521 C.ar    1  UNL1       -0.0061
     22 C           6.6412   43.1408    7.1981 C.ar    1  UNL1       -0.0029
     23 C           5.7673   44.2189    7.3668 C.ar    1  UNL1       -0.0003
     24 C           4.7216   44.1320    8.2895 C.ar    1  UNL1       -0.0000
     25 C           4.5498   42.9675    9.0433 C.ar    1  UNL1       -0.0003
     26 C           5.4241   41.8895    8.8745 C.ar    1  UNL1       -0.0029
@<TRIPOS>BOND
     1    12    13    1
     2    11    13    1
     3    11     5    1
     4     6     7   ar
     5     8     9   ar
     6     9     3    1
     7    14     1    1
     8    14    15    1
     9    15    16    1
    10    16    19    1
    11    20    19    1
    12    20    21    1
    13    22    23   ar
    14    24    25   ar
    15    26    21   ar
    16    17    19    1
    17    17    18    1
    18    18    14    1
    19    10     5   ar
    20     3     1   am
    21     5     6   ar
    22     7     8   ar
    23     9    10   ar
    24     1     2    2
    25    21    22   ar
    26    23    24   ar
    27    25    26   ar
    28     3     4    1
@<TRIPOS>MOLECULE
MolPort-021-777-938 47305697 CSC047387094 CSSS00047387094 MCULE-1790405355 PubChem-56920870 ZINC000047305697
 26 28 0 0 0
SMALL
GASTEIGER

@<TRIPOS>ATOM
      1 C          10.4442   42.4150   10.6502 C.2     1  UNL1        0.2257
      2 O          11.2493   43.3753   10.5245 O.2     1  UNL1       -0.2748
      3 N          10.8724   41.0585   10.4581 N.am    1  UNL1       -0.2839
      4 H          10.1869   40.3603   10.5667 H       1  UNL1        0.1549
      5 C          14.2081   39.4292   10.7868 C.ar    1  UNL1        0.0085
      6 C          14.7863   39.7124    9.5444 C.ar    1  UNL1       -0.0018
      7 C          14.0738   40.4469    8.5930 C.ar    1  UNL1        0.0010
      8 C          12.7825   40.8964    8.8824 C.ar    1  UNL1        0.0147
      9 C          12.1941   40.6139   10.1247 C.ar    1  UNL1        0.0501
     10 C          12.9145   39.8778   11.0716 C.ar    1  UNL1        0.0128
     11 C          14.9559   38.6381   11.8031 C.3     1  UNL1        0.1687
     12 C          13.6161   36.9534   11.3197 C.3     1  UNL1        0.1746
     13 O          14.9630   37.2886   11.4476 O.3     1  UNL1       -0.3463
     14 C           9.0217   42.7034   11.0010 C.3     1  UNL1        0.0796
     15 C           8.3986   41.5149   11.7402 C.3     1  UNL1        0.0265
     16 C           6.9348   41.3407   11.3494 C.3     1  UNL1        0.0729
     17 C           7.6196   41.9152    9.0473 C.3     1  UNL1        0.0729
     18 C           8.2213   43.1303    9.7654 C.3     1  UNL1        0.0265
     19 N           6.8082   41.0411    9.9166 N.3     1  UNL1       -0.2689
     20 C           5.4136   41.2565    9.5550 C.3     1  UNL1        0.0991
     21 C           5.2206   42.5223    8.7714 C.ar    1  UNL1       -0.0061
     22 C           4.3541   43.5411    9.1999 C.ar    1  UNL1       -0.0029
     23 C           4.2031   44.7047    8.4399 C.ar    1  UNL1       -0.0003
     24 C           4.9158   44.8571    7.2478 C.ar    1  UNL1       -0.0000
     25 C           5.7791   43.8463    6.8157 C.ar    1  UNL1       -0.0003
     26 C           5.9297   42.6825    7.5760 C.ar    1  UNL1       -0.0029
@<TRIPOS>BOND
     1    12    13    1
     2    11    13    1
     3    11     5    1
     4     6     7   ar
     5     8     9   ar
     6     9     3    1
     7    14     1    1
     8    14    15    1
     9    15    16    1
    10    16    19    1
    11    20    19    1
    12    20    21    1
    13    22    23   ar
    14    24    25   ar
    15    26    21   ar
    16    17    19    1
    17    17    18    1
    18    18    14    1
    19    10     5   ar
    20     3     1   am
    21     5     6   ar
    22     7     8   ar
    23     9    10   ar
    24     1     2    2
    25    21    22   ar
    26    23    24   ar
    27    25    26   ar
    28     3     4    1
@<TRIPOS>MOLECULE
MolPort-021-777-938 47305697 CSC047387094 CSSS00047387094 MCULE-1790405355 PubChem-56920870 ZINC000047305697
 26 28 0 0 0
SMALL
GASTEIGER

@<TRIPOS>ATOM
      1 C          10.2227   41.0068    7.8725 C.2     1  UNL1        0.2257
      2 O          10.4630   40.7762    6.6579 O.2     1  UNL1       -0.2748
      3 N          11.2733   41.3721    8.7798 N.am    1  UNL1       -0.2839
      4 H          11.0121   41.5313    9.7156 H       1  UNL1        0.1549
      5 C          14.3803   42.6838    7.1938 C.ar    1  UNL1        0.0085
      6 C          15.3638   41.8937    7.7994 C.ar    1  UNL1       -0.0018
      7 C          15.0011   40.9209    8.7345 C.ar    1  UNL1        0.0010
      8 C          13.6556   40.7392    9.0661 C.ar    1  UNL1        0.0147
      9 C          12.6634   41.5295    8.4658 C.ar    1  UNL1        0.0501
     10 C          13.0353   42.5013    7.5305 C.ar    1  UNL1        0.0128
     11 C          14.7585   43.7301    6.2038 C.3     1  UNL1        0.1687
     12 C          16.8808   44.2196    5.8534 C.3     1  UNL1        0.1746
     13 O          15.8105   44.5005    6.7011 O.3     1  UNL1       -0.3463
     14 C           8.8188   40.8913    8.3679 C.3     1  UNL1        0.0796
     15 C           7.8246   41.1276    7.2263 C.3     1  UNL1        0.0265
     16 C           6.5906   41.8703    7.7274 C.3     1  UNL1        0.0729
     17 C           8.1263   43.2033    9.1287 C.3     1  UNL1        0.0729
     18 C           8.5789   41.8065    9.5738 C.3     1  UNL1        0.0265
     19 N           6.9515   43.2010    8.2353 N.3     1  UNL1       -0.2689
     20 C           5.8207   43.6828    9.0170 C.3     1  UNL1        0.0991
     21 C           5.0050   42.5583    9.5857 C.ar    1  UNL1       -0.0061
     22 C           3.7743   42.1728    9.0295 C.ar    1  UNL1       -0.0029
     23 C           3.0458   41.1196    9.5903 C.ar    1  UNL1       -0.0003
     24 C           3.5416   40.4462   10.7096 C.ar    1  UNL1       -0.0000
     25 C           4.7654   40.8257   11.2681 C.ar    1  UNL1       -0.0003
     26 C           5.4937   41.8793   10.7072 C.ar    1  UNL1       -0.0029
@<TRIPOS>BOND
     1    12    13    1
     2    11    13    1
     3    11     5    1
     4     6     7   ar
     5     8     9   ar
     6     9     3    1
     7    14     1    1
     8    14    15    1
     9    15    16    1
    10    16    19    1
    11    20    19    1
    12    20    21    1
    13    22    23   ar
    14    24    25   ar
    15    26    21   ar
    16    17    19    1
    17    17    18    1
    18    18    14    1
    19    10     5   ar
    20     3     1   am
    21     5     6   ar
    22     7     8   ar
    23     9    10   ar
    24     1     2    2
    25    21    22   ar
    26    23    24   ar
    27    25    26   ar
    28     3     4    1
@<TRIPOS>MOLECULE
MolPort-021-777-938 47305697 CSC047387094 CSSS00047387094 MCULE-1790405355 PubChem-56920870 ZINC000047305697
 26 28 0 0 0
SMALL
GASTEIGER

@<TRIPOS>ATOM
      1 C           8.8564   41.2787   10.2033 C.2     1  UNL1        0.2257
      2 O           8.9493   42.1719   11.0862 O.2     1  UNL1       -0.2748
      3 N           7.5804   40.8913    9.6719 N.am    1  UNL1       -0.2839
      4 H           7.5843   40.1821    8.9891 H       1  UNL1        0.1549
      5 C           4.4308   42.8733    9.4699 C.ar    1  UNL1        0.0085
      6 C           3.7982   42.5243   10.6683 C.ar    1  UNL1       -0.0018
      7 C           4.4141   41.6323   11.5499 C.ar    1  UNL1        0.0010
      8 C           5.6613   41.0871   11.2327 C.ar    1  UNL1        0.0147
      9 C           6.3010   41.4293   10.0315 C.ar    1  UNL1        0.0501
     10 C           5.6772   42.3232    9.1544 C.ar    1  UNL1        0.0128
     11 C           3.7772   43.8152    8.5194 C.3     1  UNL1        0.1687
     12 C           5.4421   44.8019    7.4604 C.3     1  UNL1        0.1746
     13 O           4.4950   45.0106    8.4617 O.3     1  UNL1       -0.3463
     14 C          10.0999   40.6146    9.7110 C.3     1  UNL1        0.0796
     15 C          11.3412   41.3717   10.1942 C.3     1  UNL1        0.0265
     16 C          12.4346   41.3538    9.1314 C.3     1  UNL1        0.0729
     17 C          10.6356   41.6528    7.4661 C.3     1  UNL1        0.0729
     18 C          10.0637   40.4269    8.1902 C.3     1  UNL1        0.0265
     19 N          11.9887   42.0394    7.9107 N.3     1  UNL1       -0.2689
     20 C          12.9104   41.6640    6.8469 C.3     1  UNL1        0.0991
     21 C          14.0122   42.6682    6.6715 C.ar    1  UNL1       -0.0061
     22 C          13.8832   43.7772    5.8194 C.ar    1  UNL1       -0.0029
     23 C          14.9341   44.6892    5.6845 C.ar    1  UNL1       -0.0003
     24 C          16.1196   44.4986    6.3990 C.ar    1  UNL1       -0.0000
     25 C          16.2543   43.3965    7.2480 C.ar    1  UNL1       -0.0003
     26 C          15.2031   42.4843    7.3825 C.ar    1  UNL1       -0.0029
@<TRIPOS>BOND
     1    12    13    1
     2    11    13    1
     3    11     5    1
     4     6     7   ar
     5     8     9   ar
     6     9     3    1
     7    14     1    1
     8    14    15    1
     9    15    16    1
    10    16    19    1
    11    20    19    1
    12    20    21    1
    13    22    23   ar
    14    24    25   ar
    15    26    21   ar
    16    17    19    1
    17    17    18    1
    18    18    14    1
    19    10     5   ar
    20     3     1   am
    21     5     6   ar
    22     7     8   ar
    23     9    10   ar
    24     1     2    2
    25    21    22   ar
    26    23    24   ar
    27    25    26   ar
    28     3     4    1
