@<TRIPOS>MOLECULE
MolPort-046-958-371 MCULE-5358002909 PubChem-110093591
 31 34 0 0 0
SMALL
GASTEIGER

@<TRIPOS>ATOM
      1 C          10.4803   41.5015   10.7829 C.3     1  UNL1        0.0602
      2 C          10.3885   41.2671   12.2916 C.3     1  UNL1        0.0094
      3 C           9.0338   41.7335   12.8195 C.3     1  UNL1        0.0220
      4 C           7.9082   40.9985   12.0971 C.3     1  UNL1        0.0937
      5 C           9.3454   40.7767   10.0601 C.3     1  UNL1        0.0996
      6 C           7.0711   41.8268    9.8613 C.2     1  UNL1        0.2517
      7 N           8.0668   41.1582   10.6529 N.am    1  UNL1       -0.2756
      8 O           7.3988   42.3505    8.7617 O.2     1  UNL1       -0.2698
      9 C           5.6718   41.9514   10.3203 C.ar    1  UNL1        0.0863
     10 C           5.2451   41.1890   11.4108 C.ar    1  UNL1        0.1059
     11 C           3.0819   42.1227   11.2595 C.ar    1  UNL1        0.1392
     12 C           4.7446   42.8331    9.7308 C.ar    1  UNL1        0.0666
     13 C           5.1306   43.7589    8.6264 C.3     1  UNL1        0.0523
     14 C           1.6864   42.2106   11.7623 C.3     1  UNL1        0.0736
     15 N           3.9662   41.2836   11.8563 N.ar    1  UNL1       -0.2290
     16 N           3.4757   42.8937   10.2133 N.ar    1  UNL1       -0.2348
     17 C          14.6283   38.8732   11.3493 C.3     1  UNL1        0.0521
     18 C          13.7999   39.7926   10.5270 C.ar    1  UNL1        0.0602
     19 C          14.2637   40.2250    9.2835 C.ar    1  UNL1        0.0294
     20 C          13.4762   41.0916    8.5146 C.ar    1  UNL1        0.0521
     21 C          12.2381   41.5072    9.0102 C.ar    1  UNL1        0.0294
     22 C          11.8049   41.0550   10.2593 C.ar    1  UNL1        0.0611
     23 N          12.5910   40.2121   10.9862 N.ar    1  UNL1       -0.2538
     24 N          13.9018   41.5676    7.2310 N.pl3   1  UNL1       -0.2927
     25 H          13.5286   41.1106    6.4429 H       1  UNL1        0.1541
     26 C          14.8160   42.6416    6.9809 C.ar    1  UNL1        0.1632
     27 C          16.6973   43.8478    7.0677 C.ar    1  UNL1        0.0678
     28 C          15.9624   44.6988    6.2426 C.ar    1  UNL1        0.0528
     29 C          18.0907   44.1563    7.4821 C.3     1  UNL1        0.0527
     30 N          16.0680   42.7133    7.4760 N.ar    1  UNL1       -0.2283
     31 S          14.4562   43.9716    6.0304 S.2     1  UNL1       -0.0512
@<TRIPOS>BOND
     1    17    18    1
     2    18    23   ar
     3    19    20   ar
     4    20    24    1
     5    21    22   ar
     6     1    22    1
     7     1     2    1
     8     2     3    1
     9     3     4    1
    10     4     7    1
    11     5     7    1
    12     5     1    1
    13     6     9    1
    14    10    15   ar
    15    11    16   ar
    16    12     9   ar
    17    13    12    1
    18    14    11    1
    19    26    31   ar
    20    27    30   ar
    21    28    31   ar
    22    29    27    1
    23     7     6   am
    24    24    26    1
    25    18    19   ar
    26    20    21   ar
    27    22    23   ar
    28     6     8    2
    29     9    10   ar
    30    11    15   ar
    31    12    16   ar
    32    26    30   ar
    33    27    28   ar
    34    24    25    1
@<TRIPOS>MOLECULE
MolPort-046-958-371 MCULE-5358002909 PubChem-110093591
 31 34 0 0 0
SMALL
GASTEIGER

@<TRIPOS>ATOM
      1 C          12.3986   39.8983    9.7045 C.3     1  UNL1        0.0602
      2 C          11.8918   39.0004    8.5746 C.3     1  UNL1        0.0094
      3 C          10.3823   39.1587    8.4077 C.3     1  UNL1        0.0220
      4 C          10.0362   40.6177    8.1242 C.3     1  UNL1        0.0937
      5 C          12.0404   41.3580    9.4277 C.3     1  UNL1        0.0996
      6 C           9.7727   42.2603   10.0263 C.2     1  UNL1        0.2517
      7 N          10.6081   41.4682    9.1662 N.am    1  UNL1       -0.2756
      8 O          10.2009   42.6100   11.1599 O.2     1  UNL1       -0.2698
      9 C           8.4021   42.6481    9.6322 C.ar    1  UNL1        0.0863
     10 C           8.2250   43.4835    8.5262 C.ar    1  UNL1        0.1059
     11 C           5.8822   43.4184    8.8105 C.ar    1  UNL1        0.1392
     12 C           7.2505   42.1876   10.3000 C.ar    1  UNL1        0.0666
     13 C           7.3306   41.2157   11.4292 C.3     1  UNL1        0.0523
     14 C           4.5260   43.8377    8.3708 C.3     1  UNL1        0.0736
     15 N           6.9779   43.8551    8.1391 N.ar    1  UNL1       -0.2290
     16 N           6.0231   42.5860    9.8741 N.ar    1  UNL1       -0.2348
     17 C          16.2343   37.4687   11.6586 C.3     1  UNL1        0.0521
     18 C          15.7196   38.5791   10.8162 C.ar    1  UNL1        0.0602
     19 C          16.6119   39.4589   10.2011 C.ar    1  UNL1        0.0294
     20 C          16.1181   40.5030    9.4083 C.ar    1  UNL1        0.0521
     21 C          14.7375   40.6429    9.2491 C.ar    1  UNL1        0.0294
     22 C          13.8729   39.7443    9.8796 C.ar    1  UNL1        0.0611
     23 N          14.3803   38.7375   10.6449 N.ar    1  UNL1       -0.2538
     24 N          16.9874   41.4358    8.7531 N.pl3   1  UNL1       -0.2927
     25 H          17.9540   41.3181    8.8983 H       1  UNL1        0.1541
     26 C          16.5899   42.5221    7.9082 C.ar    1  UNL1        0.1632
     27 C          15.3460   43.7127    6.4810 C.ar    1  UNL1        0.0678
     28 C          16.3926   44.6227    6.6277 C.ar    1  UNL1        0.0528
     29 C          14.1767   43.9861    5.6056 C.3     1  UNL1        0.0527
     30 N          15.4521   42.5542    7.1855 N.ar    1  UNL1       -0.2283
     31 S          17.4896   43.9176    7.6962 S.2     1  UNL1       -0.0512
@<TRIPOS>BOND
     1    17    18    1
     2    18    23   ar
     3    19    20   ar
     4    20    24    1
     5    21    22   ar
     6     1    22    1
     7     1     2    1
     8     2     3    1
     9     3     4    1
    10     4     7    1
    11     5     7    1
    12     5     1    1
    13     6     9    1
    14    10    15   ar
    15    11    16   ar
    16    12     9   ar
    17    13    12    1
    18    14    11    1
    19    26    31   ar
    20    27    30   ar
    21    28    31   ar
    22    29    27    1
    23     7     6   am
    24    24    26    1
    25    18    19   ar
    26    20    21   ar
    27    22    23   ar
    28     6     8    2
    29     9    10   ar
    30    11    15   ar
    31    12    16   ar
    32    26    30   ar
    33    27    28   ar
    34    24    25    1
@<TRIPOS>MOLECULE
MolPort-046-958-371 MCULE-5358002909 PubChem-110093591
 31 34 0 0 0
SMALL
GASTEIGER

@<TRIPOS>ATOM
      1 C          11.4428   40.2195    8.9047 C.3     1  UNL1        0.0602
      2 C          11.3272   40.0223    7.3922 C.3     1  UNL1        0.0094
      3 C           9.9191   40.3735    6.9175 C.3     1  UNL1        0.0220
      4 C           9.5827   41.8136    7.2939 C.3     1  UNL1        0.0937
      5 C          11.0929   41.6582    9.2836 C.3     1  UNL1        0.0996
      6 C           8.7000   42.3583    9.5982 C.2     1  UNL1        0.2517
      7 N           9.7881   42.0058    8.7281 N.am    1  UNL1       -0.2756
      8 O           8.7710   42.0820   10.8267 O.2     1  UNL1       -0.2698
      9 C           7.4755   43.0065    9.0838 C.ar    1  UNL1        0.0863
     10 C           7.4476   44.3975    8.9543 C.ar    1  UNL1        0.1059
     11 C           5.2401   44.3087    8.1217 C.ar    1  UNL1        0.1392
     12 C           6.3345   42.2851    8.6810 C.ar    1  UNL1        0.0666
     13 C           6.3026   40.7935    8.6887 C.3     1  UNL1        0.0523
     14 C           4.0350   45.0109    7.6087 C.3     1  UNL1        0.0736
     15 N           6.3375   45.0210    8.4828 N.ar    1  UNL1       -0.2290
     16 N           5.2478   42.9540    8.2138 N.ar    1  UNL1       -0.2348
     17 C          14.4158   37.4022   11.6721 C.3     1  UNL1        0.0521
     18 C          14.2475   38.5191   10.7067 C.ar    1  UNL1        0.0602
     19 C          15.3641   39.2248   10.2555 C.ar    1  UNL1        0.0294
     20 C          15.1965   40.2763    9.3452 C.ar    1  UNL1        0.0521
     21 C          13.9103   40.5985    8.9061 C.ar    1  UNL1        0.0294
     22 C          12.8147   39.8713    9.3787 C.ar    1  UNL1        0.0611
     23 N          13.0064   38.8530   10.2635 N.ar    1  UNL1       -0.2538
     24 N          16.3067   41.0351    8.8482 N.pl3   1  UNL1       -0.2927
     25 H          17.2061   40.7002    9.0677 H       1  UNL1        0.1541
     26 C          16.2379   42.2320    8.0642 C.ar    1  UNL1        0.1632
     27 C          15.5074   43.6865    6.5304 C.ar    1  UNL1        0.0678
     28 C          16.5681   44.4455    7.0239 C.ar    1  UNL1        0.0528
     29 C          14.6233   44.1765    5.4411 C.3     1  UNL1        0.0527
     30 N          15.3230   42.4662    7.1019 N.ar    1  UNL1       -0.2283
     31 S          17.2929   43.5205    8.2328 S.2     1  UNL1       -0.0512
@<TRIPOS>BOND
     1    17    18    1
     2    18    23   ar
     3    19    20   ar
     4    20    24    1
     5    21    22   ar
     6     1    22    1
     7     1     2    1
     8     2     3    1
     9     3     4    1
    10     4     7    1
    11     5     7    1
    12     5     1    1
    13     6     9    1
    14    10    15   ar
    15    11    16   ar
    16    12     9   ar
    17    13    12    1
    18    14    11    1
    19    26    31   ar
    20    27    30   ar
    21    28    31   ar
    22    29    27    1
    23     7     6   am
    24    24    26    1
    25    18    19   ar
    26    20    21   ar
    27    22    23   ar
    28     6     8    2
    29     9    10   ar
    30    11    15   ar
    31    12    16   ar
    32    26    30   ar
    33    27    28   ar
    34    24    25    1
@<TRIPOS>MOLECULE
MolPort-046-958-371 MCULE-5358002909 PubChem-110093591
 31 34 0 0 0
SMALL
GASTEIGER

@<TRIPOS>ATOM
      1 C          10.9505   41.7751    9.3462 C.3     1  UNL1        0.0602
      2 C          10.8975   42.6769   10.5806 C.3     1  UNL1        0.0094
      3 C           9.7628   43.6901   10.4490 C.3     1  UNL1        0.0220
      4 C           8.4326   42.9663   10.2610 C.3     1  UNL1        0.0937
      5 C           9.6141   41.0603    9.1497 C.3     1  UNL1        0.0996
      6 C           7.7113   42.1963    7.9648 C.2     1  UNL1        0.2517
      7 N           8.5332   42.0417    9.1335 N.am    1  UNL1       -0.2756
      8 O           8.0977   41.7161    6.8644 O.2     1  UNL1       -0.2698
      9 C           6.4348   42.9397    8.0082 C.ar    1  UNL1        0.0863
     10 C           6.3208   44.1342    7.2921 C.ar    1  UNL1        0.1059
     11 C           4.0889   44.3942    8.0168 C.ar    1  UNL1        0.1392
     12 C           5.3037   42.4853    8.7142 C.ar    1  UNL1        0.0666
     13 C           5.2946   41.1750    9.4277 C.3     1  UNL1        0.0523
     14 C           2.8279   45.1804    8.0252 C.3     1  UNL1        0.0736
     15 N           5.1600   44.8382    7.3113 N.ar    1  UNL1       -0.2290
     16 N           4.1633   43.2242    8.7021 N.ar    1  UNL1       -0.2348
     17 C          12.5194   37.2358   10.5157 C.3     1  UNL1        0.0521
     18 C          12.8205   38.6049   10.0233 C.ar    1  UNL1        0.0602
     19 C          14.1281   38.9492    9.6767 C.ar    1  UNL1        0.0294
     20 C          14.4032   40.2422    9.2131 C.ar    1  UNL1        0.0521
     21 C          13.3592   41.1642    9.1071 C.ar    1  UNL1        0.0294
     22 C          12.0621   40.7858    9.4631 C.ar    1  UNL1        0.0611
     23 N          11.8226   39.5213    9.9106 N.ar    1  UNL1       -0.2538
     24 N          15.7265   40.6510    8.8429 N.pl3   1  UNL1       -0.2927
     25 H          16.4527   40.0083    9.0129 H       1  UNL1        0.1541
     26 C          16.0975   41.9014    8.2505 C.ar    1  UNL1        0.1632
     27 C          15.9731   43.7162    6.9495 C.ar    1  UNL1        0.0678
     28 C          17.1908   44.0051    7.5648 C.ar    1  UNL1        0.0528
     29 C          15.3638   44.6188    5.9384 C.3     1  UNL1        0.0527
     30 N          15.3683   42.5575    7.3255 N.ar    1  UNL1       -0.2283
     31 S          17.5014   42.7322    8.6258 S.2     1  UNL1       -0.0512
@<TRIPOS>BOND
     1    17    18    1
     2    18    23   ar
     3    19    20   ar
     4    20    24    1
     5    21    22   ar
     6     1    22    1
     7     1     2    1
     8     2     3    1
     9     3     4    1
    10     4     7    1
    11     5     7    1
    12     5     1    1
    13     6     9    1
    14    10    15   ar
    15    11    16   ar
    16    12     9   ar
    17    13    12    1
    18    14    11    1
    19    26    31   ar
    20    27    30   ar
    21    28    31   ar
    22    29    27    1
    23     7     6   am
    24    24    26    1
    25    18    19   ar
    26    20    21   ar
    27    22    23   ar
    28     6     8    2
    29     9    10   ar
    30    11    15   ar
    31    12    16   ar
    32    26    30   ar
    33    27    28   ar
    34    24    25    1
@<TRIPOS>MOLECULE
MolPort-046-958-371 MCULE-5358002909 PubChem-110093591
 31 34 0 0 0
SMALL
GASTEIGER

@<TRIPOS>ATOM
      1 C          11.4480   40.1250    9.0162 C.3     1  UNL1        0.0602
      2 C          11.3305   40.0240    7.4944 C.3     1  UNL1        0.0094
      3 C           9.9091   40.3591    7.0486 C.3     1  UNL1        0.0220
      4 C           9.5280   41.7595    7.5202 C.3     1  UNL1        0.0937
      5 C          11.0535   41.5233    9.4903 C.3     1  UNL1        0.0996
      6 C           8.6408   42.1221    9.8584 C.2     1  UNL1        0.2517
      7 N           9.7350   41.8636    8.9633 N.am    1  UNL1       -0.2756
      8 O           8.7276   41.7681   11.0658 O.2     1  UNL1       -0.2698
      9 C           7.3930   42.7621    9.3920 C.ar    1  UNL1        0.0863
     10 C           6.2397   41.9842    9.2607 C.ar    1  UNL1        0.1059
     11 C           5.0116   43.8674    8.5398 C.ar    1  UNL1        0.1392
     12 C           7.2958   44.1371    9.1017 C.ar    1  UNL1        0.0666
     13 C           8.4439   45.0680    9.3047 C.3     1  UNL1        0.0523
     14 C           3.7305   44.4607    8.0761 C.3     1  UNL1        0.0736
     15 N           5.0781   42.5445    8.8363 N.ar    1  UNL1       -0.2290
     16 N           6.1105   44.6523    8.6817 N.ar    1  UNL1       -0.2348
     17 C          14.5108   37.3216   11.6985 C.3     1  UNL1        0.0521
     18 C          14.3090   38.4463   10.7487 C.ar    1  UNL1        0.0602
     19 C          15.4071   39.1729   10.2853 C.ar    1  UNL1        0.0294
     20 C          15.2079   40.2316    9.3897 C.ar    1  UNL1        0.0521
     21 C          13.9094   40.5398    8.9775 C.ar    1  UNL1        0.0294
     22 C          12.8331   39.7917    9.4616 C.ar    1  UNL1        0.0611
     23 N          13.0554   38.7668   10.3316 N.ar    1  UNL1       -0.2538
     24 N          16.2979   41.0118    8.8813 N.pl3   1  UNL1       -0.2927
     25 H          17.2058   40.7027    9.1038 H       1  UNL1        0.1541
     26 C          16.1978   42.1961    8.0818 C.ar    1  UNL1        0.1632
     27 C          15.3784   43.6486    6.5917 C.ar    1  UNL1        0.0678
     28 C          16.5062   44.3772    6.9687 C.ar    1  UNL1        0.0528
     29 C          14.4142   44.1510    5.5786 C.3     1  UNL1        0.0527
     30 N          15.2059   42.4462    7.2035 N.ar    1  UNL1       -0.2283
     31 S          17.3080   43.4481    8.1248 S.2     1  UNL1       -0.0512
@<TRIPOS>BOND
     1    17    18    1
     2    18    23   ar
     3    19    20   ar
     4    20    24    1
     5    21    22   ar
     6     1    22    1
     7     1     2    1
     8     2     3    1
     9     3     4    1
    10     4     7    1
    11     5     7    1
    12     5     1    1
    13     6     9    1
    14    10    15   ar
    15    11    16   ar
    16    12     9   ar
    17    13    12    1
    18    14    11    1
    19    26    31   ar
    20    27    30   ar
    21    28    31   ar
    22    29    27    1
    23     7     6   am
    24    24    26    1
    25    18    19   ar
    26    20    21   ar
    27    22    23   ar
    28     6     8    2
    29     9    10   ar
    30    11    15   ar
    31    12    16   ar
    32    26    30   ar
    33    27    28   ar
    34    24    25    1
@<TRIPOS>MOLECULE
MolPort-046-958-371 MCULE-5358002909 PubChem-110093591
 31 34 0 0 0
SMALL
GASTEIGER

@<TRIPOS>ATOM
      1 C          10.3280   42.5624    8.9774 C.3     1  UNL1        0.0602
      2 C          10.4795   43.5855   10.1044 C.3     1  UNL1        0.0094
      3 C           9.1080   44.0713   10.5677 C.3     1  UNL1        0.0220
      4 C           8.2622   42.8890   11.0320 C.3     1  UNL1        0.0937
      5 C           9.4698   41.3845    9.4376 C.3     1  UNL1        0.0996
      6 C           6.9614   41.5140    9.3579 C.2     1  UNL1        0.2517
      7 N           8.2063   41.8815    9.9746 N.am    1  UNL1       -0.2756
      8 O           6.9637   41.0219    8.1966 O.2     1  UNL1       -0.2698
      9 C           5.6667   41.7324   10.0360 C.ar    1  UNL1        0.0863
     10 C           5.3471   40.9573   11.1539 C.ar    1  UNL1        0.1059
     11 C           3.2787   42.0734   11.3778 C.ar    1  UNL1        0.1392
     12 C           4.7421   42.7148    9.6305 C.ar    1  UNL1        0.0666
     13 C           5.0340   43.6566    8.5108 C.3     1  UNL1        0.0523
     14 C           1.9910   42.2529   12.0975 C.3     1  UNL1        0.0736
     15 N           4.1660   41.1366   11.7989 N.ar    1  UNL1       -0.2290
     16 N           3.5735   42.8577   10.3091 N.ar    1  UNL1       -0.2348
     17 C          14.4050   43.2659    6.2722 C.3     1  UNL1        0.0521
     18 C          13.6264   42.4217    7.2149 C.ar    1  UNL1        0.0602
     19 C          14.1485   41.2040    7.6544 C.ar    1  UNL1        0.0294
     20 C          13.4079   40.4144    8.5434 C.ar    1  UNL1        0.0521
     21 C          12.1571   40.8634    8.9734 C.ar    1  UNL1        0.0294
     22 C          11.6647   42.0874    8.5131 C.ar    1  UNL1        0.0611
     23 N          12.4064   42.8356    7.6489 N.ar    1  UNL1       -0.2538
     24 N          13.8942   39.1556    9.0276 N.pl3   1  UNL1       -0.2927
     25 H          13.4044   38.3513    8.7407 H       1  UNL1        0.1541
     26 C          15.0219   38.9515    9.8870 C.ar    1  UNL1        0.1632
     27 C          17.1568   38.8549   10.5462 C.ar    1  UNL1        0.0678
     28 C          16.5675   38.4663   11.7490 C.ar    1  UNL1        0.0528
     29 C          18.6298   38.9719   10.3884 C.3     1  UNL1        0.0527
     30 N          16.3074   39.1230    9.5184 N.ar    1  UNL1       -0.2283
     31 S          14.9024   38.4668   11.4847 S.2     1  UNL1       -0.0512
@<TRIPOS>BOND
     1    17    18    1
     2    18    23   ar
     3    19    20   ar
     4    20    24    1
     5    21    22   ar
     6     1    22    1
     7     1     2    1
     8     2     3    1
     9     3     4    1
    10     4     7    1
    11     5     7    1
    12     5     1    1
    13     6     9    1
    14    10    15   ar
    15    11    16   ar
    16    12     9   ar
    17    13    12    1
    18    14    11    1
    19    26    31   ar
    20    27    30   ar
    21    28    31   ar
    22    29    27    1
    23     7     6   am
    24    24    26    1
    25    18    19   ar
    26    20    21   ar
    27    22    23   ar
    28     6     8    2
    29     9    10   ar
    30    11    15   ar
    31    12    16   ar
    32    26    30   ar
    33    27    28   ar
    34    24    25    1
@<TRIPOS>MOLECULE
MolPort-046-958-371 MCULE-5358002909 PubChem-110093591
 31 34 0 0 0
SMALL
GASTEIGER

@<TRIPOS>ATOM
      1 C           9.9702   40.5920    6.9150 C.3     1  UNL1        0.0602
      2 C           8.9066   39.7664    7.6408 C.3     1  UNL1        0.0094
      3 C           8.5135   38.5526    6.8021 C.3     1  UNL1        0.0220
      4 C           9.7429   37.6974    6.5089 C.3     1  UNL1        0.0937
      5 C          11.1963   39.7324    6.6092 C.3     1  UNL1        0.0996
      6 C          11.2606   38.2653    4.5700 C.2     1  UNL1        0.2517
      7 N          10.7817   38.5255    5.8996 N.am    1  UNL1       -0.2756
      8 O          11.7843   39.1992    3.9033 O.2     1  UNL1       -0.2698
      9 C          11.1220   36.9341    3.9433 C.ar    1  UNL1        0.0863
     10 C          12.0985   35.9647    4.1868 C.ar    1  UNL1        0.1059
     11 C          10.9460   34.4151    2.8287 C.ar    1  UNL1        0.1392
     12 C          10.0276   36.5762    3.1316 C.ar    1  UNL1        0.0666
     13 C           8.8866   37.5073    2.8928 C.3     1  UNL1        0.0523
     14 C          10.8546   33.0604    2.2247 C.3     1  UNL1        0.0736
     15 N          11.9971   34.7321    3.6266 N.ar    1  UNL1       -0.2290
     16 N           9.9696   35.3293    2.5946 N.ar    1  UNL1       -0.2348
     17 C           8.7347   44.1813   10.0813 C.3     1  UNL1        0.0521
     18 C           9.7660   43.5116    9.2473 C.ar    1  UNL1        0.0602
     19 C          11.0736   43.9998    9.2305 C.ar    1  UNL1        0.0294
     20 C          12.0399   43.3623    8.4416 C.ar    1  UNL1        0.0521
     21 C          11.6735   42.2469    7.6847 C.ar    1  UNL1        0.0294
     22 C          10.3553   41.7853    7.7249 C.ar    1  UNL1        0.0611
     23 N           9.4356   42.4241    8.5014 N.ar    1  UNL1       -0.2538
     24 N          13.3975   43.8197    8.3857 N.pl3   1  UNL1       -0.2927
     25 H          13.7848   44.1615    9.2238 H       1  UNL1        0.1541
     26 C          14.2465   43.8290    7.2320 C.ar    1  UNL1        0.1632
     27 C          16.1266   43.8439    6.0209 C.ar    1  UNL1        0.0678
     28 C          15.2177   43.8445    4.9632 C.ar    1  UNL1        0.0528
     29 C          17.5963   43.8523    5.8011 C.3     1  UNL1        0.0527
     30 N          15.5942   43.8354    7.2724 N.ar    1  UNL1       -0.2283
     31 S          13.6810   43.8336    5.6566 S.2     1  UNL1       -0.0512
@<TRIPOS>BOND
     1    17    18    1
     2    18    23   ar
     3    19    20   ar
     4    20    24    1
     5    21    22   ar
     6     1    22    1
     7     1     2    1
     8     2     3    1
     9     3     4    1
    10     4     7    1
    11     5     7    1
    12     5     1    1
    13     6     9    1
    14    10    15   ar
    15    11    16   ar
    16    12     9   ar
    17    13    12    1
    18    14    11    1
    19    26    31   ar
    20    27    30   ar
    21    28    31   ar
    22    29    27    1
    23     7     6   am
    24    24    26    1
    25    18    19   ar
    26    20    21   ar
    27    22    23   ar
    28     6     8    2
    29     9    10   ar
    30    11    15   ar
    31    12    16   ar
    32    26    30   ar
    33    27    28   ar
    34    24    25    1
@<TRIPOS>MOLECULE
MolPort-046-958-371 MCULE-5358002909 PubChem-110093591
 31 34 0 0 0
SMALL
GASTEIGER

@<TRIPOS>ATOM
      1 C           8.1899   40.2683    6.9750 C.3     1  UNL1        0.0602
      2 C           7.0523   39.8588    6.0379 C.3     1  UNL1        0.0094
      3 C           5.7451   39.7278    6.8161 C.3     1  UNL1        0.0220
      4 C           5.4142   41.0456    7.5109 C.3     1  UNL1        0.0937
      5 C           7.8531   41.5811    7.6813 C.3     1  UNL1        0.0996
      6 C           6.4350   41.5970    9.7558 C.2     1  UNL1        0.2517
      7 N           6.5497   41.4664    8.3293 N.am    1  UNL1       -0.2756
      8 O           7.4681   41.5086   10.4738 O.2     1  UNL1       -0.2698
      9 C           5.1262   41.7959   10.4128 C.ar    1  UNL1        0.0863
     10 C           4.7608   40.9534   11.4659 C.ar    1  UNL1        0.1059
     11 C           2.7088   42.0950   11.7109 C.ar    1  UNL1        0.1392
     12 C           4.2324   42.8230   10.0513 C.ar    1  UNL1        0.0666
     13 C           4.5736   43.8326    9.0071 C.3     1  UNL1        0.0523
     14 C           1.4052   42.2521   12.4068 C.3     1  UNL1        0.0736
     15 N           3.5657   41.1131   12.0900 N.ar    1  UNL1       -0.2290
     16 N           3.0483   42.9439   10.7069 N.ar    1  UNL1       -0.2348
     17 C          11.3487   38.5093    3.6041 C.3     1  UNL1        0.0521
     18 C          10.9946   39.5501    4.6037 C.ar    1  UNL1        0.0602
     19 C          11.8577   40.6241    4.8274 C.ar    1  UNL1        0.0294
     20 C          11.5160   41.6011    5.7713 C.ar    1  UNL1        0.0521
     21 C          10.3140   41.4799    6.4724 C.ar    1  UNL1        0.0294
     22 C           9.4737   40.3915    6.2236 C.ar    1  UNL1        0.0611
     23 N           9.8305   39.4558    5.2995 N.ar    1  UNL1       -0.2538
     24 N          12.3636   42.7252    6.0421 N.pl3   1  UNL1       -0.2927
     25 H          12.0117   43.6132    5.8035 H       1  UNL1        0.1541
     26 C          13.6714   42.6852    6.6251 C.ar    1  UNL1        0.1632
     27 C          15.7955   43.2531    7.0340 C.ar    1  UNL1        0.0678
     28 C          15.7129   42.1749    7.9146 C.ar    1  UNL1        0.0528
     29 C          17.0383   44.0526    6.8766 C.3     1  UNL1        0.0527
     30 N          14.6719   43.5367    6.3221 N.ar    1  UNL1       -0.2283
     31 S          14.1471   41.5657    7.7750 S.2     1  UNL1       -0.0512
@<TRIPOS>BOND
     1    17    18    1
     2    18    23   ar
     3    19    20   ar
     4    20    24    1
     5    21    22   ar
     6     1    22    1
     7     1     2    1
     8     2     3    1
     9     3     4    1
    10     4     7    1
    11     5     7    1
    12     5     1    1
    13     6     9    1
    14    10    15   ar
    15    11    16   ar
    16    12     9   ar
    17    13    12    1
    18    14    11    1
    19    26    31   ar
    20    27    30   ar
    21    28    31   ar
    22    29    27    1
    23     7     6   am
    24    24    26    1
    25    18    19   ar
    26    20    21   ar
    27    22    23   ar
    28     6     8    2
    29     9    10   ar
    30    11    15   ar
    31    12    16   ar
    32    26    30   ar
    33    27    28   ar
    34    24    25    1
@<TRIPOS>MOLECULE
MolPort-046-958-371 MCULE-5358002909 PubChem-110093591
 31 34 0 0 0
SMALL
GASTEIGER

@<TRIPOS>ATOM
      1 C          12.5158   41.5177    7.6187 C.3     1  UNL1        0.0602
      2 C          11.9773   41.6167    6.1904 C.3     1  UNL1        0.0094
      3 C          10.5133   41.1852    6.1443 C.3     1  UNL1        0.0220
      4 C           9.6819   42.0496    7.0878 C.3     1  UNL1        0.0937
      5 C          11.6752   42.3726    8.5665 C.3     1  UNL1        0.0996
      6 C           9.5390   41.4829    9.5463 C.2     1  UNL1        0.2517
      7 N          10.2664   42.0149    8.4270 N.am    1  UNL1       -0.2756
      8 O          10.1696   41.0444   10.5467 O.2     1  UNL1       -0.2698
      9 C           8.0634   41.4001    9.5425 C.ar    1  UNL1        0.0863
     10 C           7.4097   40.9950    8.3759 C.ar    1  UNL1        0.1059
     11 C           5.3122   41.2029    9.4395 C.ar    1  UNL1        0.1392
     12 C           7.2745   41.6789   10.6758 C.ar    1  UNL1        0.0666
     13 C           7.8832   42.0235   11.9936 C.3     1  UNL1        0.0523
     14 C           3.8307   41.1015    9.3818 C.3     1  UNL1        0.0736
     15 N           6.0553   40.9076    8.3428 N.ar    1  UNL1       -0.2290
     16 N           5.9220   41.5756   10.5941 N.ar    1  UNL1       -0.2348
     17 C          16.1250   44.5965    6.2299 C.3     1  UNL1        0.0521
     18 C          15.6869   43.4086    7.0076 C.ar    1  UNL1        0.0602
     19 C          16.6115   42.6976    7.7744 C.ar    1  UNL1        0.0294
     20 C          16.1899   41.5790    8.5048 C.ar    1  UNL1        0.0521
     21 C          14.8477   41.1963    8.4502 C.ar    1  UNL1        0.0294
     22 C          13.9491   41.9308    7.6719 C.ar    1  UNL1        0.0611
     23 N          14.3861   43.0150    6.9718 N.ar    1  UNL1       -0.2538
     24 N          17.0952   40.8116    9.3091 N.pl3   1  UNL1       -0.2927
     25 H          18.0341   41.1073    9.3244 H       1  UNL1        0.1541
     26 C          16.7698   39.6574   10.0926 C.ar    1  UNL1        0.1632
     27 C          15.5296   38.1924   11.2403 C.ar    1  UNL1        0.0678
     28 C          16.7652   37.5669   11.4045 C.ar    1  UNL1        0.0528
     29 C          14.2786   37.6373   11.8194 C.3     1  UNL1        0.0527
     30 N          15.5291   39.3446   10.5177 N.ar    1  UNL1       -0.2283
     31 S          17.8937   38.5237   10.5961 S.2     1  UNL1       -0.0512
@<TRIPOS>BOND
     1    17    18    1
     2    18    23   ar
     3    19    20   ar
     4    20    24    1
     5    21    22   ar
     6     1    22    1
     7     1     2    1
     8     2     3    1
     9     3     4    1
    10     4     7    1
    11     5     7    1
    12     5     1    1
    13     6     9    1
    14    10    15   ar
    15    11    16   ar
    16    12     9   ar
    17    13    12    1
    18    14    11    1
    19    26    31   ar
    20    27    30   ar
    21    28    31   ar
    22    29    27    1
    23     7     6   am
    24    24    26    1
    25    18    19   ar
    26    20    21   ar
    27    22    23   ar
    28     6     8    2
    29     9    10   ar
    30    11    15   ar
    31    12    16   ar
    32    26    30   ar
    33    27    28   ar
    34    24    25    1
@<TRIPOS>MOLECULE
MolPort-046-958-371 MCULE-5358002909 PubChem-110093591
 31 34 0 0 0
SMALL
GASTEIGER

@<TRIPOS>ATOM
      1 C          13.1939   41.5380    7.4356 C.3     1  UNL1        0.0602
      2 C          12.7532   41.6780    5.9775 C.3     1  UNL1        0.0094
      3 C          11.2864   41.2817    5.8263 C.3     1  UNL1        0.0220
      4 C          10.4136   42.1462    6.7316 C.3     1  UNL1        0.0937
      5 C          12.3115   42.3932    8.3443 C.3     1  UNL1        0.0996
      6 C          10.0963   41.5341    9.1627 C.2     1  UNL1        0.2517
      7 N          10.9076   42.0712    8.1051 N.am    1  UNL1       -0.2756
      8 O          10.6498   41.0612   10.1926 O.2     1  UNL1       -0.2698
      9 C           8.6228   41.4857    9.0604 C.ar    1  UNL1        0.0863
     10 C           7.8657   42.4701    9.7011 C.ar    1  UNL1        0.1059
     11 C           5.8662   41.4884    8.9186 C.ar    1  UNL1        0.1392
     12 C           7.9352   40.5081    8.3149 C.ar    1  UNL1        0.0666
     13 C           8.6567   39.4748    7.5164 C.3     1  UNL1        0.0523
     14 C           4.3819   41.4874    8.8469 C.3     1  UNL1        0.0736
     15 N           6.5104   42.4529    9.6235 N.ar    1  UNL1       -0.2290
     16 N           6.5774   40.5335    8.2656 N.ar    1  UNL1       -0.2348
     17 C          17.0949   44.1876    5.9534 C.3     1  UNL1        0.0521
     18 C          16.5068   43.1886    6.8829 C.ar    1  UNL1        0.0602
     19 C          17.2951   42.6198    7.8847 C.ar    1  UNL1        0.0294
     20 C          16.7326   41.6789    8.7569 C.ar    1  UNL1        0.0521
     21 C          15.3892   41.3276    8.6055 C.ar    1  UNL1        0.0294
     22 C          14.6294   41.9165    7.5914 C.ar    1  UNL1        0.0611
     23 N          15.2017   42.8293    6.7572 N.ar    1  UNL1       -0.2538
     24 N          17.4944   41.0627    9.8035 N.pl3   1  UNL1       -0.2927
     25 H          18.1575   41.6285   10.2611 H       1  UNL1        0.1541
     26 C          17.3869   39.7058   10.2498 C.ar    1  UNL1        0.1632
     27 C          18.0093   37.6227   10.7739 C.ar    1  UNL1        0.0678
     28 C          16.6558   37.5025   11.0875 C.ar    1  UNL1        0.0528
     29 C          18.9616   36.4929   10.9327 C.3     1  UNL1        0.0527
     30 N          18.4151   38.8359   10.3121 N.ar    1  UNL1       -0.2283
     31 S          15.9571   39.0018   10.7615 S.2     1  UNL1       -0.0512
@<TRIPOS>BOND
     1    17    18    1
     2    18    23   ar
     3    19    20   ar
     4    20    24    1
     5    21    22   ar
     6     1    22    1
     7     1     2    1
     8     2     3    1
     9     3     4    1
    10     4     7    1
    11     5     7    1
    12     5     1    1
    13     6     9    1
    14    10    15   ar
    15    11    16   ar
    16    12     9   ar
    17    13    12    1
    18    14    11    1
    19    26    31   ar
    20    27    30   ar
    21    28    31   ar
    22    29    27    1
    23     7     6   am
    24    24    26    1
    25    18    19   ar
    26    20    21   ar
    27    22    23   ar
    28     6     8    2
    29     9    10   ar
    30    11    15   ar
    31    12    16   ar
    32    26    30   ar
    33    27    28   ar
    34    24    25    1
