@<TRIPOS>MOLECULE
MolPort-035-706-973 CSSS03437789228 MCULE-3084670648 PubChem-91938298
 30 32 0 0 0
SMALL
GASTEIGER

@<TRIPOS>ATOM
      1 C           7.1225   42.1314    8.8911 C.3     1  UNL1        0.2880
      2 C           6.6967   41.8136   10.3175 C.3     1  UNL1        0.0650
      3 C           9.4330   41.6057    8.0446 C.ar    1  UNL1        0.1542
      4 C          10.7985   41.9024    8.0846 C.ar    1  UNL1        0.0529
      5 C          11.6953   41.2344    7.2434 C.ar    1  UNL1        0.0537
      6 C          11.2098   40.2594    6.3579 C.ar    1  UNL1        0.0162
      7 C           9.8458   39.9578    6.3173 C.ar    1  UNL1        0.0190
      8 C           8.9592   40.6316    7.1603 C.ar    1  UNL1        0.0850
      9 C           6.6521   41.0160    7.9792 C.2     1  UNL1        0.2732
     10 O           8.5511   42.2835    8.8934 O.3     1  UNL1       -0.4618
     11 O           5.4319   40.7017    7.9436 O.2     1  UNL1       -0.2704
     12 N           7.5709   40.3229    7.1345 N.am    1  UNL1       -0.2783
     13 H           7.2396   39.6227    6.5268 H       1  UNL1        0.1551
     14 C          13.7247   42.7363    6.7701 C.2     1  UNL1        0.2518
     15 O          13.0451   43.5984    6.1485 O.2     1  UNL1       -0.2697
     16 N          13.0875   41.5708    7.3150 N.am    1  UNL1       -0.2802
     17 H          13.6693   40.9336    7.7892 H       1  UNL1        0.1552
     18 C          15.1838   42.9397    6.9308 C.ar    1  UNL1        0.0833
     19 C          15.8346   43.8641    6.0978 C.ar    1  UNL1        0.0069
     20 C          17.2077   44.0886    6.2129 C.ar    1  UNL1        0.0026
     21 C          17.9506   43.3903    7.1647 C.ar    1  UNL1        0.0320
     22 C          17.3218   42.4671    8.0022 C.ar    1  UNL1        0.1675
     23 C          15.9442   42.2369    7.8922 C.ar    1  UNL1        0.1717
     24 F          18.0533   41.7939    8.9237 F       1  UNL1       -0.2018
     25 F          15.3678   41.3322    8.7233 F       1  UNL1       -0.2016
     26 C           6.4999   43.4267    8.4453 C.2     1  UNL1        0.3623
     27 O           6.9685   44.0492    7.4512 O.2     1  UNL1       -0.2457
     28 O           5.4392   43.9669    9.1770 O.3     1  UNL1       -0.4458
     29 C           3.7228   44.9119    7.7970 C.3     1  UNL1        0.0513
     30 C           4.0886   43.8102    8.7696 C.3     1  UNL1        0.2087
@<TRIPOS>BOND
     1    29    30    1
     2    30    28    1
     3    26    28    1
     4     1    26    1
     5     1     2    1
     6     1    10    1
     7     1     9    1
     8     3    10    1
     9     4     5   ar
    10     5    16    1
    11    14    18    1
    12    19    20   ar
    13    21    22   ar
    14    22    24    1
    15    23    25    1
    16    23    18   ar
    17     6     7   ar
    18     8    12    1
    19     8     3   ar
    20    16    14   am
    21    12     9   am
    22    26    27    2
    23     3     4   ar
    24     5     6   ar
    25    14    15    2
    26    18    19   ar
    27    20    21   ar
    28    22    23   ar
    29     7     8   ar
    30     9    11    2
    31    16    17    1
    32    12    13    1
@<TRIPOS>MOLECULE
MolPort-035-706-973 CSSS03437789228 MCULE-3084670648 PubChem-91938298
 30 32 0 0 0
SMALL
GASTEIGER

@<TRIPOS>ATOM
      1 C          14.1968   38.7620   10.5110 C.3     1  UNL1        0.2880
      2 C          14.7819   38.7469   11.9161 C.3     1  UNL1        0.0650
      3 C          12.0935   40.0284    9.9600 C.ar    1  UNL1        0.1542
      4 C          10.7059   40.1253   10.0985 C.ar    1  UNL1        0.0529
      5 C           9.9938   41.1282    9.4312 C.ar    1  UNL1        0.0537
      6 C          10.6883   42.0399    8.6207 C.ar    1  UNL1        0.0162
      7 C          12.0759   41.9481    8.4822 C.ar    1  UNL1        0.0190
      8 C          12.7766   40.9422    9.1516 C.ar    1  UNL1        0.0850
      9 C          14.9163   39.8149    9.6919 C.2     1  UNL1        0.2732
     10 O          12.7889   39.0193   10.6351 O.3     1  UNL1       -0.4618
     11 O          16.1706   39.7749    9.5739 O.2     1  UNL1       -0.2704
     12 N          14.1904   40.8484    9.0262 N.am    1  UNL1       -0.2783
     13 H          14.6742   41.5040    8.4737 H       1  UNL1        0.1551
     14 C           7.7772   42.3662    9.8213 C.2     1  UNL1        0.2518
     15 O           8.3271   43.4996    9.8871 O.2     1  UNL1       -0.2697
     16 N           8.5710   41.1906    9.5991 N.am    1  UNL1       -0.2802
     17 H           8.0861   40.3348    9.5576 H       1  UNL1        0.1552
     18 C           6.3070   42.2623    9.9755 C.ar    1  UNL1        0.0833
     19 C           5.4809   42.9516    9.0730 C.ar    1  UNL1        0.0069
     20 C           4.0905   42.8833    9.1795 C.ar    1  UNL1        0.0026
     21 C           3.5058   42.1231   10.1924 C.ar    1  UNL1        0.0320
     22 C           4.3100   41.4307   11.0993 C.ar    1  UNL1        0.1675
     23 C           5.7060   41.4947   10.9982 C.ar    1  UNL1        0.1717
     24 F           3.7313   40.6950   12.0798 F       1  UNL1       -0.2018
     25 F           6.4551   40.8083   11.8978 F       1  UNL1       -0.2016
     26 C          14.3866   37.4185    9.8606 C.2     1  UNL1        0.3623
     27 O          14.7007   37.3411    8.6396 O.2     1  UNL1       -0.2457
     28 O          14.1519   36.2571   10.6012 O.3     1  UNL1       -0.4458
     29 C          11.8065   35.7940   10.7673 C.3     1  UNL1        0.0513
     30 C          13.1454   35.3247   10.2377 C.3     1  UNL1        0.2087
@<TRIPOS>BOND
     1    29    30    1
     2    30    28    1
     3    26    28    1
     4     1    26    1
     5     1     2    1
     6     1    10    1
     7     1     9    1
     8     3    10    1
     9     4     5   ar
    10     5    16    1
    11    14    18    1
    12    19    20   ar
    13    21    22   ar
    14    22    24    1
    15    23    25    1
    16    23    18   ar
    17     6     7   ar
    18     8    12    1
    19     8     3   ar
    20    16    14   am
    21    12     9   am
    22    26    27    2
    23     3     4   ar
    24     5     6   ar
    25    14    15    2
    26    18    19   ar
    27    20    21   ar
    28    22    23   ar
    29     7     8   ar
    30     9    11    2
    31    16    17    1
    32    12    13    1
@<TRIPOS>MOLECULE
MolPort-035-706-973 CSSS03437789228 MCULE-3084670648 PubChem-91938298
 30 32 0 0 0
SMALL
GASTEIGER

@<TRIPOS>ATOM
      1 C          14.4376   38.7034   10.5966 C.3     1  UNL1        0.2880
      2 C          15.1142   38.6935   11.9601 C.3     1  UNL1        0.0650
      3 C          12.3272   40.0051   10.1688 C.ar    1  UNL1        0.1542
      4 C          10.9539   40.1316   10.3974 C.ar    1  UNL1        0.0529
      5 C          10.2187   41.1405    9.7652 C.ar    1  UNL1        0.0537
      6 C          10.8754   42.0281    8.8984 C.ar    1  UNL1        0.0162
      7 C          12.2487   41.9067    8.6698 C.ar    1  UNL1        0.0190
      8 C          12.9727   40.8951    9.3049 C.ar    1  UNL1        0.0850
      9 C          15.1214   39.7316    9.7178 C.2     1  UNL1        0.2732
     10 O          13.0463   38.9904   10.8100 O.3     1  UNL1       -0.4618
     11 O          16.3641   39.6650    9.5177 O.2     1  UNL1       -0.2704
     12 N          14.3730   40.7713    9.0877 N.am    1  UNL1       -0.2783
     13 H          14.8317   41.4104    8.4956 H       1  UNL1        0.1551
     14 C           7.8948   42.1995    9.4895 C.2     1  UNL1        0.2518
     15 O           8.3049   43.0913    8.6971 O.2     1  UNL1       -0.2697
     16 N           8.8116   41.2335   10.0259 N.am    1  UNL1       -0.2802
     17 H           8.4334   40.5625   10.6390 H       1  UNL1        0.1552
     18 C           6.4602   42.1605    9.8592 C.ar    1  UNL1        0.0833
     19 C           6.0740   41.4376   10.9994 C.ar    1  UNL1        0.0069
     20 C           4.7341   41.3726   11.3861 C.ar    1  UNL1        0.0026
     21 C           3.7597   42.0313   10.6361 C.ar    1  UNL1        0.0320
     22 C           4.1237   42.7552    9.4993 C.ar    1  UNL1        0.1675
     23 C           5.4666   42.8246    9.1055 C.ar    1  UNL1        0.1717
     24 F           3.1688   43.3914    8.7776 F       1  UNL1       -0.2018
     25 F           5.7824   43.5377    7.9950 F       1  UNL1       -0.2016
     26 C          14.5580   37.3485    9.9532 C.2     1  UNL1        0.3623
     27 O          14.9591   37.2439    8.7601 O.2     1  UNL1       -0.2457
     28 O          14.1635   36.2125   10.6646 O.3     1  UNL1       -0.4458
     29 C          11.8008   35.8189   10.7398 C.3     1  UNL1        0.0513
     30 C          13.1355   35.3526   10.1971 C.3     1  UNL1        0.2087
@<TRIPOS>BOND
     1    29    30    1
     2    30    28    1
     3    26    28    1
     4     1    26    1
     5     1     2    1
     6     1    10    1
     7     1     9    1
     8     3    10    1
     9     4     5   ar
    10     5    16    1
    11    14    18    1
    12    19    20   ar
    13    21    22   ar
    14    22    24    1
    15    23    25    1
    16    23    18   ar
    17     6     7   ar
    18     8    12    1
    19     8     3   ar
    20    16    14   am
    21    12     9   am
    22    26    27    2
    23     3     4   ar
    24     5     6   ar
    25    14    15    2
    26    18    19   ar
    27    20    21   ar
    28    22    23   ar
    29     7     8   ar
    30     9    11    2
    31    16    17    1
    32    12    13    1
@<TRIPOS>MOLECULE
MolPort-035-706-973 CSSS03437789228 MCULE-3084670648 PubChem-91938298
 30 32 0 0 0
SMALL
GASTEIGER

@<TRIPOS>ATOM
      1 C          13.7761   38.8134   10.5663 C.3     1  UNL1        0.2880
      2 C          14.4837   38.7442   11.9121 C.3     1  UNL1        0.0650
      3 C          11.7423   40.2505   10.2056 C.ar    1  UNL1        0.1542
      4 C          10.3858   40.4603   10.4699 C.ar    1  UNL1        0.0529
      5 C           9.7006   41.5212    9.8673 C.ar    1  UNL1        0.0537
      6 C          10.3907   42.3763    8.9939 C.ar    1  UNL1        0.0162
      7 C          11.7476   42.1716    8.7296 C.ar    1  UNL1        0.0190
      8 C          12.4215   41.1088    9.3354 C.ar    1  UNL1        0.0850
      9 C          14.5018   39.8074    9.6817 C.2     1  UNL1        0.2732
     10 O          12.4112   39.1848   10.8176 O.3     1  UNL1       -0.4618
     11 O          15.7326   39.6651    9.4497 O.2     1  UNL1       -0.2704
     12 N          13.8055   40.8998    9.0818 N.am    1  UNL1       -0.2783
     13 H          14.2891   41.5160    8.4853 H       1  UNL1        0.1551
     14 C           7.2061   41.5590    9.2557 C.2     1  UNL1        0.2518
     15 O           7.4125   41.2473    8.0509 O.2     1  UNL1       -0.2697
     16 N           8.3089   41.6993   10.1642 N.am    1  UNL1       -0.2802
     17 H           8.0857   41.9443   11.0912 H       1  UNL1        0.1552
     18 C           5.8162   41.7781    9.7212 C.ar    1  UNL1        0.0833
     19 C           4.9290   42.4868    8.8950 C.ar    1  UNL1        0.0069
     20 C           3.6106   42.7175    9.2919 C.ar    1  UNL1        0.0026
     21 C           3.1601   42.2415   10.5232 C.ar    1  UNL1        0.0320
     22 C           4.0269   41.5346   11.3587 C.ar    1  UNL1        0.1675
     23 C           5.3513   41.2995   10.9667 C.ar    1  UNL1        0.1717
     24 F           3.5788   41.0766   12.5532 F       1  UNL1       -0.2018
     25 F           6.1646   40.6088   11.8051 F       1  UNL1       -0.2016
     26 C          13.7948   37.4617    9.9055 C.2     1  UNL1        0.3623
     27 O          12.8060   37.0736    9.2221 O.2     1  UNL1       -0.2457
     28 O          14.8877   36.6143   10.1050 O.3     1  UNL1       -0.4458
     29 C          15.4078   34.7664    8.6707 C.3     1  UNL1        0.0513
     30 C          15.7239   36.2019    9.0349 C.3     1  UNL1        0.2087
@<TRIPOS>BOND
     1    29    30    1
     2    30    28    1
     3    26    28    1
     4     1    26    1
     5     1     2    1
     6     1    10    1
     7     1     9    1
     8     3    10    1
     9     4     5   ar
    10     5    16    1
    11    14    18    1
    12    19    20   ar
    13    21    22   ar
    14    22    24    1
    15    23    25    1
    16    23    18   ar
    17     6     7   ar
    18     8    12    1
    19     8     3   ar
    20    16    14   am
    21    12     9   am
    22    26    27    2
    23     3     4   ar
    24     5     6   ar
    25    14    15    2
    26    18    19   ar
    27    20    21   ar
    28    22    23   ar
    29     7     8   ar
    30     9    11    2
    31    16    17    1
    32    12    13    1
@<TRIPOS>MOLECULE
MolPort-035-706-973 CSSS03437789228 MCULE-3084670648 PubChem-91938298
 30 32 0 0 0
SMALL
GASTEIGER

@<TRIPOS>ATOM
      1 C           7.2817   41.4554    6.8340 C.3     1  UNL1        0.2880
      2 C           6.5582   42.6890    6.3128 C.3     1  UNL1        0.0650
      3 C           9.5332   41.6056    7.9474 C.ar    1  UNL1        0.1542
      4 C          10.9028   41.8486    7.8081 C.ar    1  UNL1        0.0529
      5 C          11.7641   41.7057    8.9016 C.ar    1  UNL1        0.0537
      6 C          11.2382   41.3171   10.1437 C.ar    1  UNL1        0.0162
      7 C           9.8691   41.0764   10.2875 C.ar    1  UNL1        0.0190
      8 C           9.0185   41.2205    9.1892 C.ar    1  UNL1        0.0850
      9 C           6.7443   41.1171    8.2102 C.2     1  UNL1        0.2732
     10 O           8.6869   41.7538    6.8430 O.3     1  UNL1       -0.4618
     11 O           5.5098   40.9241    8.3761 O.2     1  UNL1       -0.2704
     12 N           7.6219   40.9894    9.3289 N.am    1  UNL1       -0.2783
     13 H           7.2561   40.7383   10.2078 H       1  UNL1        0.1551
     14 C          13.8416   42.1880    7.4700 C.2     1  UNL1        0.2518
     15 O          13.1987   42.1715    6.3848 O.2     1  UNL1       -0.2697
     16 N          13.1626   41.9627    8.7148 N.am    1  UNL1       -0.2802
     17 H          13.7169   41.9873    9.5280 H       1  UNL1        0.1552
     18 C          15.3015   42.4418    7.4453 C.ar    1  UNL1        0.0833
     19 C          16.1072   41.8593    8.4370 C.ar    1  UNL1        0.0069
     20 C          17.4871   42.0706    8.4538 C.ar    1  UNL1        0.0026
     21 C          18.0816   42.8691    7.4768 C.ar    1  UNL1        0.0320
     22 C          17.2977   43.4569    6.4825 C.ar    1  UNL1        0.1675
     23 C          15.9123   43.2491    6.4596 C.ar    1  UNL1        0.1717
     24 F          17.8858   44.2311    5.5379 F       1  UNL1       -0.2018
     25 F          15.1829   43.8367    5.4777 F       1  UNL1       -0.2016
     26 C           7.0414   40.2907    5.9123 C.2     1  UNL1        0.3623
     27 O           6.0070   39.5779    6.0437 O.2     1  UNL1       -0.2457
     28 O           8.0015   39.9660    4.9504 O.3     1  UNL1       -0.4458
     29 C           9.9911   39.0037    4.0240 C.3     1  UNL1        0.0513
     30 C           9.0908   39.1026    5.2377 C.3     1  UNL1        0.2087
@<TRIPOS>BOND
     1    29    30    1
     2    30    28    1
     3    26    28    1
     4     1    26    1
     5     1     2    1
     6     1    10    1
     7     1     9    1
     8     3    10    1
     9     4     5   ar
    10     5    16    1
    11    14    18    1
    12    19    20   ar
    13    21    22   ar
    14    22    24    1
    15    23    25    1
    16    23    18   ar
    17     6     7   ar
    18     8    12    1
    19     8     3   ar
    20    16    14   am
    21    12     9   am
    22    26    27    2
    23     3     4   ar
    24     5     6   ar
    25    14    15    2
    26    18    19   ar
    27    20    21   ar
    28    22    23   ar
    29     7     8   ar
    30     9    11    2
    31    16    17    1
    32    12    13    1
@<TRIPOS>MOLECULE
MolPort-035-706-973 CSSS03437789228 MCULE-3084670648 PubChem-91938298
 30 32 0 0 0
SMALL
GASTEIGER

@<TRIPOS>ATOM
      1 C          15.0414   38.5031   10.5818 C.3     1  UNL1        0.2880
      2 C          15.1203   38.5180   12.1018 C.3     1  UNL1        0.0650
      3 C          13.6847   40.1938    9.3041 C.ar    1  UNL1        0.1542
      4 C          12.4161   40.6683    8.9584 C.ar    1  UNL1        0.0529
      5 C          12.2760   41.7272    8.0544 C.ar    1  UNL1        0.0537
      6 C          13.4246   42.3115    7.4980 C.ar    1  UNL1        0.0162
      7 C          14.6947   41.8419    7.8436 C.ar    1  UNL1        0.0190
      8 C          14.8231   40.7834    8.7458 C.ar    1  UNL1        0.0850
      9 C          16.2563   39.2148   10.0210 C.2     1  UNL1        0.2732
     10 O          13.8056   39.1343   10.2100 O.3     1  UNL1       -0.4618
     11 O          17.4146   38.8324   10.3387 O.2     1  UNL1       -0.2704
     12 N          16.1121   40.3067    9.1127 N.am    1  UNL1       -0.2783
     13 H          16.9144   40.7350    8.7358 H       1  UNL1        0.1551
     14 C           9.8768   42.4357    8.6374 C.2     1  UNL1        0.2518
     15 O          10.0384   42.2602    9.8761 O.2     1  UNL1       -0.2697
     16 N          10.9562   42.1817    7.7254 N.am    1  UNL1       -0.2802
     17 H          10.7702   42.3363    6.7711 H       1  UNL1        0.1552
     18 C           8.5638   42.9057    8.1359 C.ar    1  UNL1        0.0833
     19 C           7.8430   43.8400    8.8970 C.ar    1  UNL1        0.0069
     20 C           6.6020   44.3110    8.4644 C.ar    1  UNL1        0.0026
     21 C           6.0635   43.8530    7.2619 C.ar    1  UNL1        0.0320
     22 C           6.7648   42.9242    6.4910 C.ar    1  UNL1        0.1675
     23 C           8.0107   42.4474    6.9191 C.ar    1  UNL1        0.1717
     24 F           6.2322   42.4858    5.3241 F       1  UNL1       -0.2018
     25 F           8.6631   41.5450    6.1433 F       1  UNL1       -0.2016
     26 C          15.0282   37.0840   10.0815 C.2     1  UNL1        0.3623
     27 O          16.0474   36.3509   10.2201 O.2     1  UNL1       -0.2457
     28 O          13.9027   36.6034    9.4073 O.3     1  UNL1       -0.4458
     29 C          11.9248   36.0591   10.6460 C.3     1  UNL1        0.0513
     30 C          13.1325   35.5212    9.9074 C.3     1  UNL1        0.2087
@<TRIPOS>BOND
     1    29    30    1
     2    30    28    1
     3    26    28    1
     4     1    26    1
     5     1     2    1
     6     1    10    1
     7     1     9    1
     8     3    10    1
     9     4     5   ar
    10     5    16    1
    11    14    18    1
    12    19    20   ar
    13    21    22   ar
    14    22    24    1
    15    23    25    1
    16    23    18   ar
    17     6     7   ar
    18     8    12    1
    19     8     3   ar
    20    16    14   am
    21    12     9   am
    22    26    27    2
    23     3     4   ar
    24     5     6   ar
    25    14    15    2
    26    18    19   ar
    27    20    21   ar
    28    22    23   ar
    29     7     8   ar
    30     9    11    2
    31    16    17    1
    32    12    13    1
@<TRIPOS>MOLECULE
MolPort-035-706-973 CSSS03437789228 MCULE-3084670648 PubChem-91938298
 30 32 0 0 0
SMALL
GASTEIGER

@<TRIPOS>ATOM
      1 C          14.1544   38.6779   10.8037 C.3     1  UNL1        0.2880
      2 C          14.8852   38.7670   12.1359 C.3     1  UNL1        0.0650
      3 C          12.1926   40.1573   10.2616 C.ar    1  UNL1        0.1542
      4 C          10.8549   40.4785   10.5096 C.ar    1  UNL1        0.0529
      5 C          10.2145   41.4762    9.7662 C.ar    1  UNL1        0.0537
      6 C          10.9306   42.1548    8.7677 C.ar    1  UNL1        0.0162
      7 C          12.2690   41.8386    8.5190 C.ar    1  UNL1        0.0190
      8 C          12.8981   40.8401    9.2659 C.ar    1  UNL1        0.0850
      9 C          14.9132   39.4899    9.7733 C.2     1  UNL1        0.2732
     10 O          12.8167   39.1571   11.0151 O.3     1  UNL1       -0.4618
     11 O          16.1296   39.2472    9.5490 O.2     1  UNL1       -0.2704
     12 N          14.2635   40.5198    9.0281 N.am    1  UNL1       -0.2783
     13 H          14.7665   41.0143    8.3413 H       1  UNL1        0.1551
     14 C           7.6972   41.4199    9.2584 C.2     1  UNL1        0.2518
     15 O           7.8453   40.7796    8.1816 O.2     1  UNL1       -0.2697
     16 N           8.8407   41.7728   10.0515 N.am    1  UNL1       -0.2802
     17 H           8.6625   42.2724   10.8809 H       1  UNL1        0.1552
     18 C           6.3333   41.8026    9.6939 C.ar    1  UNL1        0.0833
     19 C           5.8512   41.3135   10.9187 C.ar    1  UNL1        0.0069
     20 C           4.5727   41.6471   11.3695 C.ar    1  UNL1        0.0026
     21 C           3.7569   42.4764   10.5999 C.ar    1  UNL1        0.0320
     22 C           4.2181   42.9728    9.3793 C.ar    1  UNL1        0.1675
     23 C           5.5000   42.6420    8.9209 C.ar    1  UNL1        0.1717
     24 F           3.4169   43.7778    8.6393 F       1  UNL1       -0.2018
     25 F           5.9139   43.1433    7.7297 F       1  UNL1       -0.2016
     26 C          14.0877   37.2451   10.3489 C.2     1  UNL1        0.3623
     27 O          14.2767   36.3064   11.1726 O.2     1  UNL1       -0.2457
     28 O          13.8770   36.9624    8.9969 O.3     1  UNL1       -0.4458
     29 C          15.0734   34.9148    8.6519 C.3     1  UNL1        0.0513
     30 C          14.8715   36.3443    8.1946 C.3     1  UNL1        0.2087
@<TRIPOS>BOND
     1    29    30    1
     2    30    28    1
     3    26    28    1
     4     1    26    1
     5     1     2    1
     6     1    10    1
     7     1     9    1
     8     3    10    1
     9     4     5   ar
    10     5    16    1
    11    14    18    1
    12    19    20   ar
    13    21    22   ar
    14    22    24    1
    15    23    25    1
    16    23    18   ar
    17     6     7   ar
    18     8    12    1
    19     8     3   ar
    20    16    14   am
    21    12     9   am
    22    26    27    2
    23     3     4   ar
    24     5     6   ar
    25    14    15    2
    26    18    19   ar
    27    20    21   ar
    28    22    23   ar
    29     7     8   ar
    30     9    11    2
    31    16    17    1
    32    12    13    1
@<TRIPOS>MOLECULE
MolPort-035-706-973 CSSS03437789228 MCULE-3084670648 PubChem-91938298
 30 32 0 0 0
SMALL
GASTEIGER

@<TRIPOS>ATOM
      1 C          15.8498   38.8669   10.3801 C.3     1  UNL1        0.2880
      2 C          16.3004   38.9202   11.8331 C.3     1  UNL1        0.0650
      3 C          13.7195   39.9605    9.6076 C.ar    1  UNL1        0.1542
      4 C          12.3216   39.9543    9.6155 C.ar    1  UNL1        0.0529
      5 C          11.6029   40.8888    8.8616 C.ar    1  UNL1        0.0537
      6 C          12.3009   41.8365    8.0967 C.ar    1  UNL1        0.0162
      7 C          13.6984   41.8478    8.0886 C.ar    1  UNL1        0.0190
      8 C          14.4058   40.9096    8.8437 C.ar    1  UNL1        0.0850
      9 C          16.5629   39.9572    9.6056 C.2     1  UNL1        0.2732
     10 O          14.4213   39.0188   10.3679 O.3     1  UNL1       -0.4618
     11 O          17.8223   40.0104    9.6045 O.2     1  UNL1       -0.2704
     12 N          15.8282   40.9210    8.8513 N.am    1  UNL1       -0.2783
     13 H          16.3117   41.6019    8.3299 H       1  UNL1        0.1551
     14 C           9.2979   41.6916    9.6618 C.2     1  UNL1        0.2518
     15 O           9.7780   42.5902   10.4057 O.2     1  UNL1       -0.2697
     16 N          10.1699   40.8460    8.8963 N.am    1  UNL1       -0.2802
     17 H           9.7373   40.1629    8.3346 H       1  UNL1        0.1552
     18 C           7.8279   41.5193    9.5873 C.ar    1  UNL1        0.0833
     19 C           7.2388   41.2581    8.3397 C.ar    1  UNL1        0.0069
     20 C           5.8581   41.0888    8.2212 C.ar    1  UNL1        0.0026
     21 C           5.0456   41.1787    9.3514 C.ar    1  UNL1        0.0320
     22 C           5.6123   41.4377   10.6007 C.ar    1  UNL1        0.1675
     23 C           6.9971   41.6085   10.7268 C.ar    1  UNL1        0.1717
     24 F           4.8134   41.5230   11.6925 F       1  UNL1       -0.2018
     25 F           7.5119   41.8589   11.9572 F       1  UNL1       -0.2016
     26 C          16.1984   37.5307    9.7825 C.2     1  UNL1        0.3623
     27 O          15.7207   37.1895    8.6641 O.2     1  UNL1       -0.2457
     28 O          17.0041   36.6449   10.5026 O.3     1  UNL1       -0.4458
     29 C          18.7767   35.8352    9.1079 C.3     1  UNL1        0.0513
     30 C          18.4152   36.6204   10.3514 C.3     1  UNL1        0.2087
@<TRIPOS>BOND
     1    29    30    1
     2    30    28    1
     3    26    28    1
     4     1    26    1
     5     1     2    1
     6     1    10    1
     7     1     9    1
     8     3    10    1
     9     4     5   ar
    10     5    16    1
    11    14    18    1
    12    19    20   ar
    13    21    22   ar
    14    22    24    1
    15    23    25    1
    16    23    18   ar
    17     6     7   ar
    18     8    12    1
    19     8     3   ar
    20    16    14   am
    21    12     9   am
    22    26    27    2
    23     3     4   ar
    24     5     6   ar
    25    14    15    2
    26    18    19   ar
    27    20    21   ar
    28    22    23   ar
    29     7     8   ar
    30     9    11    2
    31    16    17    1
    32    12    13    1
@<TRIPOS>MOLECULE
MolPort-035-706-973 CSSS03437789228 MCULE-3084670648 PubChem-91938298
 30 32 0 0 0
SMALL
GASTEIGER

@<TRIPOS>ATOM
      1 C          14.4487   38.6474   10.6267 C.3     1  UNL1        0.2880
      2 C          14.9894   38.7416   12.0464 C.3     1  UNL1        0.0650
      3 C          12.8215   40.3330    9.7089 C.ar    1  UNL1        0.1542
      4 C          11.5239   40.8525    9.7328 C.ar    1  UNL1        0.0529
      5 C          11.1481   41.8659    8.8441 C.ar    1  UNL1        0.0537
      6 C          12.0897   42.3588    7.9271 C.ar    1  UNL1        0.0162
      7 C          13.3887   41.8442    7.9022 C.ar    1  UNL1        0.0190
      8 C          13.7528   40.8317    8.7928 C.ar    1  UNL1        0.0850
      9 C          15.4561   39.2637    9.6767 C.2     1  UNL1        0.2732
     10 O          13.1795   39.3201   10.6052 O.3     1  UNL1       -0.4618
     11 O          16.6431   38.8402    9.6533 O.2     1  UNL1       -0.2704
     12 N          15.0762   40.3101    8.7830 N.am    1  UNL1       -0.2783
     13 H          15.7381   40.6751    8.1522 H       1  UNL1        0.1551
     14 C           8.7748   42.1935    7.9179 C.2     1  UNL1        0.2518
     15 O           9.0060   41.5364    6.8662 O.2     1  UNL1       -0.2697
     16 N           9.8064   42.3690    8.9009 N.am    1  UNL1       -0.2802
     17 H           9.5668   42.8913    9.7003 H       1  UNL1        0.1552
     18 C           7.4300   42.7804    8.1265 C.ar    1  UNL1        0.0833
     19 C           6.9706   43.7574    7.2285 C.ar    1  UNL1        0.0069
     20 C           5.7109   44.3382    7.3855 C.ar    1  UNL1        0.0026
     21 C           4.8913   43.9492    8.4450 C.ar    1  UNL1        0.0320
     22 C           5.3300   42.9795    9.3483 C.ar    1  UNL1        0.1675
     23 C           6.5931   42.3923    9.1967 C.ar    1  UNL1        0.1717
     24 F           4.5255   42.6088   10.3744 F       1  UNL1       -0.2018
     25 F           6.9854   41.4532   10.0944 F       1  UNL1       -0.2016
     26 C          14.2373   37.2056   10.2517 C.2     1  UNL1        0.3623
     27 O          15.0129   36.3125   10.6947 O.2     1  UNL1       -0.2457
     28 O          13.2149   36.8700    9.3605 O.3     1  UNL1       -0.4458
     29 C          11.7491   35.6701   10.8284 C.3     1  UNL1        0.0513
     30 C          11.8630   36.7542    9.7771 C.3     1  UNL1        0.2087
@<TRIPOS>BOND
     1    29    30    1
     2    30    28    1
     3    26    28    1
     4     1    26    1
     5     1     2    1
     6     1    10    1
     7     1     9    1
     8     3    10    1
     9     4     5   ar
    10     5    16    1
    11    14    18    1
    12    19    20   ar
    13    21    22   ar
    14    22    24    1
    15    23    25    1
    16    23    18   ar
    17     6     7   ar
    18     8    12    1
    19     8     3   ar
    20    16    14   am
    21    12     9   am
    22    26    27    2
    23     3     4   ar
    24     5     6   ar
    25    14    15    2
    26    18    19   ar
    27    20    21   ar
    28    22    23   ar
    29     7     8   ar
    30     9    11    2
    31    16    17    1
    32    12    13    1
@<TRIPOS>MOLECULE
MolPort-035-706-973 CSSS03437789228 MCULE-3084670648 PubChem-91938298
 30 32 0 0 0
SMALL
GASTEIGER

@<TRIPOS>ATOM
      1 C          14.6705   38.5166   10.6945 C.3     1  UNL1        0.2880
      2 C          15.2798   38.6008   12.0868 C.3     1  UNL1        0.0650
      3 C          12.9257   40.1490    9.9056 C.ar    1  UNL1        0.1542
      4 C          11.6097   40.6089   10.0094 C.ar    1  UNL1        0.0529
      5 C          11.1443   41.6256    9.1680 C.ar    1  UNL1        0.0537
      6 C          12.0144   42.1822    8.2175 C.ar    1  UNL1        0.0162
      7 C          13.3316   41.7272    8.1129 C.ar    1  UNL1        0.0190
      8 C          13.7854   40.7109    8.9567 C.ar    1  UNL1        0.0850
      9 C          15.5992   39.2003    9.7110 C.2     1  UNL1        0.2732
     10 O          13.3738   39.1319   10.7556 O.3     1  UNL1       -0.4618
     11 O          16.8007   38.8312    9.6160 O.2     1  UNL1       -0.2704
     12 N          15.1279   40.2497    8.8657 N.am    1  UNL1       -0.2783
     13 H          15.7395   40.6592    8.2119 H       1  UNL1        0.1551
     14 C           8.6205   41.4735    8.7149 C.2     1  UNL1        0.2518
     15 O           8.7303   40.4521    7.9826 O.2     1  UNL1       -0.2697
     16 N           9.7866   42.0664    9.3064 N.am    1  UNL1       -0.2802
     17 H           9.6383   42.8615    9.8676 H       1  UNL1        0.1552
     18 C           7.2779   42.0525    8.9568 C.ar    1  UNL1        0.0833
     19 C           6.4274   41.4271    9.8828 C.ar    1  UNL1        0.0069
     20 C           5.1539   41.9367   10.1429 C.ar    1  UNL1        0.0026
     21 C           4.7125   43.0813    9.4791 C.ar    1  UNL1        0.0320
     22 C           5.5433   43.7174    8.5550 C.ar    1  UNL1        0.1675
     23 C           6.8225   43.2115    8.2892 C.ar    1  UNL1        0.1717
     24 F           5.1042   44.8291    7.9155 F       1  UNL1       -0.2018
     25 F           7.6017   43.8566    7.3846 F       1  UNL1       -0.2016
     26 C          14.5030   37.0762   10.2930 C.2     1  UNL1        0.3623
     27 O          14.2267   36.2014   11.1612 O.2     1  UNL1       -0.2457
     28 O          14.7167   36.7041    8.9632 O.3     1  UNL1       -0.4458
     29 C          15.7276   35.5652    7.1129 C.3     1  UNL1        0.0513
     30 C          15.5361   35.5988    8.6147 C.3     1  UNL1        0.2087
@<TRIPOS>BOND
     1    29    30    1
     2    30    28    1
     3    26    28    1
     4     1    26    1
     5     1     2    1
     6     1    10    1
     7     1     9    1
     8     3    10    1
     9     4     5   ar
    10     5    16    1
    11    14    18    1
    12    19    20   ar
    13    21    22   ar
    14    22    24    1
    15    23    25    1
    16    23    18   ar
    17     6     7   ar
    18     8    12    1
    19     8     3   ar
    20    16    14   am
    21    12     9   am
    22    26    27    2
    23     3     4   ar
    24     5     6   ar
    25    14    15    2
    26    18    19   ar
    27    20    21   ar
    28    22    23   ar
    29     7     8   ar
    30     9    11    2
    31    16    17    1
    32    12    13    1
