@<TRIPOS>MOLECULE
Molport-020-293-031 MCULE-3541316291 PubChem-110265498
 27 29 0 0 0
SMALL
GASTEIGER

@<TRIPOS>ATOM
      1 C          12.3702   41.7156    6.3965 C.ar    1  UNL1        0.1328
      2 C          11.1336   41.3099    5.8764 C.ar    1  UNL1        0.0344
      3 C          10.4809   40.2076    6.4284 C.ar    1  UNL1        0.0041
      4 C          11.0624   39.5185    7.4917 C.ar    1  UNL1        0.0149
      5 C          12.3000   39.9461    7.9913 C.ar    1  UNL1        0.0614
      6 N          12.9152   41.0247    7.4350 N.ar    1  UNL1       -0.2348
      7 C          12.9590   39.2395    9.1324 C.3     1  UNL1        0.0581
      8 C          12.9068   40.0758   10.4030 C.3     1  UNL1        0.0089
      9 C          13.5604   39.3032   11.5354 C.3     1  UNL1        0.0196
     10 C          15.0020   38.9509   11.1630 C.3     1  UNL1        0.0969
     11 C          14.4081   38.8770    8.7915 C.3     1  UNL1        0.1027
     12 N          15.1000   38.2029    9.8999 N.3     1  UNL1       -0.1450
     13 S          14.5412   36.5616   10.0856 S.O2    1  UNL1        0.1021
     14 O          14.2950   36.2861   11.5444 O.2     1  UNL1       -0.1408
     15 O          13.2595   36.3538    9.3259 O.2     1  UNL1       -0.1408
     16 C          16.5799   36.2105    8.5414 C.3     1  UNL1        0.1161
     17 C          15.0651   34.4447    8.7081 C.3     1  UNL1        0.1161
     18 N          15.7473   35.4723    9.4756 N.3     1  UNL1       -0.1424
     19 N          13.0827   42.8423    5.8660 N.pl3   1  UNL1       -0.2834
     20 H          12.6208   43.3606    5.1680 H       1  UNL1        0.1550
     21 C          17.2049   42.2532    8.4537 C.3     1  UNL1        0.0521
     22 C          16.4016   43.0377    7.4805 C.ar    1  UNL1        0.0608
     23 C          14.3904   43.3003    6.2355 C.ar    1  UNL1        0.1328
     24 C          14.8802   44.4797    5.6681 C.ar    1  UNL1        0.0344
     25 C          16.1519   44.9353    6.0203 C.ar    1  UNL1        0.0041
     26 C          16.9212   44.2120    6.9326 C.ar    1  UNL1        0.0148
     27 N          15.1602   42.6110    7.1241 N.ar    1  UNL1       -0.2349
@<TRIPOS>BOND
     1    21    22    1
     2    23    27   ar
     3    23    19    1
     4    24    25   ar
     5    26    22   ar
     6     1     6   ar
     7     2     3   ar
     8     4     5   ar
     9     7     5    1
    10     7     8    1
    11     8     9    1
    12     9    10    1
    13    10    12    1
    14    11    12    1
    15    11     7    1
    16    16    18    1
    17    17    18    1
    18    19     1    1
    19    13    12    1
    20    13    18    1
    21    22    27   ar
    22    23    24   ar
    23    25    26   ar
    24     1     2   ar
    25     3     4   ar
    26     5     6   ar
    27    13    14    2
    28    13    15    2
    29    19    20    1
@<TRIPOS>MOLECULE
Molport-020-293-031 MCULE-3541316291 PubChem-110265498
 27 29 0 0 0
SMALL
GASTEIGER

@<TRIPOS>ATOM
      1 C          11.9325   41.3076    6.7593 C.ar    1  UNL1        0.1328
      2 C          10.5646   41.5735    6.9092 C.ar    1  UNL1        0.0344
      3 C           9.7955   40.7763    7.7570 C.ar    1  UNL1        0.0041
      4 C          10.3920   39.7225    8.4479 C.ar    1  UNL1        0.0149
      5 C          11.7617   39.4793    8.2784 C.ar    1  UNL1        0.0614
      6 N          12.4892   40.2724    7.4457 N.ar    1  UNL1       -0.2348
      7 C          12.4441   38.3625    9.0015 C.3     1  UNL1        0.0581
      8 C          11.4430   37.3165    9.4707 C.3     1  UNL1        0.0089
      9 C          12.1875   36.1927   10.1703 C.3     1  UNL1        0.0196
     10 C          12.9947   36.7524   11.3434 C.3     1  UNL1        0.0969
     11 C          13.2582   38.8913   10.1868 C.3     1  UNL1        0.1027
     12 N          13.9244   37.8193   10.9408 N.3     1  UNL1       -0.1450
     13 S          15.2848   37.1798   10.0572 S.O2    1  UNL1        0.1021
     14 O          15.0630   35.7133    9.8030 O.2     1  UNL1       -0.1408
     15 O          15.4339   37.8873    8.7380 O.2     1  UNL1       -0.1408
     16 C          16.7970   38.8026   11.3776 C.3     1  UNL1        0.1161
     17 C          17.8635   37.1582   10.1131 C.3     1  UNL1        0.1161
     18 N          16.7315   37.4040   10.9899 N.3     1  UNL1       -0.1424
     19 N          12.7684   42.0968    5.9007 N.pl3   1  UNL1       -0.2834
     20 H          12.4918   42.1559    4.9577 H       1  UNL1        0.1550
     21 C          16.9749   42.3306    8.4079 C.3     1  UNL1        0.0521
     22 C          16.0072   42.9480    7.4644 C.ar    1  UNL1        0.0608
     23 C          13.9603   42.8094    6.2582 C.ar    1  UNL1        0.1328
     24 C          14.1841   44.0741    5.7074 C.ar    1  UNL1        0.0344
     25 C          15.3410   44.7772    6.0481 C.ar    1  UNL1        0.0041
     26 C          16.2616   44.2135    6.9326 C.ar    1  UNL1        0.0148
     27 N          14.8738   42.2796    7.1196 N.ar    1  UNL1       -0.2349
@<TRIPOS>BOND
     1    21    22    1
     2    23    27   ar
     3    23    19    1
     4    24    25   ar
     5    26    22   ar
     6     1     6   ar
     7     2     3   ar
     8     4     5   ar
     9     7     5    1
    10     7     8    1
    11     8     9    1
    12     9    10    1
    13    10    12    1
    14    11    12    1
    15    11     7    1
    16    16    18    1
    17    17    18    1
    18    19     1    1
    19    13    12    1
    20    13    18    1
    21    22    27   ar
    22    23    24   ar
    23    25    26   ar
    24     1     2   ar
    25     3     4   ar
    26     5     6   ar
    27    13    14    2
    28    13    15    2
    29    19    20    1
@<TRIPOS>MOLECULE
Molport-020-293-031 MCULE-3541316291 PubChem-110265498
 27 29 0 0 0
SMALL
GASTEIGER

@<TRIPOS>ATOM
      1 C          15.5198   40.2020    9.8148 C.ar    1  UNL1        0.1328
      2 C          15.7310   39.3410   10.9003 C.ar    1  UNL1        0.0344
      3 C          14.6366   38.7965   11.5724 C.ar    1  UNL1        0.0041
      4 C          13.3428   39.1123   11.1603 C.ar    1  UNL1        0.0149
      5 C          13.1612   39.9766   10.0721 C.ar    1  UNL1        0.0614
      6 N          14.2460   40.4935    9.4337 N.ar    1  UNL1       -0.2348
      7 C          11.7922   40.3403    9.5936 C.3     1  UNL1        0.0581
      8 C          11.2411   39.2851    8.6452 C.3     1  UNL1        0.0089
      9 C           9.8412   39.6854    8.2133 C.3     1  UNL1        0.0196
     10 C           9.8740   41.0637    7.5497 C.3     1  UNL1        0.0969
     11 C          11.7930   41.7158    8.9188 C.3     1  UNL1        0.1027
     12 N          10.4677   42.0989    8.4101 N.3     1  UNL1       -0.1450
     13 S           9.3956   42.5368    9.7137 S.O2    1  UNL1        0.1021
     14 O           9.6537   41.6340   10.8896 O.2     1  UNL1       -0.1408
     15 O           9.6312   43.9627   10.1313 O.2     1  UNL1       -0.1408
     16 C           7.2428   43.6871    8.8732 C.3     1  UNL1        0.1161
     17 C           6.9767   41.8725   10.3143 C.3     1  UNL1        0.1161
     18 N           7.7507   42.3626    9.1869 N.3     1  UNL1       -0.1424
     19 N          16.6098   40.7884    9.0892 N.pl3   1  UNL1       -0.2834
     20 H          17.4679   40.3073    9.1280 H       1  UNL1        0.1550
     21 C          14.3166   43.7799    5.9543 C.3     1  UNL1        0.0521
     22 C          15.5018   43.4642    6.7931 C.ar    1  UNL1        0.0608
     23 C          16.5932   41.9946    8.3140 C.ar    1  UNL1        0.1328
     24 C          17.6982   42.8486    8.3666 C.ar    1  UNL1        0.0344
     25 C          17.6933   44.0258    7.6162 C.ar    1  UNL1        0.0041
     26 C          16.5891   44.3394    6.8225 C.ar    1  UNL1        0.0148
     27 N          15.5264   42.3222    7.5317 N.ar    1  UNL1       -0.2349
@<TRIPOS>BOND
     1    21    22    1
     2    23    27   ar
     3    23    19    1
     4    24    25   ar
     5    26    22   ar
     6     1     6   ar
     7     2     3   ar
     8     4     5   ar
     9     7     5    1
    10     7     8    1
    11     8     9    1
    12     9    10    1
    13    10    12    1
    14    11    12    1
    15    11     7    1
    16    16    18    1
    17    17    18    1
    18    19     1    1
    19    13    12    1
    20    13    18    1
    21    22    27   ar
    22    23    24   ar
    23    25    26   ar
    24     1     2   ar
    25     3     4   ar
    26     5     6   ar
    27    13    14    2
    28    13    15    2
    29    19    20    1
@<TRIPOS>MOLECULE
Molport-020-293-031 MCULE-3541316291 PubChem-110265498
 27 29 0 0 0
SMALL
GASTEIGER

@<TRIPOS>ATOM
      1 C          14.3189   40.3496    9.3225 C.ar    1  UNL1        0.1328
      2 C          14.0153   39.9674   10.6362 C.ar    1  UNL1        0.0344
      3 C          12.6973   39.6669   10.9803 C.ar    1  UNL1        0.0041
      4 C          11.6932   39.7489   10.0166 C.ar    1  UNL1        0.0149
      5 C          12.0256   40.1343    8.7109 C.ar    1  UNL1        0.0614
      6 N          13.3192   40.4214    8.4015 N.ar    1  UNL1       -0.2348
      7 C          10.9823   40.2325    7.6444 C.3     1  UNL1        0.0581
      8 C          11.3324   39.3588    6.4483 C.3     1  UNL1        0.0089
      9 C          10.2299   39.4703    5.4098 C.3     1  UNL1        0.0196
     10 C          10.0502   40.9319    4.9944 C.3     1  UNL1        0.0969
     11 C          10.7823   41.6859    7.2029 C.3     1  UNL1        0.1027
     12 N           9.7812   41.8218    6.1347 N.3     1  UNL1       -0.1450
     13 S           8.1664   41.5961    6.7529 S.O2    1  UNL1        0.1021
     14 O           7.2499   41.2297    5.6170 O.2     1  UNL1       -0.1408
     15 O           8.1445   40.4918    7.7743 O.2     1  UNL1       -0.1408
     16 C           7.0508   42.7299    8.7860 C.3     1  UNL1        0.1161
     17 C           6.5453   43.6010    6.6822 C.3     1  UNL1        0.1161
     18 N           7.6252   43.0689    7.4953 N.3     1  UNL1       -0.1424
     19 N          15.6575   40.6687    8.9161 N.pl3   1  UNL1       -0.2834
     20 H          16.3383   39.9760    9.0767 H       1  UNL1        0.1550
     21 C          15.0027   44.2966    5.6842 C.3     1  UNL1        0.0521
     22 C          15.8239   43.6530    6.7423 C.ar    1  UNL1        0.0608
     23 C          16.1176   41.8806    8.3031 C.ar    1  UNL1        0.1328
     24 C          17.3337   42.4299    8.7179 C.ar    1  UNL1        0.0344
     25 C          17.7918   43.6095    8.1283 C.ar    1  UNL1        0.0041
     26 C          17.0344   44.2285    7.1330 C.ar    1  UNL1        0.0148
     27 N          15.3954   42.5033    7.3293 N.ar    1  UNL1       -0.2349
@<TRIPOS>BOND
     1    21    22    1
     2    23    27   ar
     3    23    19    1
     4    24    25   ar
     5    26    22   ar
     6     1     6   ar
     7     2     3   ar
     8     4     5   ar
     9     7     5    1
    10     7     8    1
    11     8     9    1
    12     9    10    1
    13    10    12    1
    14    11    12    1
    15    11     7    1
    16    16    18    1
    17    17    18    1
    18    19     1    1
    19    13    12    1
    20    13    18    1
    21    22    27   ar
    22    23    24   ar
    23    25    26   ar
    24     1     2   ar
    25     3     4   ar
    26     5     6   ar
    27    13    14    2
    28    13    15    2
    29    19    20    1
@<TRIPOS>MOLECULE
Molport-020-293-031 MCULE-3541316291 PubChem-110265498
 27 29 0 0 0
SMALL
GASTEIGER

@<TRIPOS>ATOM
      1 C          13.0927   41.0182    8.4867 C.ar    1  UNL1        0.1328
      2 C          13.7544   40.2603    9.4624 C.ar    1  UNL1        0.0344
      3 C          13.1118   39.9734   10.6667 C.ar    1  UNL1        0.0041
      4 C          11.8180   40.4421   10.8909 C.ar    1  UNL1        0.0149
      5 C          11.1807   41.1982    9.8979 C.ar    1  UNL1        0.0614
      6 N          11.8299   41.4632    8.7318 N.ar    1  UNL1       -0.2348
      7 C           9.7926   41.7183   10.0936 C.3     1  UNL1        0.0581
      8 C           9.3751   41.6394   11.5551 C.3     1  UNL1        0.0089
      9 C           7.9739   42.2059   11.7045 C.3     1  UNL1        0.0196
     10 C           7.0016   41.4362   10.8083 C.3     1  UNL1        0.0969
     11 C           8.7930   40.9630    9.2117 C.3     1  UNL1        0.1027
     12 N           7.4103   41.4282    9.3950 N.3     1  UNL1       -0.1450
     13 S           7.1667   42.9866    8.6517 S.O2    1  UNL1        0.1021
     14 O           7.5278   44.0652    9.6370 O.2     1  UNL1       -0.1408
     15 O           8.0353   43.1284    7.4317 O.2     1  UNL1       -0.1408
     16 C           5.3621   44.3978    7.4616 C.3     1  UNL1        0.1161
     17 C           4.7157   43.2757    9.4016 C.3     1  UNL1        0.1161
     18 N           5.5019   43.1467    8.1868 N.3     1  UNL1       -0.1424
     19 N          13.7079   41.3409    7.2313 N.pl3   1  UNL1       -0.2834
     20 H          13.5625   40.7008    6.4976 H       1  UNL1        0.1550
     21 C          17.8377   43.9121    7.8390 C.3     1  UNL1        0.0521
     22 C          16.5056   43.7558    7.1995 C.ar    1  UNL1        0.0608
     23 C          14.5103   42.4885    6.9225 C.ar    1  UNL1        0.1328
     24 C          14.0172   43.4372    6.0226 C.ar    1  UNL1        0.0344
     25 C          14.7895   44.5585    5.7142 C.ar    1  UNL1        0.0041
     26 C          16.0432   44.7226    6.3048 C.ar    1  UNL1        0.0148
     27 N          15.7376   42.6705    7.4865 N.ar    1  UNL1       -0.2349
@<TRIPOS>BOND
     1    21    22    1
     2    23    27   ar
     3    23    19    1
     4    24    25   ar
     5    26    22   ar
     6     1     6   ar
     7     2     3   ar
     8     4     5   ar
     9     7     5    1
    10     7     8    1
    11     8     9    1
    12     9    10    1
    13    10    12    1
    14    11    12    1
    15    11     7    1
    16    16    18    1
    17    17    18    1
    18    19     1    1
    19    13    12    1
    20    13    18    1
    21    22    27   ar
    22    23    24   ar
    23    25    26   ar
    24     1     2   ar
    25     3     4   ar
    26     5     6   ar
    27    13    14    2
    28    13    15    2
    29    19    20    1
@<TRIPOS>MOLECULE
Molport-020-293-031 MCULE-3541316291 PubChem-110265498
 27 29 0 0 0
SMALL
GASTEIGER

@<TRIPOS>ATOM
      1 C          12.3664   42.0530    8.3961 C.ar    1  UNL1        0.1328
      2 C          11.2696   42.3761    9.2065 C.ar    1  UNL1        0.0344
      3 C          10.9826   41.5924   10.3241 C.ar    1  UNL1        0.0041
      4 C          11.7876   40.4949   10.6264 C.ar    1  UNL1        0.0149
      5 C          12.8775   40.1949    9.7981 C.ar    1  UNL1        0.0614
      6 N          13.1356   40.9761    8.7144 N.ar    1  UNL1       -0.2348
      7 C          13.7696   39.0299   10.0858 C.3     1  UNL1        0.0581
      8 C          13.9679   38.8438   11.5833 C.3     1  UNL1        0.0089
      9 C          14.8539   37.6335   11.8220 C.3     1  UNL1        0.0196
     10 C          16.1927   37.8172   11.1045 C.3     1  UNL1        0.0969
     11 C          15.1224   39.1868    9.3839 C.3     1  UNL1        0.1027
     12 N          16.0394   38.0721    9.6637 N.3     1  UNL1       -0.1450
     13 S          15.5574   36.6308    8.8087 S.O2    1  UNL1        0.1021
     14 O          15.3310   35.5214    9.8000 O.2     1  UNL1       -0.1408
     15 O          14.2831   36.8732    8.0469 O.2     1  UNL1       -0.1408
     16 C          16.3445   35.0209    6.9506 C.3     1  UNL1        0.1161
     17 C          17.9564   35.7446    8.4732 C.3     1  UNL1        0.1161
     18 N          16.8095   36.1789    7.6945 N.3     1  UNL1       -0.1424
     19 N          12.7055   42.8261    7.2359 N.pl3   1  UNL1       -0.2834
     20 H          11.9573   43.0840    6.6504 H       1  UNL1        0.1550
     21 C          17.5686   42.8025    7.8564 C.3     1  UNL1        0.0521
     22 C          16.3722   43.2721    7.1107 C.ar    1  UNL1        0.0608
     23 C          14.0088   43.2664    6.8313 C.ar    1  UNL1        0.1328
     24 C          14.1227   44.1310    5.7393 C.ar    1  UNL1        0.0344
     25 C          15.3864   44.5662    5.3362 C.ar    1  UNL1        0.0041
     26 C          16.5217   44.1360    6.0242 C.ar    1  UNL1        0.0148
     27 N          15.1320   42.8598    7.4874 N.ar    1  UNL1       -0.2349
@<TRIPOS>BOND
     1    21    22    1
     2    23    27   ar
     3    23    19    1
     4    24    25   ar
     5    26    22   ar
     6     1     6   ar
     7     2     3   ar
     8     4     5   ar
     9     7     5    1
    10     7     8    1
    11     8     9    1
    12     9    10    1
    13    10    12    1
    14    11    12    1
    15    11     7    1
    16    16    18    1
    17    17    18    1
    18    19     1    1
    19    13    12    1
    20    13    18    1
    21    22    27   ar
    22    23    24   ar
    23    25    26   ar
    24     1     2   ar
    25     3     4   ar
    26     5     6   ar
    27    13    14    2
    28    13    15    2
    29    19    20    1
@<TRIPOS>MOLECULE
Molport-020-293-031 MCULE-3541316291 PubChem-110265498
 27 29 0 0 0
SMALL
GASTEIGER

@<TRIPOS>ATOM
      1 C          14.2356   40.5521    9.3880 C.ar    1  UNL1        0.1328
      2 C          14.1911   39.8221   10.5835 C.ar    1  UNL1        0.0344
      3 C          12.9752   39.6578   11.2470 C.ar    1  UNL1        0.0041
      4 C          11.8147   40.2201   10.7170 C.ar    1  UNL1        0.0149
      5 C          11.8888   40.9456    9.5203 C.ar    1  UNL1        0.0614
      6 N          13.0876   41.0903    8.8929 N.ar    1  UNL1       -0.2348
      7 C          10.6696   41.5631    8.9137 C.3     1  UNL1        0.0581
      8 C          10.1377   42.6972    9.7781 C.3     1  UNL1        0.0089
      9 C           8.9213   43.3086    9.1050 C.3     1  UNL1        0.0196
     10 C           7.8541   42.2352    8.8812 C.3     1  UNL1        0.0969
     11 C           9.5788   40.5126    8.6813 C.3     1  UNL1        0.1027
     12 N           8.3518   41.0859    8.1092 N.3     1  UNL1       -0.1450
     13 S           8.5718   41.4939    6.4282 S.O2    1  UNL1        0.1021
     14 O           7.8135   42.7575    6.1237 O.2     1  UNL1       -0.1408
     15 O          10.0293   41.7140    6.1275 O.2     1  UNL1       -0.1408
     16 C           6.9850   39.4691    6.2138 C.3     1  UNL1        0.1161
     17 C           9.0792   39.2809    5.2041 C.3     1  UNL1        0.1161
     18 N           7.9764   40.1967    5.4403 N.3     1  UNL1       -0.1424
     19 N          15.4596   40.7504    8.6661 N.pl3   1  UNL1       -0.2834
     20 H          16.0130   39.9496    8.5186 H       1  UNL1        0.1550
     21 C          14.9866   44.5782    5.6396 C.3     1  UNL1        0.0521
     22 C          15.7642   43.8490    6.6747 C.ar    1  UNL1        0.0608
     23 C          15.9695   41.9807    8.1347 C.ar    1  UNL1        0.1328
     24 C          17.1920   42.4668    8.6059 C.ar    1  UNL1        0.0344
     25 C          17.6984   43.6636    8.0960 C.ar    1  UNL1        0.0041
     26 C          16.9824   44.3627    7.1233 C.ar    1  UNL1        0.0148
     27 N          15.2883   42.6812    7.1845 N.ar    1  UNL1       -0.2349
@<TRIPOS>BOND
     1    21    22    1
     2    23    27   ar
     3    23    19    1
     4    24    25   ar
     5    26    22   ar
     6     1     6   ar
     7     2     3   ar
     8     4     5   ar
     9     7     5    1
    10     7     8    1
    11     8     9    1
    12     9    10    1
    13    10    12    1
    14    11    12    1
    15    11     7    1
    16    16    18    1
    17    17    18    1
    18    19     1    1
    19    13    12    1
    20    13    18    1
    21    22    27   ar
    22    23    24   ar
    23    25    26   ar
    24     1     2   ar
    25     3     4   ar
    26     5     6   ar
    27    13    14    2
    28    13    15    2
    29    19    20    1
@<TRIPOS>MOLECULE
Molport-020-293-031 MCULE-3541316291 PubChem-110265498
 27 29 0 0 0
SMALL
GASTEIGER

@<TRIPOS>ATOM
      1 C          14.3000   40.1736    8.9786 C.ar    1  UNL1        0.1328
      2 C          14.1016   38.7873    8.9229 C.ar    1  UNL1        0.0344
      3 C          12.8050   38.2739    8.9531 C.ar    1  UNL1        0.0041
      4 C          11.7174   39.1421    9.0385 C.ar    1  UNL1        0.0149
      5 C          11.9454   40.5238    9.0933 C.ar    1  UNL1        0.0614
      6 N          13.2203   40.9983    9.0616 N.ar    1  UNL1       -0.2348
      7 C          10.8095   41.4920    9.1820 C.3     1  UNL1        0.0581
      8 C          11.2265   42.7670    9.9010 C.3     1  UNL1        0.0089
      9 C          10.0496   43.7262    9.9375 C.3     1  UNL1        0.0196
     10 C           8.8577   43.0636   10.6312 C.3     1  UNL1        0.0969
     11 C           9.6001   40.8585    9.8773 C.3     1  UNL1        0.1027
     12 N           8.4691   41.7889   10.0078 N.3     1  UNL1       -0.1450
     13 S           7.6829   42.0434    8.4723 S.O2    1  UNL1        0.1021
     14 O           8.7293   42.2270    7.4065 O.2     1  UNL1       -0.1408
     15 O           6.8268   40.8583    8.1177 O.2     1  UNL1       -0.1408
     16 C           5.3719   43.0461    9.0358 C.3     1  UNL1        0.1161
     17 C           6.5064   43.9649    7.2167 C.3     1  UNL1        0.1161
     18 N           6.6834   43.4594    8.5671 N.3     1  UNL1       -0.1424
     19 N          15.6122   40.7532    8.9503 N.pl3   1  UNL1       -0.2834
     20 H          16.3064   40.2852    9.4681 H       1  UNL1        0.1550
     21 C          14.8835   44.0651    5.4097 C.3     1  UNL1        0.0521
     22 C          15.6981   43.5569    6.5437 C.ar    1  UNL1        0.0608
     23 C          16.0287   41.9359    8.2546 C.ar    1  UNL1        0.1328
     24 C          17.1970   42.5853    8.6623 C.ar    1  UNL1        0.0344
     25 C          17.6123   43.7375    7.9925 C.ar    1  UNL1        0.0041
     26 C          16.8603   44.2300    6.9251 C.ar    1  UNL1        0.0148
     27 N          15.3108   42.4358    7.2095 N.ar    1  UNL1       -0.2349
@<TRIPOS>BOND
     1    21    22    1
     2    23    27   ar
     3    23    19    1
     4    24    25   ar
     5    26    22   ar
     6     1     6   ar
     7     2     3   ar
     8     4     5   ar
     9     7     5    1
    10     7     8    1
    11     8     9    1
    12     9    10    1
    13    10    12    1
    14    11    12    1
    15    11     7    1
    16    16    18    1
    17    17    18    1
    18    19     1    1
    19    13    12    1
    20    13    18    1
    21    22    27   ar
    22    23    24   ar
    23    25    26   ar
    24     1     2   ar
    25     3     4   ar
    26     5     6   ar
    27    13    14    2
    28    13    15    2
    29    19    20    1
@<TRIPOS>MOLECULE
Molport-020-293-031 MCULE-3541316291 PubChem-110265498
 27 29 0 0 0
SMALL
GASTEIGER

@<TRIPOS>ATOM
      1 C           9.7611   41.5752   10.6129 C.ar    1  UNL1        0.1328
      2 C          10.1507   42.7246    9.9119 C.ar    1  UNL1        0.0344
      3 C          11.3864   42.7529    9.2654 C.ar    1  UNL1        0.0041
      4 C          12.2237   41.6396    9.3212 C.ar    1  UNL1        0.0149
      5 C          11.8087   40.5041   10.0300 C.ar    1  UNL1        0.0614
      6 N          10.5981   40.5024   10.6512 N.ar    1  UNL1       -0.2348
      7 C          12.6723   39.2864   10.1137 C.3     1  UNL1        0.0581
      8 C          11.8350   38.0154   10.1138 C.3     1  UNL1        0.0089
      9 C          12.7579   36.8106   10.1694 C.3     1  UNL1        0.0196
     10 C          13.6449   36.8896   11.4136 C.3     1  UNL1        0.0969
     11 C          13.5705   39.3336   11.3541 C.3     1  UNL1        0.1027
     12 N          14.4178   38.1394   11.4867 N.3     1  UNL1       -0.1450
     13 S          15.7156   38.1557   10.3222 S.O2    1  UNL1        0.1021
     14 O          16.2628   36.7619   10.1734 O.2     1  UNL1       -0.1408
     15 O          15.2155   38.6298    8.9850 O.2     1  UNL1       -0.1408
     16 C          17.0672   40.3184    9.9221 C.3     1  UNL1        0.1161
     17 C          18.2246   38.4992   10.8119 C.3     1  UNL1        0.1161
     18 N          16.9674   39.2246   10.8732 N.3     1  UNL1       -0.1424
     19 N           8.5011   41.4937   11.2944 N.pl3   1  UNL1       -0.2834
     20 H           8.5383   41.4753   12.2780 H       1  UNL1        0.1550
     21 C           3.6270   41.3744   11.8080 C.3     1  UNL1        0.0521
     22 C           4.8252   41.3771   10.9293 C.ar    1  UNL1        0.0608
     23 C           7.1940   41.4360   10.7077 C.ar    1  UNL1        0.1328
     24 C           7.0782   41.3835    9.3160 C.ar    1  UNL1        0.0344
     25 C           5.8108   41.3271    8.7334 C.ar    1  UNL1        0.0041
     26 C           4.6737   41.3237    9.5424 C.ar    1  UNL1        0.0148
     27 N           6.0690   41.4316   11.4770 N.ar    1  UNL1       -0.2349
@<TRIPOS>BOND
     1    21    22    1
     2    23    27   ar
     3    23    19    1
     4    24    25   ar
     5    26    22   ar
     6     1     6   ar
     7     2     3   ar
     8     4     5   ar
     9     7     5    1
    10     7     8    1
    11     8     9    1
    12     9    10    1
    13    10    12    1
    14    11    12    1
    15    11     7    1
    16    16    18    1
    17    17    18    1
    18    19     1    1
    19    13    12    1
    20    13    18    1
    21    22    27   ar
    22    23    24   ar
    23    25    26   ar
    24     1     2   ar
    25     3     4   ar
    26     5     6   ar
    27    13    14    2
    28    13    15    2
    29    19    20    1
@<TRIPOS>MOLECULE
Molport-020-293-031 MCULE-3541316291 PubChem-110265498
 27 29 0 0 0
SMALL
GASTEIGER

@<TRIPOS>ATOM
      1 C          12.8048   42.1870    6.4630 C.ar    1  UNL1        0.1328
      2 C          13.8696   43.0519    6.1761 C.ar    1  UNL1        0.0344
      3 C          15.0753   42.9139    6.8639 C.ar    1  UNL1        0.0041
      4 C          15.2122   41.9184    7.8303 C.ar    1  UNL1        0.0149
      5 C          14.1306   41.0681    8.0970 C.ar    1  UNL1        0.0614
      6 N          12.9657   41.2239    7.4113 N.ar    1  UNL1       -0.2348
      7 C          14.2333   39.9847    9.1224 C.3     1  UNL1        0.0581
      8 C          13.2123   40.1792   10.2343 C.3     1  UNL1        0.0089
      9 C          13.3374   39.0398   11.2306 C.3     1  UNL1        0.0196
     10 C          14.7611   38.9886   11.7887 C.3     1  UNL1        0.0969
     11 C          15.6486   39.9111    9.7046 C.3     1  UNL1        0.1027
     12 N          15.7839   38.8734   10.7374 N.3     1  UNL1       -0.1450
     13 S          15.7953   37.2794   10.0305 S.O2    1  UNL1        0.1021
     14 O          14.7059   36.4531   10.6590 O.2     1  UNL1       -0.1408
     15 O          15.5537   37.3605    8.5480 O.2     1  UNL1       -0.1408
     16 C          18.2458   37.5667   10.7897 C.3     1  UNL1        0.1161
     17 C          17.8511   36.0809    9.0355 C.3     1  UNL1        0.1161
     18 N          17.3378   36.5362   10.3160 N.3     1  UNL1       -0.1424
     19 N          11.5444   42.2855    5.7846 N.pl3   1  UNL1       -0.2834
     20 H          11.3381   43.1558    5.3730 H       1  UNL1        0.1550
     21 C           9.6030   38.6059    3.1910 C.3     1  UNL1        0.0521
     22 C           9.5889   39.4726    4.3979 C.ar    1  UNL1        0.0608
     23 C          10.5507   41.2624    5.6371 C.ar    1  UNL1        0.1328
     24 C           9.5879   41.1043    6.6376 C.ar    1  UNL1        0.0344
     25 C           8.6154   40.1115    6.5050 C.ar    1  UNL1        0.0041
     26 C           8.6126   39.2877    5.3785 C.ar    1  UNL1        0.0148
     27 N          10.5276   40.4458    4.5463 N.ar    1  UNL1       -0.2349
@<TRIPOS>BOND
     1    21    22    1
     2    23    27   ar
     3    23    19    1
     4    24    25   ar
     5    26    22   ar
     6     1     6   ar
     7     2     3   ar
     8     4     5   ar
     9     7     5    1
    10     7     8    1
    11     8     9    1
    12     9    10    1
    13    10    12    1
    14    11    12    1
    15    11     7    1
    16    16    18    1
    17    17    18    1
    18    19     1    1
    19    13    12    1
    20    13    18    1
    21    22    27   ar
    22    23    24   ar
    23    25    26   ar
    24     1     2   ar
    25     3     4   ar
    26     5     6   ar
    27    13    14    2
    28    13    15    2
    29    19    20    1
