@<TRIPOS>MOLECULE
MolPort-039-126-987 CSSS03436932277 MCULE-3431456731 PubChem-119099732
 24 26 0 0 0
SMALL
GASTEIGER

@<TRIPOS>ATOM
      1 C          11.5623   41.5141    6.5155 C.ar    1  UNL1        0.0907
      2 C          10.4433   41.8603    7.2375 C.ar    1  UNL1        0.1114
      3 C          11.1410   40.9768    5.3127 C.ar    1  UNL1        0.1363
      4 N           9.3945   41.5355    6.4616 N.ar    1  UNL1       -0.2456
      5 N           9.7939   41.0046    5.3165 N.ar    1  UNL1       -0.1662
      6 C          13.7417   42.8199    6.7030 C.2     1  UNL1        0.2526
      7 O          13.2841   43.8025    6.0584 O.2     1  UNL1       -0.2697
      8 N          12.9105   41.6817    6.9660 N.am    1  UNL1       -0.2778
      9 H          13.3002   40.9536    7.5020 H       1  UNL1        0.1553
     10 F          14.7763   40.8093    8.4263 F       1  UNL1       -0.2040
     11 C          15.5857   41.8413    8.0783 C.ar    1  UNL1        0.1453
     12 C          15.1304   42.8652    7.2194 C.ar    1  UNL1        0.0916
     13 C          16.0223   43.9115    6.8763 C.ar    1  UNL1        0.0642
     14 C          17.3276   43.9095    7.3771 C.ar    1  UNL1        0.0117
     15 C          17.7654   42.8843    8.2138 C.ar    1  UNL1        0.0032
     16 C          16.8953   41.8537    8.5638 C.ar    1  UNL1        0.0298
     17 CL         15.5483   45.2888    5.8901 Cl      1  UNL1       -0.0820
     18 C           7.9989   41.6973    6.8338 C.3     1  UNL1        0.1569
     19 C           7.8849   42.4962    8.1338 C.3     1  UNL1        0.1395
     20 C           6.9532   41.8254    9.1513 C.3     1  UNL1        0.0317
     21 C           5.4941   42.0057    8.7454 C.3     1  UNL1        0.0051
     22 C           5.2205   43.4708    8.4418 C.3     1  UNL1        0.0322
     23 C           6.2356   43.9504    7.4095 C.3     1  UNL1        0.1421
     24 O           7.5492   43.8578    7.9216 O.3     1  UNL1       -0.3542
@<TRIPOS>BOND
     1    11    10    1
     2    12     6    1
     3    12    13   ar
     4     6     8   am
     5     2     4   ar
     6    18     4    1
     7    19    18    1
     8    19    20    1
     9    19    24    1
    10    20    21    1
    11    21    22    1
    12    22    23    1
    13    23    24    1
    14     3     1   ar
    15    13    17    1
    16    14    15   ar
    17    16    11   ar
    18     8     1    1
    19     4     5   ar
    20    11    12   ar
    21     6     7    2
    22     1     2   ar
    23     3     5   ar
    24    13    14   ar
    25    15    16   ar
    26     8     9    1
@<TRIPOS>MOLECULE
MolPort-039-126-987 CSSS03436932277 MCULE-3431456731 PubChem-119099732
 24 26 0 0 0
SMALL
GASTEIGER

@<TRIPOS>ATOM
      1 C          11.7273   41.5216    6.4884 C.ar    1  UNL1        0.0907
      2 C          10.7698   41.6011    7.4735 C.ar    1  UNL1        0.1114
      3 C          11.2313   40.7162    5.4794 C.ar    1  UNL1        0.1363
      4 N           9.7361   40.8605    7.0369 N.ar    1  UNL1       -0.2456
      5 N           9.9983   40.3242    5.8553 N.ar    1  UNL1       -0.1662
      6 C          14.0783   41.8149    7.4248 C.2     1  UNL1        0.2526
      7 O          13.9515   40.8466    8.2227 O.2     1  UNL1       -0.2697
      8 N          13.0066   42.1617    6.5379 N.am    1  UNL1       -0.2778
      9 H          13.1639   42.9031    5.9095 H       1  UNL1        0.1553
     10 F          16.3269   41.0588    8.9917 F       1  UNL1       -0.2040
     11 C          16.4349   42.1481    8.1898 C.ar    1  UNL1        0.1453
     12 C          15.3549   42.5673    7.3829 C.ar    1  UNL1        0.0916
     13 C          15.5270   43.7027    6.5527 C.ar    1  UNL1        0.0642
     14 C          16.7517   44.3768    6.5357 C.ar    1  UNL1        0.0117
     15 C          17.8122   43.9423    7.3289 C.ar    1  UNL1        0.0032
     16 C          17.6527   42.8311    8.1545 C.ar    1  UNL1        0.0298
     17 CL         14.2318   44.3764    5.5714 Cl      1  UNL1       -0.0820
     18 C           8.5039   40.6313    7.7726 C.3     1  UNL1        0.1569
     19 C           7.2976   41.0656    6.9374 C.3     1  UNL1        0.1395
     20 C           7.3578   42.5495    6.5530 C.3     1  UNL1        0.0317
     21 C           7.0243   43.4302    7.7527 C.3     1  UNL1        0.0051
     22 C           5.7342   42.9518    8.4009 C.3     1  UNL1        0.0322
     23 C           5.8715   41.4660    8.7166 C.3     1  UNL1        0.1421
     24 O           6.0569   40.7195    7.5313 O.3     1  UNL1       -0.3542
@<TRIPOS>BOND
     1    11    10    1
     2    12     6    1
     3    12    13   ar
     4     6     8   am
     5     2     4   ar
     6    18     4    1
     7    19    18    1
     8    19    20    1
     9    19    24    1
    10    20    21    1
    11    21    22    1
    12    22    23    1
    13    23    24    1
    14     3     1   ar
    15    13    17    1
    16    14    15   ar
    17    16    11   ar
    18     8     1    1
    19     4     5   ar
    20    11    12   ar
    21     6     7    2
    22     1     2   ar
    23     3     5   ar
    24    13    14   ar
    25    15    16   ar
    26     8     9    1
@<TRIPOS>MOLECULE
MolPort-039-126-987 CSSS03436932277 MCULE-3431456731 PubChem-119099732
 24 26 0 0 0
SMALL
GASTEIGER

@<TRIPOS>ATOM
      1 C          13.1194   40.2823    8.4796 C.ar    1  UNL1        0.0907
      2 C          12.2361   39.8853    7.5021 C.ar    1  UNL1        0.1114
      3 C          12.6009   39.8947    9.7018 C.ar    1  UNL1        0.1363
      4 N          11.2289   39.2725    8.1485 N.ar    1  UNL1       -0.2456
      5 N          11.4298   39.2752    9.4570 N.ar    1  UNL1       -0.1662
      6 C          14.4647   42.2441    7.5679 C.2     1  UNL1        0.2526
      7 O          13.4332   42.8500    7.1686 O.2     1  UNL1       -0.2697
      8 N          14.3440   40.9833    8.2396 N.am    1  UNL1       -0.2778
      9 H          15.1739   40.5641    8.5633 H       1  UNL1        0.1553
     10 F          16.5908   41.8567    9.4151 F       1  UNL1       -0.2040
     11 C          16.8132   42.6384    8.3285 C.ar    1  UNL1        0.1453
     12 C          15.7984   42.8610    7.3726 C.ar    1  UNL1        0.0916
     13 C          16.0893   43.6736    6.2488 C.ar    1  UNL1        0.0642
     14 C          17.3642   44.2272    6.0979 C.ar    1  UNL1        0.0117
     15 C          18.3589   43.9871    7.0443 C.ar    1  UNL1        0.0032
     16 C          18.0826   43.1954    8.1572 C.ar    1  UNL1        0.0298
     17 CL         14.8865   44.0989    5.0377 Cl      1  UNL1       -0.0820
     18 C          10.0463   38.7152    7.5137 C.3     1  UNL1        0.1569
     19 C           9.2690   39.8118    6.7824 C.3     1  UNL1        0.1395
     20 C           8.2291   39.2406    5.8100 C.3     1  UNL1        0.0317
     21 C           8.9070   38.6893    4.5599 C.3     1  UNL1        0.0051
     22 C           9.8648   39.7261    3.9929 C.3     1  UNL1        0.0322
     23 C          10.8200   40.1611    5.0996 C.3     1  UNL1        0.1421
     24 O          10.1108   40.7687    6.1599 O.3     1  UNL1       -0.3542
@<TRIPOS>BOND
     1    11    10    1
     2    12     6    1
     3    12    13   ar
     4     6     8   am
     5     2     4   ar
     6    18     4    1
     7    19    18    1
     8    19    20    1
     9    19    24    1
    10    20    21    1
    11    21    22    1
    12    22    23    1
    13    23    24    1
    14     3     1   ar
    15    13    17    1
    16    14    15   ar
    17    16    11   ar
    18     8     1    1
    19     4     5   ar
    20    11    12   ar
    21     6     7    2
    22     1     2   ar
    23     3     5   ar
    24    13    14   ar
    25    15    16   ar
    26     8     9    1
@<TRIPOS>MOLECULE
MolPort-039-126-987 CSSS03436932277 MCULE-3431456731 PubChem-119099732
 24 26 0 0 0
SMALL
GASTEIGER

@<TRIPOS>ATOM
      1 C          11.0091   41.4300    5.7677 C.ar    1  UNL1        0.0907
      2 C           9.9938   41.8079    6.6161 C.ar    1  UNL1        0.1114
      3 C          10.4758   40.5687    4.8261 C.ar    1  UNL1        0.1363
      4 N           8.8921   41.1815    6.1672 N.ar    1  UNL1       -0.2456
      5 N           9.1646   40.4373    5.1068 N.ar    1  UNL1       -0.1662
      6 C          12.9733   42.4247    7.0492 C.2     1  UNL1        0.2526
      7 O          12.3060   42.5374    8.1134 O.2     1  UNL1       -0.2697
      8 N          12.3696   41.8609    5.8775 N.am    1  UNL1       -0.2778
      9 H          12.9392   41.7617    5.0806 H       1  UNL1        0.1553
     10 F          13.8737   44.6316    5.4995 F       1  UNL1       -0.2040
     11 C          14.7840   43.9430    6.2332 C.ar    1  UNL1        0.1453
     12 C          14.3953   42.8431    7.0285 C.ar    1  UNL1        0.0916
     13 C          15.3844   42.1690    7.7868 C.ar    1  UNL1        0.0642
     14 C          16.7126   42.6037    7.7466 C.ar    1  UNL1        0.0117
     15 C          17.0776   43.6994    6.9661 C.ar    1  UNL1        0.0032
     16 C          16.1150   44.3659    6.2107 C.ar    1  UNL1        0.0298
     17 CL         15.0436   40.7329    8.7438 Cl      1  UNL1       -0.0820
     18 C           7.5769   41.2636    6.7803 C.3     1  UNL1        0.1569
     19 C           7.6529   42.0347    8.0998 C.3     1  UNL1        0.1395
     20 C           6.7760   41.4097    9.1923 C.3     1  UNL1        0.0317
     21 C           5.3026   41.7099    8.9370 C.3     1  UNL1        0.0051
     22 C           5.1150   43.1989    8.6893 C.3     1  UNL1        0.0322
     23 C           6.0584   43.6274    7.5701 C.3     1  UNL1        0.1421
     24 O           7.4047   43.4228    7.9471 O.3     1  UNL1       -0.3542
@<TRIPOS>BOND
     1    11    10    1
     2    12     6    1
     3    12    13   ar
     4     6     8   am
     5     2     4   ar
     6    18     4    1
     7    19    18    1
     8    19    20    1
     9    19    24    1
    10    20    21    1
    11    21    22    1
    12    22    23    1
    13    23    24    1
    14     3     1   ar
    15    13    17    1
    16    14    15   ar
    17    16    11   ar
    18     8     1    1
    19     4     5   ar
    20    11    12   ar
    21     6     7    2
    22     1     2   ar
    23     3     5   ar
    24    13    14   ar
    25    15    16   ar
    26     8     9    1
@<TRIPOS>MOLECULE
MolPort-039-126-987 CSSS03436932277 MCULE-3431456731 PubChem-119099732
 24 26 0 0 0
SMALL
GASTEIGER

@<TRIPOS>ATOM
      1 C          12.4084   40.3833    8.1714 C.ar    1  UNL1        0.0907
      2 C          11.6693   40.1809    7.0285 C.ar    1  UNL1        0.1114
      3 C          11.7290   39.7983    9.2244 C.ar    1  UNL1        0.1363
      4 N          10.5858   39.4845    7.4142 N.ar    1  UNL1       -0.2456
      5 N          10.6053   39.2543    8.7178 N.ar    1  UNL1       -0.1662
      6 C          14.1526   41.9755    7.2160 C.2     1  UNL1        0.2526
      7 O          13.4636   42.2169    6.1877 O.2     1  UNL1       -0.2697
      8 N          13.6512   41.0912    8.2270 N.am    1  UNL1       -0.2778
      9 H          14.2091   40.9597    9.0274 H       1  UNL1        0.1553
     10 F          16.1646   40.9165    8.9228 F       1  UNL1       -0.2040
     11 C          16.4229   42.0710    8.2583 C.ar    1  UNL1        0.1453
     12 C          15.4657   42.6408    7.3908 C.ar    1  UNL1        0.0916
     13 C          15.7933   43.8397    6.7101 C.ar    1  UNL1        0.0642
     14 C          17.0478   44.4282    6.8956 C.ar    1  UNL1        0.0117
     15 C          17.9864   43.8459    7.7458 C.ar    1  UNL1        0.0032
     16 C          17.6731   42.6708    8.4260 C.ar    1  UNL1        0.0298
     17 CL         14.6565   44.6940    5.6747 Cl      1  UNL1       -0.0820
     18 C           9.5039   39.0702    6.5367 C.3     1  UNL1        0.1569
     19 C           8.7978   40.2941    5.9493 C.3     1  UNL1        0.1395
     20 C           8.5893   41.4025    6.9891 C.3     1  UNL1        0.0317
     21 C           7.4622   41.0353    7.9486 C.3     1  UNL1        0.0051
     22 C           6.2332   40.6077    7.1609 C.3     1  UNL1        0.0322
     23 C           6.6375   39.4990    6.1947 C.3     1  UNL1        0.1421
     24 O           7.5962   39.9692    5.2694 O.3     1  UNL1       -0.3542
@<TRIPOS>BOND
     1    11    10    1
     2    12     6    1
     3    12    13   ar
     4     6     8   am
     5     2     4   ar
     6    18     4    1
     7    19    18    1
     8    19    20    1
     9    19    24    1
    10    20    21    1
    11    21    22    1
    12    22    23    1
    13    23    24    1
    14     3     1   ar
    15    13    17    1
    16    14    15   ar
    17    16    11   ar
    18     8     1    1
    19     4     5   ar
    20    11    12   ar
    21     6     7    2
    22     1     2   ar
    23     3     5   ar
    24    13    14   ar
    25    15    16   ar
    26     8     9    1
@<TRIPOS>MOLECULE
MolPort-039-126-987 CSSS03436932277 MCULE-3431456731 PubChem-119099732
 24 26 0 0 0
SMALL
GASTEIGER

@<TRIPOS>ATOM
      1 C          11.7845   41.1116    6.7332 C.ar    1  UNL1        0.0907
      2 C          10.6571   41.6908    7.2689 C.ar    1  UNL1        0.1114
      3 C          11.4432   39.8443    6.2969 C.ar    1  UNL1        0.1363
      4 N           9.6803   40.7764    7.1370 N.ar    1  UNL1       -0.2456
      5 N          10.1343   39.6718    6.5655 N.ar    1  UNL1       -0.1662
      6 C          14.0273   41.7873    7.7349 C.2     1  UNL1        0.2526
      7 O          13.7812   41.2195    8.8337 O.2     1  UNL1       -0.2697
      8 N          13.0716   41.7344    6.6675 N.am    1  UNL1       -0.2778
      9 H          13.3218   42.1630    5.8172 H       1  UNL1        0.1553
     10 F          16.3815   40.9846    9.1119 F       1  UNL1       -0.2040
     11 C          16.4590   42.0368    8.2586 C.ar    1  UNL1        0.1453
     12 C          15.3254   42.4763    7.5408 C.ar    1  UNL1        0.0916
     13 C          15.4659   43.5704    6.6514 C.ar    1  UNL1        0.0642
     14 C          16.7115   44.1846    6.4903 C.ar    1  UNL1        0.0117
     15 C          17.8237   43.7303    7.1970 C.ar    1  UNL1        0.0032
     16 C          17.6963   42.6596    8.0797 C.ar    1  UNL1        0.0298
     17 CL         14.1126   44.2676    5.7700 Cl      1  UNL1       -0.0820
     18 C           8.3119   40.9445    7.5966 C.3     1  UNL1        0.1569
     19 C           8.2319   42.0744    8.6254 C.3     1  UNL1        0.1395
     20 C           7.5686   41.6264    9.9340 C.3     1  UNL1        0.0317
     21 C           6.0602   41.4913    9.7540 C.3     1  UNL1        0.0051
     22 C           5.5026   42.7518    9.1107 C.3     1  UNL1        0.0322
     23 C           6.2782   43.0251    7.8262 C.3     1  UNL1        0.1421
     24 O           7.6434   43.2565    8.1077 O.3     1  UNL1       -0.3542
@<TRIPOS>BOND
     1    11    10    1
     2    12     6    1
     3    12    13   ar
     4     6     8   am
     5     2     4   ar
     6    18     4    1
     7    19    18    1
     8    19    20    1
     9    19    24    1
    10    20    21    1
    11    21    22    1
    12    22    23    1
    13    23    24    1
    14     3     1   ar
    15    13    17    1
    16    14    15   ar
    17    16    11   ar
    18     8     1    1
    19     4     5   ar
    20    11    12   ar
    21     6     7    2
    22     1     2   ar
    23     3     5   ar
    24    13    14   ar
    25    15    16   ar
    26     8     9    1
@<TRIPOS>MOLECULE
MolPort-039-126-987 CSSS03436932277 MCULE-3431456731 PubChem-119099732
 24 26 0 0 0
SMALL
GASTEIGER

@<TRIPOS>ATOM
      1 C          12.2267   40.7726    8.3464 C.ar    1  UNL1        0.0907
      2 C          11.6362   40.0204    7.3570 C.ar    1  UNL1        0.1114
      3 C          11.3397   40.8518    9.4046 C.ar    1  UNL1        0.1363
      4 N          10.4323   39.6653    7.8390 N.ar    1  UNL1       -0.2456
      5 N          10.2403   40.1567    9.0532 N.ar    1  UNL1       -0.1662
      6 C          13.9954   42.1879    7.1809 C.2     1  UNL1        0.2526
      7 O          13.2264   42.4780    6.2245 O.2     1  UNL1       -0.2697
      8 N          13.5264   41.3653    8.2574 N.am    1  UNL1       -0.2778
      9 H          14.1515   41.1936    8.9984 H       1  UNL1        0.1553
     10 F          14.8053   44.3134    5.4753 F       1  UNL1       -0.2040
     11 C          15.7192   43.7849    6.3277 C.ar    1  UNL1        0.1453
     12 C          15.3736   42.7333    7.2041 C.ar    1  UNL1        0.0916
     13 C          16.3629   42.2288    8.0843 C.ar    1  UNL1        0.0642
     14 C          17.6478   42.7799    8.0810 C.ar    1  UNL1        0.0117
     15 C          17.9692   43.8264    7.2183 C.ar    1  UNL1        0.0032
     16 C          17.0067   44.3262    6.3434 C.ar    1  UNL1        0.0298
     17 CL         16.0831   40.8638    9.1579 Cl      1  UNL1       -0.0820
     18 C           9.4419   38.8835    7.1179 C.3     1  UNL1        0.1569
     19 C           9.0052   39.6191    5.8492 C.3     1  UNL1        0.1395
     20 C           9.0192   41.1431    6.0240 C.3     1  UNL1        0.0317
     21 C           7.8333   41.5989    6.8677 C.3     1  UNL1        0.0051
     22 C           6.5492   40.9930    6.3222 C.3     1  UNL1        0.0322
     23 C           6.7262   39.4808    6.2316 C.3     1  UNL1        0.1421
     24 O           7.7680   39.1536    5.3350 O.3     1  UNL1       -0.3542
@<TRIPOS>BOND
     1    11    10    1
     2    12     6    1
     3    12    13   ar
     4     6     8   am
     5     2     4   ar
     6    18     4    1
     7    19    18    1
     8    19    20    1
     9    19    24    1
    10    20    21    1
    11    21    22    1
    12    22    23    1
    13    23    24    1
    14     3     1   ar
    15    13    17    1
    16    14    15   ar
    17    16    11   ar
    18     8     1    1
    19     4     5   ar
    20    11    12   ar
    21     6     7    2
    22     1     2   ar
    23     3     5   ar
    24    13    14   ar
    25    15    16   ar
    26     8     9    1
@<TRIPOS>MOLECULE
MolPort-039-126-987 CSSS03436932277 MCULE-3431456731 PubChem-119099732
 24 26 0 0 0
SMALL
GASTEIGER

@<TRIPOS>ATOM
      1 C          11.7030   37.3870    9.8250 C.ar    1  UNL1        0.0907
      2 C          12.9191   37.2119    9.2055 C.ar    1  UNL1        0.1114
      3 C          11.4598   36.2705   10.6041 C.ar    1  UNL1        0.1363
      4 N          13.3734   36.0184    9.6259 N.ar    1  UNL1       -0.2456
      5 N          12.5140   35.4451   10.4538 N.ar    1  UNL1       -0.1662
      6 C          11.1220   39.8434   10.1698 C.2     1  UNL1        0.2526
      7 O          12.1940   40.0768   10.7918 O.2     1  UNL1       -0.2697
      8 N          10.8576   38.5301    9.6591 N.am    1  UNL1       -0.2778
      9 H          10.0239   38.4038    9.1510 H       1  UNL1        0.1553
     10 F          10.5841   40.8534    7.5673 F       1  UNL1       -0.2040
     11 C           9.9356   41.4078    8.6224 C.ar    1  UNL1        0.1453
     12 C          10.1556   40.9431    9.9373 C.ar    1  UNL1        0.0916
     13 C           9.4405   41.5477   11.0008 C.ar    1  UNL1        0.0642
     14 C           8.5301   42.5750   10.7356 C.ar    1  UNL1        0.0117
     15 C           8.3149   43.0135    9.4302 C.ar    1  UNL1        0.0032
     16 C           9.0175   42.4314    8.3770 C.ar    1  UNL1        0.0298
     17 CL          9.6922   41.1207   12.6886 Cl      1  UNL1       -0.0820
     18 C          14.6202   35.4034    9.2023 C.3     1  UNL1        0.1569
     19 C          15.3292   36.2911    8.1773 C.3     1  UNL1        0.1395
     20 C          15.8827   35.4879    6.9933 C.3     1  UNL1        0.0317
     21 C          17.1336   34.7176    7.4034 C.3     1  UNL1        0.0051
     22 C          18.1095   35.6528    8.1010 C.3     1  UNL1        0.0322
     23 C          17.3814   36.3472    9.2472 C.3     1  UNL1        0.1421
     24 O          16.3135   37.1318    8.7568 O.3     1  UNL1       -0.3542
@<TRIPOS>BOND
     1    11    10    1
     2    12     6    1
     3    12    13   ar
     4     6     8   am
     5     2     4   ar
     6    18     4    1
     7    19    18    1
     8    19    20    1
     9    19    24    1
    10    20    21    1
    11    21    22    1
    12    22    23    1
    13    23    24    1
    14     3     1   ar
    15    13    17    1
    16    14    15   ar
    17    16    11   ar
    18     8     1    1
    19     4     5   ar
    20    11    12   ar
    21     6     7    2
    22     1     2   ar
    23     3     5   ar
    24    13    14   ar
    25    15    16   ar
    26     8     9    1
@<TRIPOS>MOLECULE
MolPort-039-126-987 CSSS03436932277 MCULE-3431456731 PubChem-119099732
 24 26 0 0 0
SMALL
GASTEIGER

@<TRIPOS>ATOM
      1 C          10.4750   41.3064   10.9692 C.ar    1  UNL1        0.0907
      2 C           9.7209   41.8035    9.9311 C.ar    1  UNL1        0.1114
      3 C           9.6311   41.1013   12.0456 C.ar    1  UNL1        0.1363
      4 N           8.4622   41.8769   10.3981 N.ar    1  UNL1       -0.2456
      5 N           8.3947   41.4676   11.6552 N.ar    1  UNL1       -0.1662
      6 C          12.5193   39.9638   10.2561 C.2     1  UNL1        0.2526
      7 O          11.8262   39.1221    9.6224 O.2     1  UNL1       -0.2697
      8 N          11.8854   41.0682   10.9148 N.am    1  UNL1       -0.2778
      9 H          12.4698   41.7181   11.3681 H       1  UNL1        0.1553
     10 F          13.8539   38.4348   12.2471 F       1  UNL1       -0.2040
     11 C          14.6016   39.0587   11.3022 C.ar    1  UNL1        0.1453
     12 C          13.9949   39.8255   10.2837 C.ar    1  UNL1        0.0916
     13 C          14.8224   40.4434    9.3134 C.ar    1  UNL1        0.0642
     14 C          16.2094   40.2780    9.3704 C.ar    1  UNL1        0.0117
     15 C          16.7918   39.5071   10.3751 C.ar    1  UNL1        0.0032
     16 C          15.9889   38.9003   11.3389 C.ar    1  UNL1        0.0298
     17 CL         14.1955   41.4954    8.0506 Cl      1  UNL1       -0.0820
     18 C           7.3223   42.3794    9.6496 C.3     1  UNL1        0.1569
     19 C           7.7607   43.4960    8.6996 C.3     1  UNL1        0.1395
     20 C           6.7209   44.6194    8.6001 C.3     1  UNL1        0.0317
     21 C           5.5289   44.1764    7.7580 C.3     1  UNL1        0.0051
     22 C           6.0168   43.5885    6.4427 C.3     1  UNL1        0.0322
     23 C           7.0283   42.4887    6.7481 C.3     1  UNL1        0.1421
     24 O           8.1514   43.0176    7.4228 O.3     1  UNL1       -0.3542
@<TRIPOS>BOND
     1    11    10    1
     2    12     6    1
     3    12    13   ar
     4     6     8   am
     5     2     4   ar
     6    18     4    1
     7    19    18    1
     8    19    20    1
     9    19    24    1
    10    20    21    1
    11    21    22    1
    12    22    23    1
    13    23    24    1
    14     3     1   ar
    15    13    17    1
    16    14    15   ar
    17    16    11   ar
    18     8     1    1
    19     4     5   ar
    20    11    12   ar
    21     6     7    2
    22     1     2   ar
    23     3     5   ar
    24    13    14   ar
    25    15    16   ar
    26     8     9    1
@<TRIPOS>MOLECULE
MolPort-039-126-987 CSSS03436932277 MCULE-3431456731 PubChem-119099732
 24 26 0 0 0
SMALL
GASTEIGER

@<TRIPOS>ATOM
      1 C           9.7480   41.3114   10.9190 C.ar    1  UNL1        0.0907
      2 C           8.8111   41.3785    9.9134 C.ar    1  UNL1        0.1114
      3 C           9.0783   41.3797   12.1272 C.ar    1  UNL1        0.1363
      4 N           7.6208   41.4762   10.5308 N.ar    1  UNL1       -0.2456
      5 N           7.7646   41.4833   11.8468 N.ar    1  UNL1       -0.1662
      6 C          11.8565   40.0172   10.3112 C.2     1  UNL1        0.2526
      7 O          11.2146   38.9603   10.0636 O.2     1  UNL1       -0.2697
      8 N          11.1607   41.2039   10.7148 N.am    1  UNL1       -0.2778
      9 H          11.7003   42.0137   10.8643 H       1  UNL1        0.1553
     10 F          13.5929   38.6554   12.1038 F       1  UNL1       -0.2040
     11 C          14.1411   39.3462   11.0725 C.ar    1  UNL1        0.1453
     12 C          13.3294   40.0356   10.1456 C.ar    1  UNL1        0.0916
     13 C          13.9536   40.7285    9.0787 C.ar    1  UNL1        0.0642
     14 C          15.3459   40.7108    8.9536 C.ar    1  UNL1        0.0117
     15 C          16.1323   40.0147    9.8700 C.ar    1  UNL1        0.0032
     16 C          15.5303   39.3354   10.9273 C.ar    1  UNL1        0.0298
     17 CL         13.0601   41.6971    7.9135 Cl      1  UNL1       -0.0820
     18 C           6.3392   41.6036    9.8575 C.3     1  UNL1        0.1569
     19 C           5.2390   41.9367   10.8675 C.3     1  UNL1        0.1395
     20 C           4.4542   40.6939   11.3067 C.3     1  UNL1        0.0317
     21 C           3.5025   40.2410   10.2043 C.3     1  UNL1        0.0051
     22 C           2.6788   41.4230    9.7164 C.3     1  UNL1        0.0322
     23 C           3.6304   42.5465    9.3183 C.3     1  UNL1        0.1421
     24 O           4.3830   42.9806   10.4326 O.3     1  UNL1       -0.3542
@<TRIPOS>BOND
     1    11    10    1
     2    12     6    1
     3    12    13   ar
     4     6     8   am
     5     2     4   ar
     6    18     4    1
     7    19    18    1
     8    19    20    1
     9    19    24    1
    10    20    21    1
    11    21    22    1
    12    22    23    1
    13    23    24    1
    14     3     1   ar
    15    13    17    1
    16    14    15   ar
    17    16    11   ar
    18     8     1    1
    19     4     5   ar
    20    11    12   ar
    21     6     7    2
    22     1     2   ar
    23     3     5   ar
    24    13    14   ar
    25    15    16   ar
    26     8     9    1
