@<TRIPOS>MOLECULE
MolPort-003-112-246 8959277 CSSS03437096107 DOMGJBLIFOPKKD-UHFFFAOYSA-N MCULE-7504215690 PubChem-40887173 ZINC000008959277
 28 30 0 0 0
SMALL
GASTEIGER

@<TRIPOS>ATOM
      1 N          10.2689   40.0813    6.4471 N.am    1  UNL1       -0.2559
      2 C          11.5898   40.5929    6.7154 C.ar    1  UNL1        0.0881
      3 C          12.0599   41.6776    5.9584 C.ar    1  UNL1        0.0193
      4 C          13.3007   42.2574    6.2198 C.ar    1  UNL1        0.0162
      5 C          14.1019   41.7680    7.2496 C.ar    1  UNL1        0.0537
      6 C          13.6566   40.6724    7.9983 C.ar    1  UNL1        0.0528
      7 C          12.4227   40.0664    7.7380 C.ar    1  UNL1        0.1533
      8 C          11.0443   38.0346    8.2043 C.3     1  UNL1        0.2138
      9 C           9.6847   38.6518    8.4956 C.3     1  UNL1        0.1095
     10 C           8.6427   37.5559    8.3744 C.3     1  UNL1        0.0129
     11 C           9.6486   39.1946    9.9161 C.3     1  UNL1        0.0129
     12 C           9.3662   39.7436    7.5142 C.2     1  UNL1        0.2320
     13 O          12.1007   38.9389    8.5012 O.3     1  UNL1       -0.4737
     14 O           8.2605   40.3453    7.6026 O.2     1  UNL1       -0.2744
     15 N          15.3666   42.3961    7.4993 N.am    1  UNL1       -0.2799
     16 C          16.1021   43.2362    6.5980 C.2     1  UNL1        0.2555
     17 O          15.6596   43.4935    5.4463 O.2     1  UNL1       -0.2693
     18 H          15.7728   42.2339    8.3813 H       1  UNL1        0.1552
     19 C          17.3872   43.8023    7.0226 C.ar    1  UNL1        0.0831
     20 C          17.8815   43.8052    8.3177 C.ar    1  UNL1        0.0116
     21 C          19.1386   44.4190    8.4173 C.ar    1  UNL1        0.0076
     22 C          19.6421   44.9015    7.2112 C.ar    1  UNL1        0.0356
     23 S          18.5035   44.5543    6.0223 S.2     1  UNL1       -0.0819
     24 C           9.7959   39.9933    5.0635 C.3     1  UNL1        0.0983
     25 C           9.3792   38.5721    4.6910 C.3     1  UNL1        0.0219
     26 C          10.0896   38.0836    3.4403 C.3     1  UNL1        0.0017
     27 C           9.8971   36.5877    3.2815 C.3     1  UNL1        0.0001
     28 C           9.5149   38.7897    2.2310 C.3     1  UNL1        0.0001
@<TRIPOS>BOND
     1     1     2    1
     2    15    16   am
     3    24     1    1
     4    24    25    1
     5    25    26    1
     6    26    27    1
     7    26    28    1
     8     3     4   ar
     9     5     6   ar
    10     5    15    1
    11     7    13    1
    12     7     2   ar
    13     8    13    1
    14     8     9    1
    15     9    10    1
    16     9    11    1
    17     9    12    1
    18    12     1   am
    19    16    19    1
    20    19    23   ar
    21    20    21   ar
    22    22    23   ar
    23     2     3   ar
    24     4     5   ar
    25     6     7   ar
    26    12    14    2
    27    16    17    2
    28    19    20   ar
    29    21    22   ar
    30    15    18    1
@<TRIPOS>MOLECULE
MolPort-003-112-246 8959277 CSSS03437096107 DOMGJBLIFOPKKD-UHFFFAOYSA-N MCULE-7504215690 PubChem-40887173 ZINC000008959277
 28 30 0 0 0
SMALL
GASTEIGER

@<TRIPOS>ATOM
      1 N           8.0419   41.6646    6.6871 N.am    1  UNL1       -0.2559
      2 C           9.4508   41.7985    6.9627 C.ar    1  UNL1        0.0881
      3 C          10.3691   41.4925    5.9460 C.ar    1  UNL1        0.0193
      4 C          11.7395   41.6690    6.1331 C.ar    1  UNL1        0.0162
      5 C          12.2258   42.1607    7.3429 C.ar    1  UNL1        0.0537
      6 C          11.3240   42.4487    8.3739 C.ar    1  UNL1        0.0528
      7 C           9.9473   42.2602    8.2103 C.ar    1  UNL1        0.1533
      8 C           7.7776   42.1259    9.4430 C.3     1  UNL1        0.2138
      9 C           6.8747   42.9734    8.5594 C.3     1  UNL1        0.1095
     10 C           5.4372   42.6490    8.9193 C.3     1  UNL1        0.0129
     11 C           7.1157   44.4513    8.8276 C.3     1  UNL1        0.0129
     12 C           7.0990   42.6661    7.1062 C.2     1  UNL1        0.2320
     13 O           9.1393   42.5174    9.3232 O.3     1  UNL1       -0.4737
     14 O           6.4103   43.2690    6.2376 O.2     1  UNL1       -0.2744
     15 N          13.6400   42.3420    7.4968 N.am    1  UNL1       -0.2799
     16 C          14.4440   43.3727    6.9052 C.2     1  UNL1        0.2555
     17 O          13.9289   44.2454    6.1559 O.2     1  UNL1       -0.2693
     18 H          14.1082   41.6911    8.0682 H       1  UNL1        0.1552
     19 C          15.8855   43.4105    7.1753 C.ar    1  UNL1        0.0831
     20 C          16.7891   44.3038    6.6214 C.ar    1  UNL1        0.0116
     21 C          18.1019   44.0956    7.0690 C.ar    1  UNL1        0.0076
     22 C          18.2432   43.0445    7.9725 C.ar    1  UNL1        0.0356
     23 S          16.7154   42.3798    8.2056 S.2     1  UNL1       -0.0819
     24 C           7.5679   40.5375    5.8804 C.3     1  UNL1        0.0983
     25 C           7.3575   39.2806    6.7218 C.3     1  UNL1        0.0219
     26 C           8.4708   38.2681    6.5147 C.3     1  UNL1        0.0017
     27 C           9.2017   38.5544    5.2170 C.3     1  UNL1        0.0001
     28 C           9.4490   38.3582    7.6663 C.3     1  UNL1        0.0001
@<TRIPOS>BOND
     1     1     2    1
     2    15    16   am
     3    24     1    1
     4    24    25    1
     5    25    26    1
     6    26    27    1
     7    26    28    1
     8     3     4   ar
     9     5     6   ar
    10     5    15    1
    11     7    13    1
    12     7     2   ar
    13     8    13    1
    14     8     9    1
    15     9    10    1
    16     9    11    1
    17     9    12    1
    18    12     1   am
    19    16    19    1
    20    19    23   ar
    21    20    21   ar
    22    22    23   ar
    23     2     3   ar
    24     4     5   ar
    25     6     7   ar
    26    12    14    2
    27    16    17    2
    28    19    20   ar
    29    21    22   ar
    30    15    18    1
@<TRIPOS>MOLECULE
MolPort-003-112-246 8959277 CSSS03437096107 DOMGJBLIFOPKKD-UHFFFAOYSA-N MCULE-7504215690 PubChem-40887173 ZINC000008959277
 28 30 0 0 0
SMALL
GASTEIGER

@<TRIPOS>ATOM
      1 N           8.3334   40.7837    6.4431 N.am    1  UNL1       -0.2559
      2 C           9.6975   41.0835    6.8014 C.ar    1  UNL1        0.0881
      3 C          10.7153   40.8025    5.8764 C.ar    1  UNL1        0.0193
      4 C          12.0436   41.1342    6.1407 C.ar    1  UNL1        0.0162
      5 C          12.3866   41.7600    7.3376 C.ar    1  UNL1        0.0537
      6 C          11.3858   42.0261    8.2793 C.ar    1  UNL1        0.0528
      7 C          10.0507   41.6835    8.0389 C.ar    1  UNL1        0.1533
      8 C           7.8186   41.4127    9.1295 C.3     1  UNL1        0.2138
      9 C           6.9051   42.0953    8.1226 C.3     1  UNL1        0.1095
     10 C           5.4838   41.6493    8.4095 C.3     1  UNL1        0.0129
     11 C           6.9778   43.6057    8.2880 C.3     1  UNL1        0.0129
     12 C           7.2672   41.7088    6.7168 C.2     1  UNL1        0.2320
     13 O           9.1399   41.9346    9.0709 O.3     1  UNL1       -0.4737
     14 O           6.5894   42.1722    5.7586 O.2     1  UNL1       -0.2744
     15 N          13.7603   42.0987    7.5715 N.am    1  UNL1       -0.2799
     16 C          14.5692   42.9939    6.7950 C.2     1  UNL1        0.2555
     17 O          14.0978   43.5801    5.7837 O.2     1  UNL1       -0.2693
     18 H          14.1936   41.6723    8.3459 H       1  UNL1        0.1552
     19 C          15.9644   43.2292    7.1828 C.ar    1  UNL1        0.0831
     20 C          16.6656   42.5237    8.1483 C.ar    1  UNL1        0.0116
     21 C          17.9844   42.9760    8.3001 C.ar    1  UNL1        0.0076
     22 C          18.3315   44.0336    7.4622 C.ar    1  UNL1        0.0356
     23 S          16.9773   44.3969    6.5324 S.2     1  UNL1       -0.0819
     24 C           8.0352   39.5580    5.6985 C.3     1  UNL1        0.0983
     25 C           9.3046   38.8120    5.2933 C.3     1  UNL1        0.0219
     26 C           9.3389   38.5217    3.8026 C.3     1  UNL1        0.0017
     27 C          10.1838   39.5589    3.0883 C.3     1  UNL1        0.0001
     28 C           9.9375   37.1502    3.5741 C.3     1  UNL1        0.0001
@<TRIPOS>BOND
     1     1     2    1
     2    15    16   am
     3    24     1    1
     4    24    25    1
     5    25    26    1
     6    26    27    1
     7    26    28    1
     8     3     4   ar
     9     5     6   ar
    10     5    15    1
    11     7    13    1
    12     7     2   ar
    13     8    13    1
    14     8     9    1
    15     9    10    1
    16     9    11    1
    17     9    12    1
    18    12     1   am
    19    16    19    1
    20    19    23   ar
    21    20    21   ar
    22    22    23   ar
    23     2     3   ar
    24     4     5   ar
    25     6     7   ar
    26    12    14    2
    27    16    17    2
    28    19    20   ar
    29    21    22   ar
    30    15    18    1
@<TRIPOS>MOLECULE
MolPort-003-112-246 8959277 CSSS03437096107 DOMGJBLIFOPKKD-UHFFFAOYSA-N MCULE-7504215690 PubChem-40887173 ZINC000008959277
 28 30 0 0 0
SMALL
GASTEIGER

@<TRIPOS>ATOM
      1 N           8.5012   41.1000    8.8135 N.am    1  UNL1       -0.2559
      2 C           9.8458   41.5152    8.4994 C.ar    1  UNL1        0.0881
      3 C          10.2359   41.5755    7.1523 C.ar    1  UNL1        0.0193
      4 C          11.5003   42.0353    6.7861 C.ar    1  UNL1        0.0162
      5 C          12.4060   42.4506    7.7603 C.ar    1  UNL1        0.0537
      6 C          12.0395   42.3749    9.1090 C.ar    1  UNL1        0.0528
      7 C          10.7820   41.8987    9.4957 C.ar    1  UNL1        0.1533
      8 C           9.4532   41.0954   11.4538 C.3     1  UNL1        0.2138
      9 C           8.1359   41.8273   11.2463 C.3     1  UNL1        0.1095
     10 C           7.0821   41.1326   12.0879 C.3     1  UNL1        0.0129
     11 C           8.2562   43.2680   11.7194 C.3     1  UNL1        0.0129
     12 C           7.7178   41.7876    9.8040 C.2     1  UNL1        0.2320
     13 O          10.5396   41.8033   10.8704 O.3     1  UNL1       -0.4737
     14 O           6.6309   42.3314    9.4645 O.2     1  UNL1       -0.2744
     15 N          13.6932   42.9298    7.3478 N.am    1  UNL1       -0.2799
     16 C          14.9662   42.3377    7.6438 C.2     1  UNL1        0.2555
     17 O          15.0464   41.2880    8.3367 O.2     1  UNL1       -0.2693
     18 H          13.7045   43.7509    6.8047 H       1  UNL1        0.1552
     19 C          16.1912   42.9635    7.1339 C.ar    1  UNL1        0.0831
     20 C          17.4494   42.8638    7.7070 C.ar    1  UNL1        0.0116
     21 C          18.4283   43.5709    6.9936 C.ar    1  UNL1        0.0076
     22 C          17.9538   44.2289    5.8609 C.ar    1  UNL1        0.0356
     23 S          16.3033   43.9190    5.7602 S.2     1  UNL1       -0.0819
     24 C           7.8809   40.0190    8.0438 C.3     1  UNL1        0.0983
     25 C           6.5473   40.4442    7.4332 C.3     1  UNL1        0.0219
     26 C           6.6815   40.7784    5.9576 C.3     1  UNL1        0.0017
     27 C           6.9568   42.2593    5.7809 C.3     1  UNL1        0.0001
     28 C           7.8285   39.9860    5.3678 C.3     1  UNL1        0.0001
@<TRIPOS>BOND
     1     1     2    1
     2    15    16   am
     3    24     1    1
     4    24    25    1
     5    25    26    1
     6    26    27    1
     7    26    28    1
     8     3     4   ar
     9     5     6   ar
    10     5    15    1
    11     7    13    1
    12     7     2   ar
    13     8    13    1
    14     8     9    1
    15     9    10    1
    16     9    11    1
    17     9    12    1
    18    12     1   am
    19    16    19    1
    20    19    23   ar
    21    20    21   ar
    22    22    23   ar
    23     2     3   ar
    24     4     5   ar
    25     6     7   ar
    26    12    14    2
    27    16    17    2
    28    19    20   ar
    29    21    22   ar
    30    15    18    1
@<TRIPOS>MOLECULE
MolPort-003-112-246 8959277 CSSS03437096107 DOMGJBLIFOPKKD-UHFFFAOYSA-N MCULE-7504215690 PubChem-40887173 ZINC000008959277
 28 30 0 0 0
SMALL
GASTEIGER

@<TRIPOS>ATOM
      1 N           7.2549   41.6866    9.9069 N.am    1  UNL1       -0.2559
      2 C           8.6942   41.6059    9.9345 C.ar    1  UNL1        0.0881
      3 C           9.2965   40.5161   10.5827 C.ar    1  UNL1        0.0193
      4 C          10.6809   40.3499   10.5818 C.ar    1  UNL1        0.0162
      5 C          11.4984   41.2696    9.9277 C.ar    1  UNL1        0.0537
      6 C          10.9138   42.3737    9.2964 C.ar    1  UNL1        0.0528
      7 C           9.5280   42.5663    9.3030 C.ar    1  UNL1        0.1533
      8 C           7.7303   44.2405    8.8443 C.3     1  UNL1        0.2138
      9 C           6.7238   43.4001    8.0730 C.3     1  UNL1        0.1095
     10 C           5.3961   44.1337    8.0921 C.3     1  UNL1        0.0129
     11 C           7.1677   43.2468    6.6261 C.3     1  UNL1        0.0129
     12 C           6.5487   42.0501    8.7082 C.2     1  UNL1        0.2320
     13 O           9.0511   43.7345    8.6986 O.3     1  UNL1       -0.4737
     14 O           5.7283   41.2354    8.2027 O.2     1  UNL1       -0.2744
     15 N          12.9172   41.0614    9.9358 N.am    1  UNL1       -0.2799
     16 C          13.6063   39.8494   10.2752 C.2     1  UNL1        0.2555
     17 O          12.9695   38.8167   10.6166 O.2     1  UNL1       -0.2693
     18 H          13.4770   41.8304    9.6820 H       1  UNL1        0.1552
     19 C          15.0720   39.8122   10.2252 C.ar    1  UNL1        0.0831
     20 C          15.8745   40.6088    9.4233 C.ar    1  UNL1        0.0116
     21 C          17.2417   40.3462    9.5927 C.ar    1  UNL1        0.0076
     22 C          17.5266   39.3482   10.5221 C.ar    1  UNL1        0.0356
     23 S          16.0566   38.7987   11.1285 S.2     1  UNL1       -0.0819
     24 C           6.4871   41.2976   11.0921 C.3     1  UNL1        0.0983
     25 C           5.1124   41.9619   11.1262 C.3     1  UNL1        0.0219
     26 C           4.0113   41.0059   10.7004 C.3     1  UNL1        0.0017
     27 C           3.6929   40.0417   11.8269 C.3     1  UNL1        0.0001
     28 C           2.7674   41.7973   10.3572 C.3     1  UNL1        0.0001
@<TRIPOS>BOND
     1     1     2    1
     2    15    16   am
     3    24     1    1
     4    24    25    1
     5    25    26    1
     6    26    27    1
     7    26    28    1
     8     3     4   ar
     9     5     6   ar
    10     5    15    1
    11     7    13    1
    12     7     2   ar
    13     8    13    1
    14     8     9    1
    15     9    10    1
    16     9    11    1
    17     9    12    1
    18    12     1   am
    19    16    19    1
    20    19    23   ar
    21    20    21   ar
    22    22    23   ar
    23     2     3   ar
    24     4     5   ar
    25     6     7   ar
    26    12    14    2
    27    16    17    2
    28    19    20   ar
    29    21    22   ar
    30    15    18    1
@<TRIPOS>MOLECULE
MolPort-003-112-246 8959277 CSSS03437096107 DOMGJBLIFOPKKD-UHFFFAOYSA-N MCULE-7504215690 PubChem-40887173 ZINC000008959277
 28 30 0 0 0
SMALL
GASTEIGER

@<TRIPOS>ATOM
      1 N          15.9318   42.9474    6.4460 N.am    1  UNL1       -0.2559
      2 C          14.5114   42.7131    6.5261 C.ar    1  UNL1        0.0881
      3 C          13.7537   42.7511    5.3450 C.ar    1  UNL1        0.0193
      4 C          12.3891   42.4647    5.3524 C.ar    1  UNL1        0.0162
      5 C          11.7483   42.1287    6.5434 C.ar    1  UNL1        0.0537
      6 C          12.4860   42.1089    7.7328 C.ar    1  UNL1        0.0528
      7 C          13.8520   42.4116    7.7470 C.ar    1  UNL1        0.1533
      8 C          15.7699   42.9721    9.2479 C.3     1  UNL1        0.2138
      9 C          16.8699   42.0913    8.6749 C.3     1  UNL1        0.1095
     10 C          18.1982   42.6191    9.1832 C.3     1  UNL1        0.0129
     11 C          16.7030   40.6600    9.1623 C.3     1  UNL1        0.0129
     12 C          16.8668   42.1322    7.1733 C.2     1  UNL1        0.2320
     13 O          14.4815   42.4256    8.9964 O.3     1  UNL1       -0.4737
     14 O          17.7348   41.4713    6.5392 O.2     1  UNL1       -0.2744
     15 N          10.3466   41.8276    6.5129 N.am    1  UNL1       -0.2799
     16 C           9.6948   40.7054    7.1251 C.2     1  UNL1        0.2555
     17 O          10.3542   39.8475    7.7714 O.2     1  UNL1       -0.2693
     18 H           9.7713   42.4566    6.0203 H       1  UNL1        0.1552
     19 C           8.2414   40.5542    6.9961 C.ar    1  UNL1        0.0831
     20 C           7.5683   40.1507    5.8534 C.ar    1  UNL1        0.0116
     21 C           6.1782   40.0991    6.0321 C.ar    1  UNL1        0.0076
     22 C           5.7468   40.4587    7.3071 C.ar    1  UNL1        0.0356
     23 S           7.1164   40.8407    8.2065 S.2     1  UNL1       -0.0819
     24 C          16.4444   43.9711    5.5322 C.3     1  UNL1        0.0983
     25 C          17.9647   44.0940    5.6062 C.3     1  UNL1        0.0219
     26 C          18.4927   43.7604    6.9909 C.3     1  UNL1        0.0017
     27 C          19.2761   42.4624    6.9519 C.3     1  UNL1        0.0001
     28 C          19.4019   44.8755    7.4612 C.3     1  UNL1        0.0001
@<TRIPOS>BOND
     1     1     2    1
     2    15    16   am
     3    24     1    1
     4    24    25    1
     5    25    26    1
     6    26    27    1
     7    26    28    1
     8     3     4   ar
     9     5     6   ar
    10     5    15    1
    11     7    13    1
    12     7     2   ar
    13     8    13    1
    14     8     9    1
    15     9    10    1
    16     9    11    1
    17     9    12    1
    18    12     1   am
    19    16    19    1
    20    19    23   ar
    21    20    21   ar
    22    22    23   ar
    23     2     3   ar
    24     4     5   ar
    25     6     7   ar
    26    12    14    2
    27    16    17    2
    28    19    20   ar
    29    21    22   ar
    30    15    18    1
@<TRIPOS>MOLECULE
MolPort-003-112-246 8959277 CSSS03437096107 DOMGJBLIFOPKKD-UHFFFAOYSA-N MCULE-7504215690 PubChem-40887173 ZINC000008959277
 28 30 0 0 0
SMALL
GASTEIGER

@<TRIPOS>ATOM
      1 N          15.5624   37.3241    9.3520 N.am    1  UNL1       -0.2559
      2 C          14.2754   37.9576    9.4974 C.ar    1  UNL1        0.0881
      3 C          13.1184   37.1766    9.3494 C.ar    1  UNL1        0.0193
      4 C          11.8496   37.7201    9.5466 C.ar    1  UNL1        0.0162
      5 C          11.7068   39.0601    9.9014 C.ar    1  UNL1        0.0537
      6 C          12.8501   39.8571   10.0304 C.ar    1  UNL1        0.0528
      7 C          14.1300   39.3332    9.8181 C.ar    1  UNL1        0.1533
      8 C          16.5231   39.9590    9.4615 C.3     1  UNL1        0.2138
      9 C          17.2329   38.9768   10.3811 C.3     1  UNL1        0.1095
     10 C          18.6915   38.9260    9.9676 C.3     1  UNL1        0.0129
     11 C          17.1581   39.4593   11.8218 C.3     1  UNL1        0.0129
     12 C          16.6401   37.6016   10.2626 C.2     1  UNL1        0.2320
     13 O          15.2009   40.2291    9.9095 O.3     1  UNL1       -0.4737
     14 O          17.1311   36.6604   10.9448 O.2     1  UNL1       -0.2744
     15 N          10.3878   39.5832   10.1089 N.am    1  UNL1       -0.2799
     16 C           9.9954   40.9631   10.0773 C.2     1  UNL1        0.2555
     17 O          10.8404   41.8713    9.8544 O.2     1  UNL1       -0.2693
     18 H           9.6771   38.9270   10.2922 H       1  UNL1        0.1552
     19 C           8.5918   41.3216   10.3087 C.ar    1  UNL1        0.0831
     20 C           7.6292   41.4968    9.3268 C.ar    1  UNL1        0.0116
     21 C           6.3741   41.8372    9.8519 C.ar    1  UNL1        0.0076
     22 C           6.3367   41.9325   11.2413 C.ar    1  UNL1        0.0356
     23 S           7.8838   41.5880   11.8055 S.2     1  UNL1       -0.0819
     24 C          15.7524   36.3042    8.3179 C.3     1  UNL1        0.0983
     25 C          17.1992   36.2445    7.8328 C.3     1  UNL1        0.0219
     26 C          17.3721   35.2610    6.6881 C.3     1  UNL1        0.0017
     27 C          16.1364   35.2612    5.8088 C.3     1  UNL1        0.0001
     28 C          18.5721   35.6652    5.8587 C.3     1  UNL1        0.0001
@<TRIPOS>BOND
     1     1     2    1
     2    15    16   am
     3    24     1    1
     4    24    25    1
     5    25    26    1
     6    26    27    1
     7    26    28    1
     8     3     4   ar
     9     5     6   ar
    10     5    15    1
    11     7    13    1
    12     7     2   ar
    13     8    13    1
    14     8     9    1
    15     9    10    1
    16     9    11    1
    17     9    12    1
    18    12     1   am
    19    16    19    1
    20    19    23   ar
    21    20    21   ar
    22    22    23   ar
    23     2     3   ar
    24     4     5   ar
    25     6     7   ar
    26    12    14    2
    27    16    17    2
    28    19    20   ar
    29    21    22   ar
    30    15    18    1
@<TRIPOS>MOLECULE
MolPort-003-112-246 8959277 CSSS03437096107 DOMGJBLIFOPKKD-UHFFFAOYSA-N MCULE-7504215690 PubChem-40887173 ZINC000008959277
 28 30 0 0 0
SMALL
GASTEIGER

@<TRIPOS>ATOM
      1 N          14.8415   40.0465    9.5127 N.am    1  UNL1       -0.2559
      2 C          13.4949   40.5480    9.6305 C.ar    1  UNL1        0.0881
      3 C          13.0169   41.4339    8.6521 C.ar    1  UNL1        0.0193
      4 C          11.7019   41.8967    8.6769 C.ar    1  UNL1        0.0162
      5 C          10.8296   41.4809    9.6810 C.ar    1  UNL1        0.0537
      6 C          11.2983   40.6157   10.6764 C.ar    1  UNL1        0.0528
      7 C          12.6197   40.1559   10.6777 C.ar    1  UNL1        0.1533
      8 C          14.3489   39.0165   12.0767 C.3     1  UNL1        0.2138
      9 C          14.9328   38.0215   11.0851 C.3     1  UNL1        0.1095
     10 C          16.2688   37.5535   11.6304 C.3     1  UNL1        0.0129
     11 C          14.0175   36.8137   10.9533 C.3     1  UNL1        0.0129
     12 C          15.1464   38.6601    9.7423 C.2     1  UNL1        0.2320
     13 O          13.0044   39.3466   11.7523 O.3     1  UNL1       -0.4737
     14 O          15.6479   37.9746    8.8091 O.2     1  UNL1       -0.2744
     15 N           9.4804   41.9665    9.6691 N.am    1  UNL1       -0.2799
     16 C           8.3696   41.4016    8.9578 C.2     1  UNL1        0.2555
     17 O           8.5140   40.3735    8.2432 O.2     1  UNL1       -0.2693
     18 H           9.2970   42.7717   10.2050 H       1  UNL1        0.1552
     19 C           7.0482   42.0300    9.0628 C.ar    1  UNL1        0.0831
     20 C           5.9617   41.5180    9.7549 C.ar    1  UNL1        0.0116
     21 C           4.8302   42.3429    9.6759 C.ar    1  UNL1        0.0076
     22 C           5.0135   43.5031    8.9267 C.ar    1  UNL1        0.0356
     23 S           6.5995   43.4877    8.3655 S.2     1  UNL1       -0.0819
     24 C          15.9078   40.9410    9.0560 C.3     1  UNL1        0.0983
     25 C          15.4211   41.9070    7.9780 C.3     1  UNL1        0.0219
     26 C          16.5219   42.8507    7.5250 C.3     1  UNL1        0.0017
     27 C          15.9197   44.1298    6.9761 C.3     1  UNL1        0.0001
     28 C          17.4098   43.1857    8.7043 C.3     1  UNL1        0.0001
@<TRIPOS>BOND
     1     1     2    1
     2    15    16   am
     3    24     1    1
     4    24    25    1
     5    25    26    1
     6    26    27    1
     7    26    28    1
     8     3     4   ar
     9     5     6   ar
    10     5    15    1
    11     7    13    1
    12     7     2   ar
    13     8    13    1
    14     8     9    1
    15     9    10    1
    16     9    11    1
    17     9    12    1
    18    12     1   am
    19    16    19    1
    20    19    23   ar
    21    20    21   ar
    22    22    23   ar
    23     2     3   ar
    24     4     5   ar
    25     6     7   ar
    26    12    14    2
    27    16    17    2
    28    19    20   ar
    29    21    22   ar
    30    15    18    1
@<TRIPOS>MOLECULE
MolPort-003-112-246 8959277 CSSS03437096107 DOMGJBLIFOPKKD-UHFFFAOYSA-N MCULE-7504215690 PubChem-40887173 ZINC000008959277
 28 30 0 0 0
SMALL
GASTEIGER

@<TRIPOS>ATOM
      1 N          14.7071   40.2199    9.2884 N.am    1  UNL1       -0.2559
      2 C          13.3813   40.7759    9.1792 C.ar    1  UNL1        0.0881
      3 C          13.0948   41.6309    8.1033 C.ar    1  UNL1        0.0193
      4 C          11.8124   42.1426    7.9088 C.ar    1  UNL1        0.0162
      5 C          10.7821   41.8080    8.7853 C.ar    1  UNL1        0.0537
      6 C          11.0578   40.9748    9.8756 C.ar    1  UNL1        0.0528
      7 C          12.3426   40.4671   10.0969 C.ar    1  UNL1        0.1533
      8 C          13.7908   39.3330   11.7887 C.3     1  UNL1        0.2138
      9 C          14.4728   38.2707   10.9397 C.3     1  UNL1        0.1095
     10 C          15.6901   37.7804   11.7007 C.3     1  UNL1        0.0129
     11 C          13.5356   37.0926   10.7211 C.3     1  UNL1        0.0129
     12 C          14.9132   38.8359    9.6194 C.2     1  UNL1        0.2320
     13 O          12.5260   39.6966   11.2503 O.3     1  UNL1       -0.4737
     14 O          15.5185   38.0883    8.8026 O.2     1  UNL1       -0.2744
     15 N           9.4724   42.3420    8.5483 N.am    1  UNL1       -0.2799
     16 C           8.3775   42.3764    9.4750 C.2     1  UNL1        0.2555
     17 O           8.4982   41.9042   10.6373 O.2     1  UNL1       -0.2693
     18 H           9.3073   42.7250    7.6565 H       1  UNL1        0.1552
     19 C           7.0998   42.9683    9.0635 C.ar    1  UNL1        0.0831
     20 C           6.9484   44.0940    8.2689 C.ar    1  UNL1        0.0116
     21 C           5.6036   44.4226    8.0439 C.ar    1  UNL1        0.0076
     22 C           4.6905   43.5656    8.6545 C.ar    1  UNL1        0.0356
     23 S           5.5783   42.3963    9.4762 S.2     1  UNL1       -0.0819
     24 C          15.8680   41.0515    8.9618 C.3     1  UNL1        0.0983
     25 C          15.5627   42.0456    7.8434 C.3     1  UNL1        0.0219
     26 C          16.7606   42.9234    7.5241 C.3     1  UNL1        0.0017
     27 C          16.3020   44.2189    6.8827 C.3     1  UNL1        0.0001
     28 C          17.5046   43.2388    8.8040 C.3     1  UNL1        0.0001
@<TRIPOS>BOND
     1     1     2    1
     2    15    16   am
     3    24     1    1
     4    24    25    1
     5    25    26    1
     6    26    27    1
     7    26    28    1
     8     3     4   ar
     9     5     6   ar
    10     5    15    1
    11     7    13    1
    12     7     2   ar
    13     8    13    1
    14     8     9    1
    15     9    10    1
    16     9    11    1
    17     9    12    1
    18    12     1   am
    19    16    19    1
    20    19    23   ar
    21    20    21   ar
    22    22    23   ar
    23     2     3   ar
    24     4     5   ar
    25     6     7   ar
    26    12    14    2
    27    16    17    2
    28    19    20   ar
    29    21    22   ar
    30    15    18    1
@<TRIPOS>MOLECULE
MolPort-003-112-246 8959277 CSSS03437096107 DOMGJBLIFOPKKD-UHFFFAOYSA-N MCULE-7504215690 PubChem-40887173 ZINC000008959277
 28 30 0 0 0
SMALL
GASTEIGER

@<TRIPOS>ATOM
      1 N          15.3700   42.2048    8.0415 N.am    1  UNL1       -0.2559
      2 C          13.9426   42.0062    7.9975 C.ar    1  UNL1        0.0881
      3 C          13.3117   41.3999    9.0952 C.ar    1  UNL1        0.0193
      4 C          11.9267   41.2448    9.1374 C.ar    1  UNL1        0.0162
      5 C          11.1367   41.6968    8.0822 C.ar    1  UNL1        0.0537
      6 C          11.7535   42.2828    6.9707 C.ar    1  UNL1        0.0528
      7 C          13.1432   42.4298    6.9031 C.ar    1  UNL1        0.1533
      8 C          15.0363   42.9398    5.3534 C.3     1  UNL1        0.2138
      9 C          15.8577   43.9105    6.1884 C.3     1  UNL1        0.1095
     10 C          17.2461   43.9839    5.5815 C.3     1  UNL1        0.0129
     11 C          15.2378   45.2987    6.1401 C.3     1  UNL1        0.0129
     12 C          15.9673   43.4399    7.6108 C.2     1  UNL1        0.2320
     13 O          13.6632   42.9694    5.7215 O.3     1  UNL1       -0.4737
     14 O          16.6379   44.1224    8.4335 O.2     1  UNL1       -0.2744
     15 N           9.7144   41.5327    8.1640 N.am    1  UNL1       -0.2799
     16 C           8.9001   41.6632    9.3382 C.2     1  UNL1        0.2555
     17 O           9.4138   41.9457   10.4539 O.2     1  UNL1       -0.2693
     18 H           9.2479   41.3069    7.3270 H       1  UNL1        0.1552
     19 C           7.4501   41.4641    9.2389 C.ar    1  UNL1        0.0831
     20 C           6.7592   41.1082    8.0910 C.ar    1  UNL1        0.0116
     21 C           5.3778   40.9913    8.3034 C.ar    1  UNL1        0.0076
     22 C           4.9710   41.2522    9.6101 C.ar    1  UNL1        0.0356
     23 S           6.3513   41.6292   10.4950 S.2     1  UNL1       -0.0819
     24 C          16.2254   41.1692    8.6260 C.3     1  UNL1        0.0983
     25 C          15.4200   40.1433    9.4203 C.3     1  UNL1        0.0219
     26 C          16.3152   39.1067   10.0771 C.3     1  UNL1        0.0017
     27 C          17.7103   39.6692   10.2703 C.3     1  UNL1        0.0001
     28 C          15.7395   38.7317   11.4259 C.3     1  UNL1        0.0001
@<TRIPOS>BOND
     1     1     2    1
     2    15    16   am
     3    24     1    1
     4    24    25    1
     5    25    26    1
     6    26    27    1
     7    26    28    1
     8     3     4   ar
     9     5     6   ar
    10     5    15    1
    11     7    13    1
    12     7     2   ar
    13     8    13    1
    14     8     9    1
    15     9    10    1
    16     9    11    1
    17     9    12    1
    18    12     1   am
    19    16    19    1
    20    19    23   ar
    21    20    21   ar
    22    22    23   ar
    23     2     3   ar
    24     4     5   ar
    25     6     7   ar
    26    12    14    2
    27    16    17    2
    28    19    20   ar
    29    21    22   ar
    30    15    18    1
