@<TRIPOS>MOLECULE
MolPort-035-371-715 CSC046631183 CSSS00046631183 MCULE-4973238890 PubChem-77082363
 24 26 0 0 0
SMALL
GASTEIGER

@<TRIPOS>ATOM
      1 C           8.3685   41.2006    8.8312 C.3     1  UNL1        0.0994
      2 C          12.5054   41.8659    7.8825 C.ar    1  UNL1        0.0503
      3 C          11.8348   42.7228    8.7623 C.ar    1  UNL1        0.0144
      4 C          10.4870   42.5112    9.0661 C.ar    1  UNL1       -0.0016
      5 C           9.7978   41.4411    8.4874 C.ar    1  UNL1       -0.0061
      6 C          10.4627   40.5761    7.6131 C.ar    1  UNL1       -0.0016
      7 C          11.8104   40.7891    7.3100 C.ar    1  UNL1        0.0144
      8 C          15.8886   43.2859    6.6082 C.3     1  UNL1        0.0949
      9 C          14.4187   43.1827    6.7985 C.2     1  UNL1        0.2266
     10 O          13.6650   44.0336    6.2567 O.2     1  UNL1       -0.2748
     11 N          13.8880   42.1163    7.5954 N.am    1  UNL1       -0.2839
     12 H          14.5401   41.4908    7.9863 H       1  UNL1        0.1549
     13 C           8.2718   41.8461    6.5900 C.3     1  UNL1        0.0727
     14 C           7.5974   43.2082    6.4679 C.3     1  UNL1        0.0191
     15 C           6.4159   43.1753    7.4053 C.3     1  UNL1        0.0219
     16 C           6.2654   41.7082    7.7277 C.3     1  UNL1        0.0804
     17 N           7.5785   41.0625    7.6079 N.3     1  UNL1       -0.2666
     18 C           5.4994   41.4108    8.9895 C.ar    1  UNL1       -0.0076
     19 C           6.1603   41.5025   10.2192 C.ar    1  UNL1       -0.0007
     20 C           5.4764   41.2324   11.4084 C.ar    1  UNL1        0.0294
     21 C           4.1284   40.8649   11.3719 C.ar    1  UNL1        0.1401
     22 C           3.4644   40.7624   10.1464 C.ar    1  UNL1        0.0294
     23 C           4.1475   41.0325    8.9573 C.ar    1  UNL1       -0.0007
     24 F           3.4663   40.6042   12.5245 F       1  UNL1       -0.2042
@<TRIPOS>BOND
     1     8     9    1
     2     9    11   am
     3     3     4   ar
     4     5     6   ar
     5     1     5    1
     6     1    17    1
     7    13    17    1
     8    13    14    1
     9    14    15    1
    10    15    16    1
    11    16    18    1
    12    16    17    1
    13    19    20   ar
    14    21    24    1
    15    21    22   ar
    16    23    18   ar
    17     7     2   ar
    18    11     2    1
    19     9    10    2
    20     2     3   ar
    21     4     5   ar
    22    18    19   ar
    23    20    21   ar
    24    22    23   ar
    25     6     7   ar
    26    11    12    1
@<TRIPOS>MOLECULE
MolPort-035-371-715 CSC046631183 CSSS00046631183 MCULE-4973238890 PubChem-77082363
 24 26 0 0 0
SMALL
GASTEIGER

@<TRIPOS>ATOM
      1 C          14.5693   39.4110   10.3844 C.3     1  UNL1        0.0994
      2 C          14.0936   35.2927    9.2576 C.ar    1  UNL1        0.0503
      3 C          13.5927   35.7540   10.4801 C.ar    1  UNL1        0.0144
      4 C          13.7531   37.0921   10.8506 C.ar    1  UNL1       -0.0016
      5 C          14.4210   37.9792   10.0010 C.ar    1  UNL1       -0.0061
      6 C          14.9179   37.5278    8.7746 C.ar    1  UNL1       -0.0016
      7 C          14.7569   36.1894    8.4055 C.ar    1  UNL1        0.0144
      8 C          14.5572   31.5411    8.3649 C.3     1  UNL1        0.0949
      9 C          14.9372   32.9326    8.7213 C.2     1  UNL1        0.2266
     10 O          16.1550   33.2263    8.8488 O.2     1  UNL1       -0.2748
     11 N          13.9095   33.9128    8.9133 N.am    1  UNL1       -0.2839
     12 H          12.9809   33.6072    8.7968 H       1  UNL1        0.1549
     13 C          12.2658   39.0992   10.1703 C.3     1  UNL1        0.0727
     14 C          11.9210   38.7276    8.7322 C.3     1  UNL1        0.0191
     15 C          12.7518   39.6318    7.8559 C.3     1  UNL1        0.0219
     16 C          13.2375   40.6952    8.8110 C.3     1  UNL1        0.0804
     17 N          13.3096   40.1197   10.1597 N.3     1  UNL1       -0.2666
     18 C          14.4567   41.4510    8.3529 C.ar    1  UNL1       -0.0076
     19 C          14.3236   42.3884    7.3228 C.ar    1  UNL1       -0.0007
     20 C          15.4370   43.1059    6.8752 C.ar    1  UNL1        0.0294
     21 C          16.6900   42.8854    7.4538 C.ar    1  UNL1        0.1401
     22 C          16.8319   41.9439    8.4769 C.ar    1  UNL1        0.0294
     23 C          15.7192   41.2264    8.9249 C.ar    1  UNL1       -0.0007
     24 F          17.7680   43.5816    7.0202 F       1  UNL1       -0.2042
@<TRIPOS>BOND
     1     8     9    1
     2     9    11   am
     3     3     4   ar
     4     5     6   ar
     5     1     5    1
     6     1    17    1
     7    13    17    1
     8    13    14    1
     9    14    15    1
    10    15    16    1
    11    16    18    1
    12    16    17    1
    13    19    20   ar
    14    21    24    1
    15    21    22   ar
    16    23    18   ar
    17     7     2   ar
    18    11     2    1
    19     9    10    2
    20     2     3   ar
    21     4     5   ar
    22    18    19   ar
    23    20    21   ar
    24    22    23   ar
    25     6     7   ar
    26    11    12    1
@<TRIPOS>MOLECULE
MolPort-035-371-715 CSC046631183 CSSS00046631183 MCULE-4973238890 PubChem-77082363
 24 26 0 0 0
SMALL
GASTEIGER

@<TRIPOS>ATOM
      1 C          10.5516   41.1927    6.5827 C.3     1  UNL1        0.0994
      2 C          14.6564   42.0497    7.5171 C.ar    1  UNL1        0.0503
      3 C          14.0535   42.6200    6.3905 C.ar    1  UNL1        0.0144
      4 C          12.7201   42.3362    6.0818 C.ar    1  UNL1       -0.0016
      5 C          11.9801   41.4747    6.8974 C.ar    1  UNL1       -0.0061
      6 C          12.5730   40.9067    8.0289 C.ar    1  UNL1       -0.0016
      7 C          13.9065   41.1912    8.3362 C.ar    1  UNL1        0.0144
      8 C          18.1059   43.7762    7.9711 C.3     1  UNL1        0.0949
      9 C          16.6686   43.6337    7.6225 C.2     1  UNL1        0.2266
     10 O          16.0398   44.6298    7.1775 O.2     1  UNL1       -0.2748
     11 N          16.0265   42.3649    7.8002 N.am    1  UNL1       -0.2839
     12 H          16.5836   41.6339    8.1531 H       1  UNL1        0.1549
     13 C           9.8357   38.9765    6.7411 C.3     1  UNL1        0.0727
     14 C           8.3716   38.8703    6.3283 C.3     1  UNL1        0.0191
     15 C           7.6723   40.0476    6.9614 C.3     1  UNL1        0.0219
     16 C           8.6722   40.5439    7.9775 C.3     1  UNL1        0.0804
     17 N          10.0229   40.1989    7.5167 N.3     1  UNL1       -0.2666
     18 C           8.4730   41.9692    8.4205 C.ar    1  UNL1       -0.0076
     19 C           7.5346   42.7609    7.7495 C.ar    1  UNL1       -0.0007
     20 C           7.3269   44.0881    8.1371 C.ar    1  UNL1        0.0294
     21 C           8.0607   44.6305    9.1958 C.ar    1  UNL1        0.1401
     22 C           9.0062   43.8481    9.8646 C.ar    1  UNL1        0.0294
     23 C           9.2141   42.5212    9.4777 C.ar    1  UNL1       -0.0007
     24 F           7.8583   45.9161    9.5713 F       1  UNL1       -0.2042
@<TRIPOS>BOND
     1     8     9    1
     2     9    11   am
     3     3     4   ar
     4     5     6   ar
     5     1     5    1
     6     1    17    1
     7    13    17    1
     8    13    14    1
     9    14    15    1
    10    15    16    1
    11    16    18    1
    12    16    17    1
    13    19    20   ar
    14    21    24    1
    15    21    22   ar
    16    23    18   ar
    17     7     2   ar
    18    11     2    1
    19     9    10    2
    20     2     3   ar
    21     4     5   ar
    22    18    19   ar
    23    20    21   ar
    24    22    23   ar
    25     6     7   ar
    26    11    12    1
@<TRIPOS>MOLECULE
MolPort-035-371-715 CSC046631183 CSSS00046631183 MCULE-4973238890 PubChem-77082363
 24 26 0 0 0
SMALL
GASTEIGER

@<TRIPOS>ATOM
      1 C          11.0424   41.3525    6.0362 C.3     1  UNL1        0.0994
      2 C          14.9901   42.5582    7.2271 C.ar    1  UNL1        0.0503
      3 C          14.3107   43.2553    6.2218 C.ar    1  UNL1        0.0144
      4 C          13.0291   42.8595    5.8289 C.ar    1  UNL1       -0.0016
      5 C          12.4185   41.7585    6.4371 C.ar    1  UNL1       -0.0061
      6 C          13.0877   41.0613    7.4473 C.ar    1  UNL1       -0.0016
      7 C          14.3693   41.4582    7.8391 C.ar    1  UNL1        0.0144
      8 C          18.5234   44.1643    7.3782 C.3     1  UNL1        0.0949
      9 C          17.1909   43.8090    6.8251 C.2     1  UNL1        0.2266
     10 O          16.8643   44.2294    5.6840 O.2     1  UNL1       -0.2748
     11 N          16.3037   42.9948    7.6021 N.am    1  UNL1       -0.2839
     12 H          16.6297   42.7051    8.4848 H       1  UNL1        0.1549
     13 C          10.7959   39.4070    4.7700 C.3     1  UNL1        0.0727
     14 C           9.3250   39.1854    4.4348 C.3     1  UNL1        0.0191
     15 C           8.5576   39.4936    5.6964 C.3     1  UNL1        0.0219
     16 C           9.6280   39.5159    6.7607 C.3     1  UNL1        0.0804
     17 N          10.9017   39.9002    6.1397 N.3     1  UNL1       -0.2666
     18 C           9.2586   40.2592    8.0171 C.ar    1  UNL1       -0.0076
     19 C           7.9952   40.8541    8.1040 C.ar    1  UNL1       -0.0007
     20 C           7.6228   41.5513    9.2573 C.ar    1  UNL1        0.0294
     21 C           8.5150   41.6599   10.3277 C.ar    1  UNL1        0.1401
     22 C           9.7820   41.0760   10.2440 C.ar    1  UNL1        0.0294
     23 C          10.1548   40.3787    9.0914 C.ar    1  UNL1       -0.0007
     24 F           8.1532   42.3348   11.4449 F       1  UNL1       -0.2042
@<TRIPOS>BOND
     1     8     9    1
     2     9    11   am
     3     3     4   ar
     4     5     6   ar
     5     1     5    1
     6     1    17    1
     7    13    17    1
     8    13    14    1
     9    14    15    1
    10    15    16    1
    11    16    18    1
    12    16    17    1
    13    19    20   ar
    14    21    24    1
    15    21    22   ar
    16    23    18   ar
    17     7     2   ar
    18    11     2    1
    19     9    10    2
    20     2     3   ar
    21     4     5   ar
    22    18    19   ar
    23    20    21   ar
    24    22    23   ar
    25     6     7   ar
    26    11    12    1
@<TRIPOS>MOLECULE
MolPort-035-371-715 CSC046631183 CSSS00046631183 MCULE-4973238890 PubChem-77082363
 24 26 0 0 0
SMALL
GASTEIGER

@<TRIPOS>ATOM
      1 C          10.3301   41.1133    8.9146 C.3     1  UNL1        0.0994
      2 C          14.4327   41.9474    7.9503 C.ar    1  UNL1        0.0503
      3 C          14.0789   40.7306    8.5440 C.ar    1  UNL1        0.0144
      4 C          12.7453   40.4612    8.8644 C.ar    1  UNL1       -0.0016
      5 C          11.7547   41.4109    8.5967 C.ar    1  UNL1       -0.0061
      6 C          12.0990   42.6260    7.9969 C.ar    1  UNL1       -0.0016
      7 C          13.4329   42.8941    7.6773 C.ar    1  UNL1        0.0144
      8 C          17.8288   43.4505    6.8131 C.3     1  UNL1        0.0949
      9 C          16.3674   43.3810    7.0723 C.2     1  UNL1        0.2266
     10 O          15.6431   44.3721    6.7918 O.2     1  UNL1       -0.2748
     11 N          15.8114   42.1868    7.6368 N.am    1  UNL1       -0.2839
     12 H          16.4413   41.4550    7.8294 H       1  UNL1        0.1549
     13 C          10.5902   40.4384    6.6951 C.3     1  UNL1        0.0727
     14 C           9.9087   41.4347    5.7635 C.3     1  UNL1        0.0191
     15 C           8.5891   41.7763    6.4097 C.3     1  UNL1        0.0219
     16 C           8.4269   40.7059    7.4618 C.3     1  UNL1        0.0804
     17 N           9.7587   40.2511    7.8802 N.3     1  UNL1       -0.2666
     18 C           7.4700   41.0478    8.5730 C.ar    1  UNL1       -0.0076
     19 C           7.9861   41.4347    9.8146 C.ar    1  UNL1       -0.0007
     20 C           7.1233   41.7582   10.8662 C.ar    1  UNL1        0.0294
     21 C           5.7395   41.6919   10.6812 C.ar    1  UNL1        0.1401
     22 C           5.2172   41.2974    9.4463 C.ar    1  UNL1        0.0294
     23 C           6.0792   40.9741    8.3946 C.ar    1  UNL1       -0.0007
     24 F           4.9043   42.0063   11.7001 F       1  UNL1       -0.2042
@<TRIPOS>BOND
     1     8     9    1
     2     9    11   am
     3     3     4   ar
     4     5     6   ar
     5     1     5    1
     6     1    17    1
     7    13    17    1
     8    13    14    1
     9    14    15    1
    10    15    16    1
    11    16    18    1
    12    16    17    1
    13    19    20   ar
    14    21    24    1
    15    21    22   ar
    16    23    18   ar
    17     7     2   ar
    18    11     2    1
    19     9    10    2
    20     2     3   ar
    21     4     5   ar
    22    18    19   ar
    23    20    21   ar
    24    22    23   ar
    25     6     7   ar
    26    11    12    1
@<TRIPOS>MOLECULE
MolPort-035-371-715 CSC046631183 CSSS00046631183 MCULE-4973238890 PubChem-77082363
 24 26 0 0 0
SMALL
GASTEIGER

@<TRIPOS>ATOM
      1 C           6.8961   40.6061    7.9401 C.3     1  UNL1        0.0994
      2 C          11.1790   40.7666    7.6436 C.ar    1  UNL1        0.0503
      3 C          10.5343   41.1923    8.8103 C.ar    1  UNL1        0.0144
      4 C           9.1405   41.1470    8.9051 C.ar    1  UNL1       -0.0016
      5 C           8.3799   40.6785    7.8295 C.ar    1  UNL1       -0.0061
      6 C           9.0169   40.2444    6.6631 C.ar    1  UNL1       -0.0016
      7 C          10.4107   40.2906    6.5697 C.ar    1  UNL1        0.0144
      8 C          14.9749   40.9588    8.4435 C.3     1  UNL1        0.0949
      9 C          13.5120   40.9001    8.6965 C.2     1  UNL1        0.2266
     10 O          13.0898   40.9138    9.8827 O.2     1  UNL1       -0.2748
     11 N          12.6105   40.8289    7.5846 N.am    1  UNL1       -0.2839
     12 H          13.0159   40.8220    6.6875 H       1  UNL1        0.1549
     13 C           7.3728   42.3157    6.4239 C.3     1  UNL1        0.0727
     14 C           7.8365   43.5615    7.1710 C.3     1  UNL1        0.0191
     15 C           6.9220   43.6990    8.3628 C.3     1  UNL1        0.0219
     16 C           5.7829   42.7623    8.0400 C.3     1  UNL1        0.0804
     17 N           6.2859   41.6908    7.1715 N.3     1  UNL1       -0.2666
     18 C           4.9698   42.3189    9.2272 C.ar    1  UNL1       -0.0076
     19 C           5.6247   42.0570   10.4355 C.ar    1  UNL1       -0.0007
     20 C           4.8974   41.6435   11.5558 C.ar    1  UNL1        0.0294
     21 C           3.5112   41.4861   11.4707 C.ar    1  UNL1        0.1401
     22 C           2.8517   41.7372   10.2643 C.ar    1  UNL1        0.0294
     23 C           3.5782   42.1507    9.1441 C.ar    1  UNL1       -0.0007
     24 F           2.8073   41.0863   12.5566 F       1  UNL1       -0.2042
@<TRIPOS>BOND
     1     8     9    1
     2     9    11   am
     3     3     4   ar
     4     5     6   ar
     5     1     5    1
     6     1    17    1
     7    13    17    1
     8    13    14    1
     9    14    15    1
    10    15    16    1
    11    16    18    1
    12    16    17    1
    13    19    20   ar
    14    21    24    1
    15    21    22   ar
    16    23    18   ar
    17     7     2   ar
    18    11     2    1
    19     9    10    2
    20     2     3   ar
    21     4     5   ar
    22    18    19   ar
    23    20    21   ar
    24    22    23   ar
    25     6     7   ar
    26    11    12    1
@<TRIPOS>MOLECULE
MolPort-035-371-715 CSC046631183 CSSS00046631183 MCULE-4973238890 PubChem-77082363
 24 26 0 0 0
SMALL
GASTEIGER

@<TRIPOS>ATOM
      1 C          11.3922   39.8596    7.3124 C.3     1  UNL1        0.0994
      2 C          14.7278   42.5612    7.1345 C.ar    1  UNL1        0.0503
      3 C          14.7462   41.4715    8.0121 C.ar    1  UNL1        0.0144
      4 C          13.6585   40.5960    8.0757 C.ar    1  UNL1       -0.0016
      5 C          12.5404   40.8073    7.2631 C.ar    1  UNL1       -0.0061
      6 C          12.5174   41.8895    6.3783 C.ar    1  UNL1       -0.0016
      7 C          13.6057   42.7643    6.3160 C.ar    1  UNL1        0.0144
      8 C          18.2571   44.1624    7.3919 C.3     1  UNL1        0.0949
      9 C          17.2021   43.1217    7.4992 C.2     1  UNL1        0.2266
     10 O          17.5029   41.9811    7.9398 O.2     1  UNL1       -0.2748
     11 N          15.8627   43.4371    7.0986 N.am    1  UNL1       -0.2839
     12 H          15.7055   44.3496    6.7641 H       1  UNL1        0.1549
     13 C          10.2774   41.7613    8.0805 C.3     1  UNL1        0.0727
     14 C          11.1362   42.4902    9.1082 C.3     1  UNL1        0.0191
     15 C          11.7247   41.4211    9.9950 C.3     1  UNL1        0.0219
     16 C          10.8999   40.2002    9.6662 C.3     1  UNL1        0.0804
     17 N          10.4062   40.3223    8.2889 N.3     1  UNL1       -0.2666
     18 C          11.5432   38.8855   10.0197 C.ar    1  UNL1       -0.0076
     19 C          12.7822   38.8921   10.6697 C.ar    1  UNL1       -0.0007
     20 C          13.4050   37.6878   11.0109 C.ar    1  UNL1        0.0294
     21 C          12.7925   36.4707   10.6993 C.ar    1  UNL1        0.1401
     22 C          11.5592   36.4566   10.0419 C.ar    1  UNL1        0.0294
     23 C          10.9360   37.6602    9.7007 C.ar    1  UNL1       -0.0007
     24 F          13.3962   35.3044   11.0310 F       1  UNL1       -0.2042
@<TRIPOS>BOND
     1     8     9    1
     2     9    11   am
     3     3     4   ar
     4     5     6   ar
     5     1     5    1
     6     1    17    1
     7    13    17    1
     8    13    14    1
     9    14    15    1
    10    15    16    1
    11    16    18    1
    12    16    17    1
    13    19    20   ar
    14    21    24    1
    15    21    22   ar
    16    23    18   ar
    17     7     2   ar
    18    11     2    1
    19     9    10    2
    20     2     3   ar
    21     4     5   ar
    22    18    19   ar
    23    20    21   ar
    24    22    23   ar
    25     6     7   ar
    26    11    12    1
@<TRIPOS>MOLECULE
MolPort-035-371-715 CSC046631183 CSSS00046631183 MCULE-4973238890 PubChem-77082363
 24 26 0 0 0
SMALL
GASTEIGER

@<TRIPOS>ATOM
      1 C          10.0998   40.8285    9.9801 C.3     1  UNL1        0.0994
      2 C          13.4885   41.9307    7.5804 C.ar    1  UNL1        0.0503
      3 C          12.1887   42.1790    7.1254 C.ar    1  UNL1        0.0144
      4 C          11.0855   41.8144    7.9023 C.ar    1  UNL1       -0.0016
      5 C          11.2750   41.1936    9.1408 C.ar    1  UNL1       -0.0061
      6 C          12.5705   40.9488    9.6058 C.ar    1  UNL1       -0.0016
      7 C          13.6728   41.3137    8.8277 C.ar    1  UNL1        0.0144
      8 C          15.9816   43.8005    5.2622 C.3     1  UNL1        0.0949
      9 C          14.7629   43.5731    6.0811 C.2     1  UNL1        0.2266
     10 O          13.8997   44.4856    6.1698 O.2     1  UNL1       -0.2748
     11 N          14.5945   42.3191    6.7543 N.am    1  UNL1       -0.2839
     12 H          15.3124   41.6556    6.6375 H       1  UNL1        0.1549
     13 C           9.9352   41.3765   12.2433 C.3     1  UNL1        0.0727
     14 C           8.5615   40.9848   12.7765 C.3     1  UNL1        0.0191
     15 C           7.5690   41.3961   11.7175 C.3     1  UNL1        0.0219
     16 C           8.3704   42.3108   10.8230 C.3     1  UNL1        0.0804
     17 N           9.7843   41.9229   10.8981 N.3     1  UNL1       -0.2666
     18 C           7.8114   42.4926    9.4367 C.ar    1  UNL1       -0.0076
     19 C           7.2200   41.3976    8.7972 C.ar    1  UNL1       -0.0007
     20 C           6.6922   41.5345    7.5098 C.ar    1  UNL1        0.0294
     21 C           6.7575   42.7674    6.8545 C.ar    1  UNL1        0.1401
     22 C           7.3550   43.8630    7.4838 C.ar    1  UNL1        0.0294
     23 C           7.8827   43.7268    8.7709 C.ar    1  UNL1       -0.0007
     24 F           6.2451   42.8994    5.6076 F       1  UNL1       -0.2042
@<TRIPOS>BOND
     1     8     9    1
     2     9    11   am
     3     3     4   ar
     4     5     6   ar
     5     1     5    1
     6     1    17    1
     7    13    17    1
     8    13    14    1
     9    14    15    1
    10    15    16    1
    11    16    18    1
    12    16    17    1
    13    19    20   ar
    14    21    24    1
    15    21    22   ar
    16    23    18   ar
    17     7     2   ar
    18    11     2    1
    19     9    10    2
    20     2     3   ar
    21     4     5   ar
    22    18    19   ar
    23    20    21   ar
    24    22    23   ar
    25     6     7   ar
    26    11    12    1
@<TRIPOS>MOLECULE
MolPort-035-371-715 CSC046631183 CSSS00046631183 MCULE-4973238890 PubChem-77082363
 24 26 0 0 0
SMALL
GASTEIGER

@<TRIPOS>ATOM
      1 C          11.0139   40.6936    8.4092 C.3     1  UNL1        0.0994
      2 C          15.1247   41.8728    7.9994 C.ar    1  UNL1        0.0503
      3 C          14.1359   42.4675    7.2077 C.ar    1  UNL1        0.0144
      4 C          12.7992   42.0795    7.3355 C.ar    1  UNL1       -0.0016
      5 C          12.4419   41.0887    8.2550 C.ar    1  UNL1       -0.0061
      6 C          13.4229   40.4949    9.0549 C.ar    1  UNL1       -0.0016
      7 C          14.7591   40.8838    8.9259 C.ar    1  UNL1        0.0144
      8 C          18.3981   43.8841    7.4288 C.3     1  UNL1        0.0949
      9 C          16.9408   43.6284    7.5644 C.2     1  UNL1        0.2266
     10 O          16.1318   44.5848    7.4362 O.2     1  UNL1       -0.2748
     11 N          16.4849   42.2976    7.8387 N.am    1  UNL1       -0.2839
     12 H          17.1773   41.6032    7.9259 H       1  UNL1        0.1549
     13 C           9.4902   42.2294    9.2859 C.3     1  UNL1        0.0727
     14 C           8.0981   41.6096    9.3416 C.3     1  UNL1        0.0191
     15 C           7.9188   40.8667    8.0409 C.3     1  UNL1        0.0219
     16 C           9.0405   41.3940    7.1791 C.3     1  UNL1        0.0804
     17 N          10.1456   41.8144    8.0494 N.3     1  UNL1       -0.2666
     18 C           9.4171   40.5124    6.0179 C.ar    1  UNL1       -0.0076
     19 C           8.8378   39.2428    5.9171 C.ar    1  UNL1       -0.0007
     20 C           9.1673   38.4008    4.8508 C.ar    1  UNL1        0.0294
     21 C          10.0818   38.8241    3.8821 C.ar    1  UNL1        0.1401
     22 C          10.6712   40.0874    3.9816 C.ar    1  UNL1        0.0294
     23 C          10.3420   40.9297    5.0473 C.ar    1  UNL1       -0.0007
     24 F          10.3999   38.0081    2.8489 F       1  UNL1       -0.2042
@<TRIPOS>BOND
     1     8     9    1
     2     9    11   am
     3     3     4   ar
     4     5     6   ar
     5     1     5    1
     6     1    17    1
     7    13    17    1
     8    13    14    1
     9    14    15    1
    10    15    16    1
    11    16    18    1
    12    16    17    1
    13    19    20   ar
    14    21    24    1
    15    21    22   ar
    16    23    18   ar
    17     7     2   ar
    18    11     2    1
    19     9    10    2
    20     2     3   ar
    21     4     5   ar
    22    18    19   ar
    23    20    21   ar
    24    22    23   ar
    25     6     7   ar
    26    11    12    1
@<TRIPOS>MOLECULE
MolPort-035-371-715 CSC046631183 CSSS00046631183 MCULE-4973238890 PubChem-77082363
 24 26 0 0 0
SMALL
GASTEIGER

@<TRIPOS>ATOM
      1 C           9.5400   39.6200    8.1649 C.3     1  UNL1        0.0994
      2 C          13.0957   41.6655    6.8883 C.ar    1  UNL1        0.0503
      3 C          12.7055   41.6965    8.2317 C.ar    1  UNL1        0.0144
      4 C          11.5451   41.0372    8.6468 C.ar    1  UNL1       -0.0016
      5 C          10.7627   40.3442    7.7180 C.ar    1  UNL1       -0.0061
      6 C          11.1497   40.3022    6.3752 C.ar    1  UNL1       -0.0016
      7 C          12.3102   40.9622    5.9617 C.ar    1  UNL1        0.0144
      8 C          15.7105   44.1785    5.4978 C.3     1  UNL1        0.0949
      9 C          14.3750   43.6127    5.8200 C.2     1  UNL1        0.2266
     10 O          13.3394   44.2481    5.4893 O.2     1  UNL1       -0.2748
     11 N          14.2924   42.3546    6.5015 N.am    1  UNL1       -0.2839
     12 H          15.1455   41.9182    6.7274 H       1  UNL1        0.1549
     13 C           8.5895   40.8246    6.4057 C.3     1  UNL1        0.0727
     14 C           9.0692   42.2715    6.4448 C.3     1  UNL1        0.0191
     15 C           9.0261   42.6873    7.8943 C.3     1  UNL1        0.0219
     16 C           8.1957   41.6069    8.5439 C.3     1  UNL1        0.0804
     17 N           8.3463   40.3680    7.7707 N.3     1  UNL1       -0.2666
     18 C           8.3747   41.4779   10.0334 C.ar    1  UNL1       -0.0076
     19 C           7.2394   41.3715   10.8442 C.ar    1  UNL1       -0.0007
     20 C           7.3728   41.2507   12.2307 C.ar    1  UNL1        0.0294
     21 C           8.6434   41.2399   12.8128 C.ar    1  UNL1        0.1401
     22 C           9.7815   41.3550   12.0098 C.ar    1  UNL1        0.0294
     23 C           9.6488   41.4757   10.6236 C.ar    1  UNL1       -0.0007
     24 F           8.7718   41.1220   14.1560 F       1  UNL1       -0.2042
@<TRIPOS>BOND
     1     8     9    1
     2     9    11   am
     3     3     4   ar
     4     5     6   ar
     5     1     5    1
     6     1    17    1
     7    13    17    1
     8    13    14    1
     9    14    15    1
    10    15    16    1
    11    16    18    1
    12    16    17    1
    13    19    20   ar
    14    21    24    1
    15    21    22   ar
    16    23    18   ar
    17     7     2   ar
    18    11     2    1
    19     9    10    2
    20     2     3   ar
    21     4     5   ar
    22    18    19   ar
    23    20    21   ar
    24    22    23   ar
    25     6     7   ar
    26    11    12    1
