@<TRIPOS>MOLECULE
MolPort-047-790-232 1875248683 CSSS03496531032 GIQNNAXNAMEZCU-UHFFFAOYSA-N MCULE-4207706156 PubChem-155910437
 27 29 0 0 0
SMALL
GASTEIGER

@<TRIPOS>ATOM
      1 C          10.4516   41.0281   10.1832 C.ar    1  UNL1        0.1550
      2 C           9.1085   41.2018    9.9779 C.ar    1  UNL1        0.0504
      3 C           8.6005   41.4392   11.2218 C.ar    1  UNL1        0.0766
      4 C           7.2445   41.6751   11.4271 C.ar    1  UNL1        0.0224
      5 C           6.3945   41.6474   10.2990 C.ar    1  UNL1        0.0729
      6 C           6.9395   41.4178    9.0095 C.ar    1  UNL1        0.0040
      7 C           8.3163   41.1848    8.8351 C.ar    1  UNL1        0.0043
      8 N           9.5814   41.4139   12.1431 N.ar    1  UNL1       -0.2745
      9 N          10.7209   41.1605   11.5031 N.ar    1  UNL1       -0.1574
     10 H           9.4757   41.5563   13.1115 H       1  UNL1        0.1890
     11 C          12.1074   41.7611    8.4072 C.2     1  UNL1        0.2292
     12 N          11.4219   40.7606    9.1661 N.am    1  UNL1       -0.2679
     13 O          11.8932   42.9866    8.6063 O.2     1  UNL1       -0.2747
     14 H          11.6333   39.8184    8.9743 H       1  UNL1        0.1563
     15 C          13.0660   41.3465    7.3442 C.3     1  UNL1        0.1099
     16 C          14.4709   41.8436    7.6708 C.3     1  UNL1        0.1168
     17 C          16.0924   43.5385    6.7945 C.ar    1  UNL1        0.1204
     18 C          14.8862   44.7374    5.5065 C.ar    1  UNL1        0.1188
     19 C          14.0837   43.7599    6.0685 C.ar    1  UNL1        0.0977
     20 N          14.8576   43.0135    6.8793 N.ar    1  UNL1       -0.3132
     21 N          16.1494   44.5929    5.9610 N.ar    1  UNL1       -0.2293
     22 C          17.2895   42.9927    7.4990 C.3     1  UNL1        0.0640
     23 C          17.5525   43.7897    8.7611 C.3     1  UNL1        0.0084
     24 C           4.9317   41.9457   10.4538 C.3     1  UNL1        0.4186
     25 F           4.1948   40.9336    9.8676 F       1  UNL1       -0.1659
     26 F           4.5955   42.0321   11.7937 F       1  UNL1       -0.1659
     27 F           4.6166   43.1469    9.8421 F       1  UNL1       -0.1659
@<TRIPOS>BOND
     1    11    12   am
     2     1     2   ar
     3     2     3   ar
     4     3     8   ar
     5     4     5   ar
     6    24     5    1
     7    24    25    1
     8    24    26    1
     9    24    27    1
    10     6     7   ar
    11    15    11    1
    12    15    16    1
    13    16    20    1
    14    22    17    1
    15    22    23    1
    16    18    21   ar
    17    19    20   ar
    18    12     1    1
    19     8     9   ar
    20    20    17   ar
    21    11    13    2
    22     1     9   ar
    23     3     4   ar
    24     5     6   ar
    25     7     2   ar
    26    17    21   ar
    27    18    19   ar
    28    12    14    1
    29     8    10    1
@<TRIPOS>MOLECULE
MolPort-047-790-232 1875248683 CSSS03496531032 GIQNNAXNAMEZCU-UHFFFAOYSA-N MCULE-4207706156 PubChem-155910437
 27 29 0 0 0
SMALL
GASTEIGER

@<TRIPOS>ATOM
      1 C          12.5683   41.3748    6.9398 C.ar    1  UNL1        0.1550
      2 C          13.8333   41.6064    7.4114 C.ar    1  UNL1        0.0504
      3 C          14.3038   42.6287    6.6399 C.ar    1  UNL1        0.0766
      4 C          15.5770   43.1598    6.8235 C.ar    1  UNL1        0.0224
      5 C          16.3854   42.5942    7.8347 C.ar    1  UNL1        0.0729
      6 C          15.8759   41.5442    8.6413 C.ar    1  UNL1        0.0040
      7 C          14.5826   41.0308    8.4317 C.ar    1  UNL1        0.0043
      8 N          13.3751   43.0062    5.7418 N.ar    1  UNL1       -0.2745
      9 N          12.3067   42.2337    5.9268 N.ar    1  UNL1       -0.1574
     10 H          13.4686   43.7215    5.0718 H       1  UNL1        0.1890
     11 C          10.3389   40.6656    7.9193 C.2     1  UNL1        0.2292
     12 N          11.6594   40.3906    7.4423 N.am    1  UNL1       -0.2679
     13 O           9.8787   41.8385    7.9152 O.2     1  UNL1       -0.2747
     14 H          11.9653   39.4550    7.4612 H       1  UNL1        0.1563
     15 C           9.5071   39.5524    8.4577 C.3     1  UNL1        0.1099
     16 C           9.4203   38.4146    7.4450 C.3     1  UNL1        0.1168
     17 C           8.4642   39.7489    5.5543 C.ar    1  UNL1        0.1204
     18 C           9.7794   39.3004    3.9355 C.ar    1  UNL1        0.1188
     19 C          10.2053   38.5980    5.0493 C.ar    1  UNL1        0.0977
     20 N           9.3654   38.8895    6.0608 N.ar    1  UNL1       -0.3132
     21 N           8.6875   40.0268    4.2571 N.ar    1  UNL1       -0.2293
     22 C           7.3630   40.3759    6.3427 C.3     1  UNL1        0.0640
     23 C           6.0844   39.5821    6.1635 C.3     1  UNL1        0.0084
     24 C          17.7474   43.1606    8.1115 C.3     1  UNL1        0.4186
     25 F          18.6357   42.1252    8.3347 F       1  UNL1       -0.1659
     26 F          18.1872   43.9094    7.0338 F       1  UNL1       -0.1659
     27 F          17.7130   43.9758    9.2298 F       1  UNL1       -0.1659
@<TRIPOS>BOND
     1    11    12   am
     2     1     2   ar
     3     2     3   ar
     4     3     8   ar
     5     4     5   ar
     6    24     5    1
     7    24    25    1
     8    24    26    1
     9    24    27    1
    10     6     7   ar
    11    15    11    1
    12    15    16    1
    13    16    20    1
    14    22    17    1
    15    22    23    1
    16    18    21   ar
    17    19    20   ar
    18    12     1    1
    19     8     9   ar
    20    20    17   ar
    21    11    13    2
    22     1     9   ar
    23     3     4   ar
    24     5     6   ar
    25     7     2   ar
    26    17    21   ar
    27    18    19   ar
    28    12    14    1
    29     8    10    1
@<TRIPOS>MOLECULE
MolPort-047-790-232 1875248683 CSSS03496531032 GIQNNAXNAMEZCU-UHFFFAOYSA-N MCULE-4207706156 PubChem-155910437
 27 29 0 0 0
SMALL
GASTEIGER

@<TRIPOS>ATOM
      1 C          12.4392   41.2153    7.3590 C.ar    1  UNL1        0.1550
      2 C          13.6718   41.8087    7.2890 C.ar    1  UNL1        0.0504
      3 C          13.5551   42.7212    6.2814 C.ar    1  UNL1        0.0766
      4 C          14.6160   43.5408    5.9080 C.ar    1  UNL1        0.0224
      5 C          15.8381   43.3900    6.6004 C.ar    1  UNL1        0.0729
      6 C          15.9392   42.4501    7.6583 C.ar    1  UNL1        0.0040
      7 C          14.8465   41.6375    8.0133 C.ar    1  UNL1        0.0043
      8 N          12.3144   42.6907    5.7605 N.ar    1  UNL1       -0.2745
      9 N          11.6277   41.7632    6.4243 N.ar    1  UNL1       -0.1574
     10 H          11.9769   43.2507    5.0245 H       1  UNL1        0.1890
     11 C          11.5552   40.4174    9.5984 C.2     1  UNL1        0.2292
     12 N          12.0607   40.1876    8.2798 N.am    1  UNL1       -0.2679
     13 O          11.3994   41.5875   10.0387 O.2     1  UNL1       -0.2747
     14 H          12.1552   39.2533    7.9842 H       1  UNL1        0.1563
     15 C          11.2376   39.2547   10.4748 C.3     1  UNL1        0.1099
     16 C          12.0240   38.0243   10.0329 C.3     1  UNL1        0.1168
     17 C          14.3094   37.0525   10.3527 C.ar    1  UNL1        0.1204
     18 C          15.1650   38.3156   11.8439 C.ar    1  UNL1        0.1188
     19 C          13.8765   38.7529   11.5906 C.ar    1  UNL1        0.0977
     20 N          13.3497   37.9457   10.6502 N.ar    1  UNL1       -0.3132
     21 N          15.4360   37.2495   11.0608 N.ar    1  UNL1       -0.2293
     22 C          14.1755   35.9865    9.3168 C.3     1  UNL1        0.0640
     23 C          13.2906   34.8712    9.8365 C.3     1  UNL1        0.0084
     24 C          17.0004   44.2822    6.2750 C.3     1  UNL1        0.4186
     25 F          16.5317   45.5392    5.9414 F       1  UNL1       -0.1659
     26 F          17.8466   44.3898    7.3650 F       1  UNL1       -0.1659
     27 F          17.7187   43.7696    5.2084 F       1  UNL1       -0.1659
@<TRIPOS>BOND
     1    11    12   am
     2     1     2   ar
     3     2     3   ar
     4     3     8   ar
     5     4     5   ar
     6    24     5    1
     7    24    25    1
     8    24    26    1
     9    24    27    1
    10     6     7   ar
    11    15    11    1
    12    15    16    1
    13    16    20    1
    14    22    17    1
    15    22    23    1
    16    18    21   ar
    17    19    20   ar
    18    12     1    1
    19     8     9   ar
    20    20    17   ar
    21    11    13    2
    22     1     9   ar
    23     3     4   ar
    24     5     6   ar
    25     7     2   ar
    26    17    21   ar
    27    18    19   ar
    28    12    14    1
    29     8    10    1
@<TRIPOS>MOLECULE
MolPort-047-790-232 1875248683 CSSS03496531032 GIQNNAXNAMEZCU-UHFFFAOYSA-N MCULE-4207706156 PubChem-155910437
 27 29 0 0 0
SMALL
GASTEIGER

@<TRIPOS>ATOM
      1 C          12.3212   41.9221    7.3457 C.ar    1  UNL1        0.1550
      2 C          13.6575   41.9252    7.6467 C.ar    1  UNL1        0.0504
      3 C          14.2304   42.6613    6.6509 C.ar    1  UNL1        0.0766
      4 C          15.6008   42.9001    6.6113 C.ar    1  UNL1        0.0224
      5 C          16.3953   42.3399    7.6364 C.ar    1  UNL1        0.0729
      6 C          15.7835   41.5925    8.6754 C.ar    1  UNL1        0.0040
      7 C          14.3939   41.3708    8.6879 C.ar    1  UNL1        0.0043
      8 N          13.2939   43.0891    5.7839 N.ar    1  UNL1       -0.2745
      9 N          12.1186   42.6336    6.2122 N.ar    1  UNL1       -0.1574
     10 H          13.4494   43.6377    4.9813 H       1  UNL1        0.1890
     11 C           9.8961   41.3590    7.8300 C.2     1  UNL1        0.2292
     12 N          11.2967   41.2802    8.1110 N.am    1  UNL1       -0.2679
     13 O           9.4680   42.0185    6.8455 O.2     1  UNL1       -0.2747
     14 H          11.5762   40.7447    8.8884 H       1  UNL1        0.1563
     15 C           8.9273   40.6762    8.7334 C.3     1  UNL1        0.1099
     16 C           8.1640   41.7006    9.5675 C.3     1  UNL1        0.1168
     17 C           5.8807   41.3002    8.6210 C.ar    1  UNL1        0.1204
     18 C           4.7041   40.9012   10.3553 C.ar    1  UNL1        0.1188
     19 C           6.0030   41.1554   10.7599 C.ar    1  UNL1        0.0977
     20 N           6.7320   41.4071    9.6560 N.ar    1  UNL1       -0.3132
     21 N           4.6313   40.9882    9.0098 N.ar    1  UNL1       -0.2293
     22 C           6.2724   41.4554    7.1893 C.3     1  UNL1        0.0640
     23 C           6.2038   40.1135    6.4880 C.3     1  UNL1        0.0084
     24 C          17.8717   42.6075    7.6729 C.3     1  UNL1        0.4186
     25 F          18.5424   41.4302    7.9468 F       1  UNL1       -0.1659
     26 F          18.3035   43.1007    6.4538 F       1  UNL1       -0.1659
     27 F          18.1698   43.5367    8.6547 F       1  UNL1       -0.1659
@<TRIPOS>BOND
     1    11    12   am
     2     1     2   ar
     3     2     3   ar
     4     3     8   ar
     5     4     5   ar
     6    24     5    1
     7    24    25    1
     8    24    26    1
     9    24    27    1
    10     6     7   ar
    11    15    11    1
    12    15    16    1
    13    16    20    1
    14    22    17    1
    15    22    23    1
    16    18    21   ar
    17    19    20   ar
    18    12     1    1
    19     8     9   ar
    20    20    17   ar
    21    11    13    2
    22     1     9   ar
    23     3     4   ar
    24     5     6   ar
    25     7     2   ar
    26    17    21   ar
    27    18    19   ar
    28    12    14    1
    29     8    10    1
@<TRIPOS>MOLECULE
MolPort-047-790-232 1875248683 CSSS03496531032 GIQNNAXNAMEZCU-UHFFFAOYSA-N MCULE-4207706156 PubChem-155910437
 27 29 0 0 0
SMALL
GASTEIGER

@<TRIPOS>ATOM
      1 C          12.5164   41.8349    6.5771 C.ar    1  UNL1        0.1550
      2 C          13.7688   41.9511    7.1197 C.ar    1  UNL1        0.0504
      3 C          14.3645   42.9421    6.3954 C.ar    1  UNL1        0.0766
      4 C          15.6657   43.3606    6.6570 C.ar    1  UNL1        0.0224
      5 C          16.3676   42.7125    7.6977 C.ar    1  UNL1        0.0729
      6 C          15.7290   41.6966    8.4545 C.ar    1  UNL1        0.0040
      7 C          14.4106   41.2978    8.1662 C.ar    1  UNL1        0.0043
      8 N          13.5209   43.4111    5.4573 N.ar    1  UNL1       -0.2745
      9 N          12.3832   42.7289    5.5695 N.ar    1  UNL1       -0.1574
     10 H          13.7102   44.1266    4.8080 H       1  UNL1        0.1890
     11 C          10.8648   39.9526    6.1747 C.2     1  UNL1        0.2292
     12 N          11.5024   40.9231    7.0104 N.am    1  UNL1       -0.2679
     13 O          11.1800   39.8345    4.9606 O.2     1  UNL1       -0.2747
     14 H          11.2227   40.9669    7.9533 H       1  UNL1        0.1563
     15 C           9.7900   39.0897    6.7415 C.3     1  UNL1        0.1099
     16 C           9.5813   39.4015    8.2203 C.3     1  UNL1        0.1168
     17 C          11.3368   39.4549   10.0049 C.ar    1  UNL1        0.1204
     18 C          11.9787   37.4231   10.1096 C.ar    1  UNL1        0.1188
     19 C          11.0040   37.5215    9.1320 C.ar    1  UNL1        0.0977
     20 N          10.6108   38.8082    9.0765 N.ar    1  UNL1       -0.3132
     21 N          12.1824   38.6391   10.6600 N.ar    1  UNL1       -0.2293
     22 C          11.1960   40.9061   10.3234 C.3     1  UNL1        0.0640
     23 C          10.4333   41.0770   11.6220 C.3     1  UNL1        0.0084
     24 C          17.7552   43.1572    8.0579 C.3     1  UNL1        0.4186
     25 F          18.5868   42.0547    8.1179 F       1  UNL1       -0.1659
     26 F          18.2413   44.0392    7.1085 F       1  UNL1       -0.1659
     27 F          17.7547   43.7909    9.2887 F       1  UNL1       -0.1659
@<TRIPOS>BOND
     1    11    12   am
     2     1     2   ar
     3     2     3   ar
     4     3     8   ar
     5     4     5   ar
     6    24     5    1
     7    24    25    1
     8    24    26    1
     9    24    27    1
    10     6     7   ar
    11    15    11    1
    12    15    16    1
    13    16    20    1
    14    22    17    1
    15    22    23    1
    16    18    21   ar
    17    19    20   ar
    18    12     1    1
    19     8     9   ar
    20    20    17   ar
    21    11    13    2
    22     1     9   ar
    23     3     4   ar
    24     5     6   ar
    25     7     2   ar
    26    17    21   ar
    27    18    19   ar
    28    12    14    1
    29     8    10    1
@<TRIPOS>MOLECULE
MolPort-047-790-232 1875248683 CSSS03496531032 GIQNNAXNAMEZCU-UHFFFAOYSA-N MCULE-4207706156 PubChem-155910437
 27 29 0 0 0
SMALL
GASTEIGER

@<TRIPOS>ATOM
      1 C          13.3635   40.4741    8.4648 C.ar    1  UNL1        0.1550
      2 C          14.0682   41.4580    7.8231 C.ar    1  UNL1        0.0504
      3 C          15.3030   41.4275    8.4028 C.ar    1  UNL1        0.0766
      4 C          16.3201   42.2911    8.0072 C.ar    1  UNL1        0.0224
      5 C          16.0308   43.2226    6.9852 C.ar    1  UNL1        0.0729
      6 C          14.7482   43.2302    6.3789 C.ar    1  UNL1        0.0040
      7 C          13.7416   42.3417    6.8003 C.ar    1  UNL1        0.0043
      8 N          15.3543   40.4732    9.3506 N.ar    1  UNL1       -0.2745
      9 N          14.1598   39.8866    9.3884 N.ar    1  UNL1       -0.1574
     10 H          16.1315   40.2502    9.9121 H       1  UNL1        0.1890
     11 C          10.8621   40.8667    8.6119 C.2     1  UNL1        0.2292
     12 N          12.0052   40.1129    8.1971 N.am    1  UNL1       -0.2679
     13 O          10.9927   41.9417    9.2558 O.2     1  UNL1       -0.2747
     14 H          11.8453   39.2843    7.6900 H       1  UNL1        0.1563
     15 C           9.4962   40.3563    8.3045 C.3     1  UNL1        0.1099
     16 C           8.4365   41.3057    8.8554 C.3     1  UNL1        0.1168
     17 C           7.4740   41.7395    6.5850 C.ar    1  UNL1        0.1204
     18 C           6.9101   43.7945    6.6860 C.ar    1  UNL1        0.1188
     19 C           7.4762   43.4387    7.8978 C.ar    1  UNL1        0.0977
     20 N           7.8283   42.1414    7.8180 N.ar    1  UNL1       -0.3132
     21 N           6.9057   42.7230    5.8644 N.ar    1  UNL1       -0.2293
     22 C           7.6375   40.3468    6.0740 C.3     1  UNL1        0.0640
     23 C           6.3203   39.6037    6.1730 C.3     1  UNL1        0.0084
     24 C          17.1043   44.1435    6.4829 C.3     1  UNL1        0.4186
     25 F          18.0045   44.3938    7.5016 F       1  UNL1       -0.1659
     26 F          17.7752   43.5677    5.4180 F       1  UNL1       -0.1659
     27 F          16.5540   45.3416    6.0611 F       1  UNL1       -0.1659
@<TRIPOS>BOND
     1    11    12   am
     2     1     2   ar
     3     2     3   ar
     4     3     8   ar
     5     4     5   ar
     6    24     5    1
     7    24    25    1
     8    24    26    1
     9    24    27    1
    10     6     7   ar
    11    15    11    1
    12    15    16    1
    13    16    20    1
    14    22    17    1
    15    22    23    1
    16    18    21   ar
    17    19    20   ar
    18    12     1    1
    19     8     9   ar
    20    20    17   ar
    21    11    13    2
    22     1     9   ar
    23     3     4   ar
    24     5     6   ar
    25     7     2   ar
    26    17    21   ar
    27    18    19   ar
    28    12    14    1
    29     8    10    1
@<TRIPOS>MOLECULE
MolPort-047-790-232 1875248683 CSSS03496531032 GIQNNAXNAMEZCU-UHFFFAOYSA-N MCULE-4207706156 PubChem-155910437
 27 29 0 0 0
SMALL
GASTEIGER

@<TRIPOS>ATOM
      1 C          12.3231   40.5417    7.2701 C.ar    1  UNL1        0.1550
      2 C          13.4380   41.3374    7.2522 C.ar    1  UNL1        0.0504
      3 C          13.1541   42.3027    6.3306 C.ar    1  UNL1        0.0766
      4 C          14.0570   43.3184    6.0310 C.ar    1  UNL1        0.0224
      5 C          15.2983   43.3144    6.7058 C.ar    1  UNL1        0.0729
      6 C          15.5721   42.3151    7.6748 C.ar    1  UNL1        0.0040
      7 C          14.6364   41.3025    7.9567 C.ar    1  UNL1        0.0043
      8 N          11.9277   42.1105    5.8106 N.ar    1  UNL1       -0.2745
      9 N          11.4165   41.0260    6.3893 N.ar    1  UNL1       -0.1574
     10 H          11.4895   42.6687    5.1282 H       1  UNL1        0.1890
     11 C          12.0429   39.4106    9.5228 C.2     1  UNL1        0.2292
     12 N          12.1367   39.3879    8.0954 N.am    1  UNL1       -0.2679
     13 O          12.1130   40.4950   10.1604 O.2     1  UNL1       -0.2747
     14 H          12.0678   38.5136    7.6479 H       1  UNL1        0.1563
     15 C          11.8911   38.1291   10.2682 C.3     1  UNL1        0.1099
     16 C          12.3605   36.9565    9.4123 C.3     1  UNL1        0.1168
     17 C          14.6669   37.0349   10.3839 C.ar    1  UNL1        0.1204
     18 C          15.9030   36.4859    8.7340 C.ar    1  UNL1        0.1188
     19 C          14.5862   36.4913    8.3081 C.ar    1  UNL1        0.0977
     20 N          13.8195   36.8410    9.3584 N.ar    1  UNL1       -0.3132
     21 N          15.9503   36.8233   10.0406 N.ar    1  UNL1       -0.2293
     22 C          14.2439   37.3938   11.7693 C.3     1  UNL1        0.0640
     23 C          14.7974   38.7550   12.1407 C.3     1  UNL1        0.0084
     24 C          16.2897   44.4142    6.4604 C.3     1  UNL1        0.4186
     25 F          15.6159   45.5599    6.0804 F       1  UNL1       -0.1659
     26 F          17.0146   44.6762    7.6100 F       1  UNL1       -0.1659
     27 F          17.1715   44.0540    5.4559 F       1  UNL1       -0.1659
@<TRIPOS>BOND
     1    11    12   am
     2     1     2   ar
     3     2     3   ar
     4     3     8   ar
     5     4     5   ar
     6    24     5    1
     7    24    25    1
     8    24    26    1
     9    24    27    1
    10     6     7   ar
    11    15    11    1
    12    15    16    1
    13    16    20    1
    14    22    17    1
    15    22    23    1
    16    18    21   ar
    17    19    20   ar
    18    12     1    1
    19     8     9   ar
    20    20    17   ar
    21    11    13    2
    22     1     9   ar
    23     3     4   ar
    24     5     6   ar
    25     7     2   ar
    26    17    21   ar
    27    18    19   ar
    28    12    14    1
    29     8    10    1
@<TRIPOS>MOLECULE
MolPort-047-790-232 1875248683 CSSS03496531032 GIQNNAXNAMEZCU-UHFFFAOYSA-N MCULE-4207706156 PubChem-155910437
 27 29 0 0 0
SMALL
GASTEIGER

@<TRIPOS>ATOM
      1 C          13.7239   40.3614    8.8105 C.ar    1  UNL1        0.1550
      2 C          14.3840   41.3442    8.1215 C.ar    1  UNL1        0.0504
      3 C          15.6418   41.3464    8.6504 C.ar    1  UNL1        0.0766
      4 C          16.6263   42.2192    8.1968 C.ar    1  UNL1        0.0224
      5 C          16.2790   43.1250    7.1698 C.ar    1  UNL1        0.0729
      6 C          14.9728   43.0986    6.6167 C.ar    1  UNL1        0.0040
      7 C          14.0002   42.2016    7.0962 C.ar    1  UNL1        0.0043
      8 N          15.7488   40.4122    9.6134 N.ar    1  UNL1       -0.2745
      9 N          14.5675   39.8061    9.7117 N.ar    1  UNL1       -0.1574
     10 H          16.5522   40.2138   10.1467 H       1  UNL1        0.1890
     11 C          11.8743   38.6298    8.6948 C.2     1  UNL1        0.2292
     12 N          12.3624   39.9717    8.6058 N.am    1  UNL1       -0.2679
     13 O          12.6467   37.6760    8.9794 O.2     1  UNL1       -0.2747
     14 H          11.7136   40.6793    8.3877 H       1  UNL1        0.1563
     15 C          10.4369   38.3524    8.4160 C.3     1  UNL1        0.1099
     16 C           9.7539   39.5957    7.8543 C.3     1  UNL1        0.1168
     17 C           8.5188   39.5169    5.6777 C.ar    1  UNL1        0.1204
     18 C          10.0834   39.6339    4.2322 C.ar    1  UNL1        0.1188
     19 C          10.6537   39.6547    5.4930 C.ar    1  UNL1        0.0977
     20 N           9.6553   39.5783    6.3933 N.ar    1  UNL1       -0.3132
     21 N           8.7409   39.5521    4.3514 N.ar    1  UNL1       -0.2293
     22 C           7.1509   39.4680    6.2724 C.3     1  UNL1        0.0640
     23 C           6.6395   40.8756    6.5050 C.3     1  UNL1        0.0084
     24 C          17.3144   44.0539    6.6062 C.3     1  UNL1        0.4186
     25 F          16.7022   45.2212    6.1895 F       1  UNL1       -0.1659
     26 F          18.2635   44.3589    7.5664 F       1  UNL1       -0.1659
     27 F          17.9525   43.4677    5.5266 F       1  UNL1       -0.1659
@<TRIPOS>BOND
     1    11    12   am
     2     1     2   ar
     3     2     3   ar
     4     3     8   ar
     5     4     5   ar
     6    24     5    1
     7    24    25    1
     8    24    26    1
     9    24    27    1
    10     6     7   ar
    11    15    11    1
    12    15    16    1
    13    16    20    1
    14    22    17    1
    15    22    23    1
    16    18    21   ar
    17    19    20   ar
    18    12     1    1
    19     8     9   ar
    20    20    17   ar
    21    11    13    2
    22     1     9   ar
    23     3     4   ar
    24     5     6   ar
    25     7     2   ar
    26    17    21   ar
    27    18    19   ar
    28    12    14    1
    29     8    10    1
@<TRIPOS>MOLECULE
MolPort-047-790-232 1875248683 CSSS03496531032 GIQNNAXNAMEZCU-UHFFFAOYSA-N MCULE-4207706156 PubChem-155910437
 27 29 0 0 0
SMALL
GASTEIGER

@<TRIPOS>ATOM
      1 C          13.8806   40.3670    8.8305 C.ar    1  UNL1        0.1550
      2 C          14.5057   41.3704    8.1386 C.ar    1  UNL1        0.0504
      3 C          15.7962   41.3377    8.5805 C.ar    1  UNL1        0.0766
      4 C          16.7592   42.2181    8.0967 C.ar    1  UNL1        0.0224
      5 C          16.3554   43.1691    7.1331 C.ar    1  UNL1        0.0729
      6 C          15.0147   43.1791    6.6695 C.ar    1  UNL1        0.0040
      7 C          14.0649   42.2733    7.1773 C.ar    1  UNL1        0.0043
      8 N          15.9556   40.3635    9.4955 N.ar    1  UNL1       -0.2745
      9 N          14.7758   39.7662    9.6492 N.ar    1  UNL1       -0.1574
     10 H          16.7904   40.1349    9.9645 H       1  UNL1        0.1890
     11 C          11.4057   40.7517    9.2295 C.2     1  UNL1        0.2292
     12 N          12.5035   40.0002    8.7033 N.am    1  UNL1       -0.2679
     13 O          11.5970   41.8295    9.8533 O.2     1  UNL1       -0.2747
     14 H          12.2960   39.1693    8.2177 H       1  UNL1        0.1563
     15 C          10.0174   40.2356    9.0640 C.3     1  UNL1        0.1099
     16 C           9.1954   41.1867    8.1994 C.3     1  UNL1        0.1168
     17 C           8.7562   39.7804    6.1749 C.ar    1  UNL1        0.1204
     18 C           6.6308   39.5965    6.1685 C.ar    1  UNL1        0.1188
     19 C           6.9966   40.3772    7.2511 C.ar    1  UNL1        0.0977
     20 N           8.3388   40.4856    7.2406 N.ar    1  UNL1       -0.3132
     21 N           7.7394   39.2188    5.4965 N.ar    1  UNL1       -0.2293
     22 C          10.1882   39.5875    5.8013 C.3     1  UNL1        0.0640
     23 C          10.5259   40.4423    4.5961 C.3     1  UNL1        0.0084
     24 C          17.3626   44.1097    6.5385 C.3     1  UNL1        0.4186
     25 F          16.7285   45.2784    6.1606 F       1  UNL1       -0.1659
     26 F          18.3486   44.4087    7.4627 F       1  UNL1       -0.1659
     27 F          17.9589   43.5389    5.4272 F       1  UNL1       -0.1659
@<TRIPOS>BOND
     1    11    12   am
     2     1     2   ar
     3     2     3   ar
     4     3     8   ar
     5     4     5   ar
     6    24     5    1
     7    24    25    1
     8    24    26    1
     9    24    27    1
    10     6     7   ar
    11    15    11    1
    12    15    16    1
    13    16    20    1
    14    22    17    1
    15    22    23    1
    16    18    21   ar
    17    19    20   ar
    18    12     1    1
    19     8     9   ar
    20    20    17   ar
    21    11    13    2
    22     1     9   ar
    23     3     4   ar
    24     5     6   ar
    25     7     2   ar
    26    17    21   ar
    27    18    19   ar
    28    12    14    1
    29     8    10    1
@<TRIPOS>MOLECULE
MolPort-047-790-232 1875248683 CSSS03496531032 GIQNNAXNAMEZCU-UHFFFAOYSA-N MCULE-4207706156 PubChem-155910437
 27 29 0 0 0
SMALL
GASTEIGER

@<TRIPOS>ATOM
      1 C           9.9844   40.9159    6.4001 C.ar    1  UNL1        0.1550
      2 C           9.1387   41.0917    7.4632 C.ar    1  UNL1        0.0504
      3 C           7.8901   41.0724    6.9133 C.ar    1  UNL1        0.0766
      4 C           6.7446   41.2164    7.6903 C.ar    1  UNL1        0.0224
      5 C           6.9126   41.4002    9.0810 C.ar    1  UNL1        0.0729
      6 C           8.2160   41.3995    9.6410 C.ar    1  UNL1        0.0040
      7 C           9.3547   41.2490    8.8279 C.ar    1  UNL1        0.0043
      8 N           7.9653   40.8926    5.5816 N.ar    1  UNL1       -0.2745
      9 N           9.2551   40.7965    5.2661 N.ar    1  UNL1       -0.1574
     10 H           7.2066   40.8417    4.9562 H       1  UNL1        0.1890
     11 C          12.1756   40.9912    7.6752 C.2     1  UNL1        0.2292
     12 N          11.4122   40.8556    6.4729 N.am    1  UNL1       -0.2679
     13 O          11.6095   41.1700    8.7865 O.2     1  UNL1       -0.2747
     14 H          11.9056   40.7099    5.6336 H       1  UNL1        0.1563
     15 C          13.6638   40.9515    7.6073 C.3     1  UNL1        0.1099
     16 C          14.2536   42.2799    8.0711 C.3     1  UNL1        0.1168
     17 C          16.0502   43.3773    6.7155 C.ar    1  UNL1        0.1204
     18 C          14.9592   44.3154    5.1404 C.ar    1  UNL1        0.1188
     19 C          14.0573   43.6789    5.9751 C.ar    1  UNL1        0.0977
     20 N          14.7597   43.0940    6.9639 N.ar    1  UNL1       -0.3132
     21 N          16.2117   44.1201    5.6057 N.ar    1  UNL1       -0.2293
     22 C          17.1936   42.8864    7.5394 C.3     1  UNL1        0.0640
     23 C          17.4980   43.8802    8.6425 C.3     1  UNL1        0.0084
     24 C           5.7115   41.5094    9.9744 C.3     1  UNL1        0.4186
     25 F           6.0706   41.1708   11.2656 F       1  UNL1       -0.1659
     26 F           5.2196   42.8031    9.9662 F       1  UNL1       -0.1659
     27 F           4.7108   40.6548    9.5445 F       1  UNL1       -0.1659
@<TRIPOS>BOND
     1    11    12   am
     2     1     2   ar
     3     2     3   ar
     4     3     8   ar
     5     4     5   ar
     6    24     5    1
     7    24    25    1
     8    24    26    1
     9    24    27    1
    10     6     7   ar
    11    15    11    1
    12    15    16    1
    13    16    20    1
    14    22    17    1
    15    22    23    1
    16    18    21   ar
    17    19    20   ar
    18    12     1    1
    19     8     9   ar
    20    20    17   ar
    21    11    13    2
    22     1     9   ar
    23     3     4   ar
    24     5     6   ar
    25     7     2   ar
    26    17    21   ar
    27    18    19   ar
    28    12    14    1
    29     8    10    1
