@<TRIPOS>MOLECULE
MolPort-007-967-220 ChemDiv-L497-0033 MCULE-5991978792 PubChem-46385444 ZINC000033129554
 30 32 0 0 0
SMALL
GASTEIGER

@<TRIPOS>ATOM
      1 O          10.6881   41.7997    9.2282 O.2     1  UNL1       -0.2729
      2 N          11.6737   40.4032    7.6281 N.am    1  UNL1       -0.2823
      3 C          10.5568   40.8664    8.3928 C.2     1  UNL1        0.2462
      4 H          11.5796   39.5356    7.1724 H       1  UNL1        0.1549
      5 S          15.2494   41.9644    7.7647 S.2     1  UNL1       -0.0703
      6 C          14.3178   42.7103    6.5822 C.ar    1  UNL1        0.1526
      7 C          14.0627   40.8757    8.2416 C.ar    1  UNL1        0.0223
      8 C          12.9178   41.0960    7.4701 C.ar    1  UNL1        0.0542
      9 C          13.0526   42.1410    6.5474 C.ar    1  UNL1        0.0414
     10 C          14.2007   39.9571    9.4054 C.3     1  UNL1        0.0395
     11 S          14.8537   44.0527    5.5907 S.O2    1  UNL1        0.0690
     12 O          14.9647   43.5905    4.1647 O.2     1  UNL1       -0.1523
     13 O          13.8426   45.1642    5.6661 O.2     1  UNL1       -0.1523
     14 N          16.3991   44.6119    6.1500 N.3     1  UNL1       -0.1551
     15 C          16.4740   44.3635    7.5881 C.3     1  UNL1        0.0959
     16 C          17.5755   43.3589    7.8474 C.3     1  UNL1        0.0206
     17 C          18.4024   43.3733    6.5950 C.3     1  UNL1        0.0206
     18 C          17.4276   43.7891    5.5224 C.3     1  UNL1        0.0959
     19 C           9.2424   40.1766    8.2645 C.3     1  UNL1        0.1762
     20 O           7.5455   41.3472   10.2414 O.2     1  UNL1       -0.2701
     21 N           8.1873   41.1463    8.0067 N.am    1  UNL1       -0.2931
     22 C           7.3516   41.6791    9.0398 C.2     1  UNL1        0.2462
     23 H           8.0422   41.4489    7.0811 H       1  UNL1        0.1502
     24 C           6.2677   42.6173    8.7004 C.ar    1  UNL1        0.0533
     25 C           4.9755   42.4245    9.2114 C.ar    1  UNL1        0.0042
     26 C           3.9471   43.3144    8.8874 C.ar    1  UNL1       -0.0041
     27 C           4.2034   44.4034    8.0500 C.ar    1  UNL1       -0.0218
     28 C           5.4876   44.6026    7.5364 C.ar    1  UNL1       -0.0041
     29 C           6.5159   43.7127    7.8603 C.ar    1  UNL1        0.0042
     30 C           3.1103   45.3493    7.7055 C.3     1  UNL1        0.0310
@<TRIPOS>BOND
     1    11    14    1
     2    11     6    1
     3     2     3   am
     4    21    22   am
     5    15    14    1
     6    15    16    1
     7    16    17    1
     8    17    18    1
     9    18    14    1
    10     6     5   ar
    11     7     5   ar
    12     8     2    1
    13     8     9   ar
    14    19     3    1
    15    19    21    1
    16    22    24    1
    17    25    26   ar
    18    27    28   ar
    19    29    24   ar
    20    30    27    1
    21    10     7    1
    22    11    12    2
    23    11    13    2
    24     7     8   ar
    25     3     1    2
    26    22    20    2
    27    24    25   ar
    28    26    27   ar
    29    28    29   ar
    30     9     6   ar
    31     2     4    1
    32    21    23    1
@<TRIPOS>MOLECULE
MolPort-007-967-220 ChemDiv-L497-0033 MCULE-5991978792 PubChem-46385444 ZINC000033129554
 30 32 0 0 0
SMALL
GASTEIGER

@<TRIPOS>ATOM
      1 O          10.2641   42.9075   10.9981 O.2     1  UNL1       -0.2729
      2 N          10.8372   40.6374   10.9770 N.am    1  UNL1       -0.2823
      3 C           9.9339   41.7159   11.2376 C.2     1  UNL1        0.2462
      4 H          10.6326   39.7678   11.3908 H       1  UNL1        0.1549
      5 S          14.3395   40.4921    9.2583 S.2     1  UNL1       -0.0703
      6 C          13.3155   41.5410    8.4375 C.ar    1  UNL1        0.1526
      7 C          13.2109   40.0388   10.4166 C.ar    1  UNL1        0.0223
      8 C          12.0145   40.7168   10.1644 C.ar    1  UNL1        0.0542
      9 C          12.0763   41.5775    9.0613 C.ar    1  UNL1        0.0414
     10 C          13.5279   39.1789   11.5902 C.3     1  UNL1        0.0395
     11 S          13.7761   42.4935    7.0400 S.O2    1  UNL1        0.0690
     12 O          13.0939   41.9337    5.8232 O.2     1  UNL1       -0.1523
     13 O          13.3311   43.9171    7.2373 O.2     1  UNL1       -0.1523
     14 N          15.4983   42.4294    6.8310 N.3     1  UNL1       -0.1551
     15 C          15.9223   43.6795    6.2042 C.3     1  UNL1        0.0959
     16 C          16.8141   44.4263    7.1722 C.3     1  UNL1        0.0206
     17 C          17.2368   43.3903    8.1724 C.3     1  UNL1        0.0206
     18 C          16.1094   42.3891    8.1551 C.3     1  UNL1        0.0959
     19 C           8.6212   41.4345   11.8836 C.3     1  UNL1        0.1762
     20 O           7.7322   41.0895    9.1913 O.2     1  UNL1       -0.2701
     21 N           7.5662   42.2014   11.2363 N.am    1  UNL1       -0.2931
     22 C           7.1819   41.9977    9.8723 C.2     1  UNL1        0.2462
     23 H           7.0965   42.8903   11.7598 H       1  UNL1        0.1502
     24 C           6.1418   42.8461    9.2652 C.ar    1  UNL1        0.0533
     25 C           6.4936   43.8822    8.3871 C.ar    1  UNL1        0.0042
     26 C           5.5060   44.6879    7.8127 C.ar    1  UNL1       -0.0041
     27 C           4.1596   44.4637    8.1123 C.ar    1  UNL1       -0.0218
     28 C           3.8006   43.4341    8.9862 C.ar    1  UNL1       -0.0041
     29 C           4.7881   42.6284    9.5607 C.ar    1  UNL1        0.0042
     30 C           3.1099   45.3202    7.5020 C.3     1  UNL1        0.0310
@<TRIPOS>BOND
     1    11    14    1
     2    11     6    1
     3     2     3   am
     4    21    22   am
     5    15    14    1
     6    15    16    1
     7    16    17    1
     8    17    18    1
     9    18    14    1
    10     6     5   ar
    11     7     5   ar
    12     8     2    1
    13     8     9   ar
    14    19     3    1
    15    19    21    1
    16    22    24    1
    17    25    26   ar
    18    27    28   ar
    19    29    24   ar
    20    30    27    1
    21    10     7    1
    22    11    12    2
    23    11    13    2
    24     7     8   ar
    25     3     1    2
    26    22    20    2
    27    24    25   ar
    28    26    27   ar
    29    28    29   ar
    30     9     6   ar
    31     2     4    1
    32    21    23    1
@<TRIPOS>MOLECULE
MolPort-007-967-220 ChemDiv-L497-0033 MCULE-5991978792 PubChem-46385444 ZINC000033129554
 30 32 0 0 0
SMALL
GASTEIGER

@<TRIPOS>ATOM
      1 O          10.6418   39.9249   10.0744 O.2     1  UNL1       -0.2729
      2 N          11.2887   38.2605    8.5600 N.am    1  UNL1       -0.2823
      3 C          10.5732   39.4488    8.9104 C.2     1  UNL1        0.2462
      4 H          11.0241   37.8032    7.7293 H       1  UNL1        0.1549
      5 S          13.7085   36.3561   10.9599 S.2     1  UNL1       -0.0703
      6 C          14.5424   37.5033   10.0593 C.ar    1  UNL1        0.1526
      7 C          12.2106   36.6642   10.2656 C.ar    1  UNL1        0.0223
      8 C          12.3581   37.6803    9.3167 C.ar    1  UNL1        0.0542
      9 C          13.6670   38.1675    9.2117 C.ar    1  UNL1        0.0414
     10 C          10.9387   36.0449   10.7307 C.3     1  UNL1        0.0395
     11 S          16.2534   37.8473   10.2224 S.O2    1  UNL1        0.0690
     12 O          16.8004   37.0582   11.3790 O.2     1  UNL1       -0.1523
     13 O          16.9685   37.4309    8.9659 O.2     1  UNL1       -0.1523
     14 N          16.4838   39.5443   10.5065 N.3     1  UNL1       -0.1551
     15 C          17.8502   39.8845   10.1158 C.3     1  UNL1        0.0959
     16 C          17.7931   40.8452    8.9481 C.3     1  UNL1        0.0206
     17 C          16.3901   41.3778    8.9654 C.3     1  UNL1        0.0206
     18 C          15.5918   40.2738    9.6117 C.3     1  UNL1        0.0959
     19 C           9.6651   40.0803    7.9123 C.3     1  UNL1        0.1762
     20 O           8.5593   42.6362    8.5469 O.2     1  UNL1       -0.2701
     21 N           8.3532   40.3121    8.5000 N.am    1  UNL1       -0.2931
     22 C           7.8641   41.6193    8.8189 C.2     1  UNL1        0.2462
     23 H           7.7773   39.5357    8.6863 H       1  UNL1        0.1502
     24 C           6.5478   41.7771    9.4613 C.ar    1  UNL1        0.0533
     25 C           5.4763   42.3443    8.7552 C.ar    1  UNL1        0.0042
     26 C           4.2280   42.4951    9.3663 C.ar    1  UNL1       -0.0041
     27 C           4.0420   42.0803   10.6877 C.ar    1  UNL1       -0.0218
     28 C           5.1040   41.5147   11.3982 C.ar    1  UNL1       -0.0041
     29 C           6.3524   41.3638   10.7873 C.ar    1  UNL1        0.0042
     30 C           2.7152   42.2408   11.3372 C.3     1  UNL1        0.0310
@<TRIPOS>BOND
     1    11    14    1
     2    11     6    1
     3     2     3   am
     4    21    22   am
     5    15    14    1
     6    15    16    1
     7    16    17    1
     8    17    18    1
     9    18    14    1
    10     6     5   ar
    11     7     5   ar
    12     8     2    1
    13     8     9   ar
    14    19     3    1
    15    19    21    1
    16    22    24    1
    17    25    26   ar
    18    27    28   ar
    19    29    24   ar
    20    30    27    1
    21    10     7    1
    22    11    12    2
    23    11    13    2
    24     7     8   ar
    25     3     1    2
    26    22    20    2
    27    24    25   ar
    28    26    27   ar
    29    28    29   ar
    30     9     6   ar
    31     2     4    1
    32    21    23    1
@<TRIPOS>MOLECULE
MolPort-007-967-220 ChemDiv-L497-0033 MCULE-5991978792 PubChem-46385444 ZINC000033129554
 30 32 0 0 0
SMALL
GASTEIGER

@<TRIPOS>ATOM
      1 O          10.7613   40.4796    9.8374 O.2     1  UNL1       -0.2729
      2 N          12.0700   39.8196    8.0116 N.am    1  UNL1       -0.2823
      3 C          10.8327   40.2218    8.6067 C.2     1  UNL1        0.2462
      4 H          12.0280   39.4088    7.1179 H       1  UNL1        0.1549
      5 S          15.6837   40.7179    9.1845 S.2     1  UNL1       -0.0703
      6 C          15.1530   39.3028    9.9183 C.ar    1  UNL1        0.1526
      7 C          14.2684   40.9929    8.3229 C.ar    1  UNL1        0.0223
      8 C          13.3650   39.9646    8.6072 C.ar    1  UNL1        0.0542
      9 C          13.8674   39.0015    9.4912 C.ar    1  UNL1        0.0414
     10 C          14.1100   42.0769    7.3143 C.3     1  UNL1        0.0395
     11 S          16.1148   38.3247   11.0094 S.O2    1  UNL1        0.0690
     12 O          15.5486   38.4434   12.3968 O.2     1  UNL1       -0.1523
     13 O          16.0503   36.8848   10.5777 O.2     1  UNL1       -0.1523
     14 N          17.7597   38.8794   10.9956 N.3     1  UNL1       -0.1551
     15 C          18.6268   37.7215   11.2032 C.3     1  UNL1        0.0959
     16 C          19.4663   37.5186    9.9606 C.3     1  UNL1        0.0206
     17 C          19.3757   38.8243    9.2261 C.3     1  UNL1        0.0206
     18 C          18.0485   39.3928    9.6608 C.3     1  UNL1        0.0959
     19 C           9.5944   40.2493    7.7788 C.3     1  UNL1        0.1762
     20 O           7.1628   41.5297    7.0003 O.2     1  UNL1       -0.2701
     21 N           8.4249   40.4308    8.6269 N.am    1  UNL1       -0.2931
     22 C           7.2414   41.1050    8.1856 C.2     1  UNL1        0.2462
     23 H           8.4489   40.0742    9.5442 H       1  UNL1        0.1502
     24 C           6.1145   41.2998    9.1143 C.ar    1  UNL1        0.0533
     25 C           6.3494   41.5195   10.4798 C.ar    1  UNL1        0.0042
     26 C           5.2793   41.7025   11.3606 C.ar    1  UNL1       -0.0041
     27 C           3.9667   41.6669   10.8825 C.ar    1  UNL1       -0.0218
     28 C           3.7239   41.4482    9.5239 C.ar    1  UNL1       -0.0041
     29 C           4.7939   41.2652    8.6430 C.ar    1  UNL1        0.0042
     30 C           2.8292   41.8613   11.8187 C.3     1  UNL1        0.0310
@<TRIPOS>BOND
     1    11    14    1
     2    11     6    1
     3     2     3   am
     4    21    22   am
     5    15    14    1
     6    15    16    1
     7    16    17    1
     8    17    18    1
     9    18    14    1
    10     6     5   ar
    11     7     5   ar
    12     8     2    1
    13     8     9   ar
    14    19     3    1
    15    19    21    1
    16    22    24    1
    17    25    26   ar
    18    27    28   ar
    19    29    24   ar
    20    30    27    1
    21    10     7    1
    22    11    12    2
    23    11    13    2
    24     7     8   ar
    25     3     1    2
    26    22    20    2
    27    24    25   ar
    28    26    27   ar
    29    28    29   ar
    30     9     6   ar
    31     2     4    1
    32    21    23    1
@<TRIPOS>MOLECULE
MolPort-007-967-220 ChemDiv-L497-0033 MCULE-5991978792 PubChem-46385444 ZINC000033129554
 30 32 0 0 0
SMALL
GASTEIGER

@<TRIPOS>ATOM
      1 O          10.9495   42.3365   10.9310 O.2     1  UNL1       -0.2729
      2 N          11.2747   40.0324   11.1910 N.am    1  UNL1       -0.2823
      3 C          10.4616   41.2095   11.2103 C.2     1  UNL1        0.2462
      4 H          10.9173   39.2301   11.6357 H       1  UNL1        0.1549
      5 S          14.4741   39.9377    8.9558 S.2     1  UNL1       -0.0703
      6 C          14.7781   39.2568   10.4613 C.ar    1  UNL1        0.1526
      7 C          12.8732   40.3309    9.2772 C.ar    1  UNL1        0.0223
      8 C          12.5654   39.9235   10.5787 C.ar    1  UNL1        0.0542
      9 C          13.6311   39.3016   11.2414 C.ar    1  UNL1        0.0414
     10 C          11.9334   40.8754    8.2586 C.3     1  UNL1        0.0395
     11 S          16.3036   38.5393   10.9411 S.O2    1  UNL1        0.0690
     12 O          17.1607   39.5977   11.5770 O.2     1  UNL1       -0.1523
     13 O          16.0486   37.4490   11.9460 O.2     1  UNL1       -0.1523
     14 N          17.1082   37.8900    9.5465 N.3     1  UNL1       -0.1551
     15 C          18.4686   37.5288    9.9393 C.3     1  UNL1        0.0959
     16 C          18.6271   36.0297    9.8069 C.3     1  UNL1        0.0206
     17 C          17.4875   35.6057    8.9272 C.3     1  UNL1        0.0206
     18 C          16.4308   36.6527    9.1737 C.3     1  UNL1        0.0959
     19 C           9.0422   41.1142   11.6531 C.3     1  UNL1        0.1762
     20 O           6.1869   41.0644   11.6082 O.2     1  UNL1       -0.2701
     21 N           8.1949   41.9478   10.8121 N.am    1  UNL1       -0.2931
     22 C           6.7660   41.8583   10.8171 C.2     1  UNL1        0.2462
     23 H           8.6234   42.6017   10.2137 H       1  UNL1        0.1502
     24 C           5.9720   42.6956    9.9013 C.ar    1  UNL1        0.0533
     25 C           4.5701   42.6483    9.9310 C.ar    1  UNL1        0.0042
     26 C           3.8175   43.4421    9.0604 C.ar    1  UNL1       -0.0041
     27 C           4.4610   44.2885    8.1536 C.ar    1  UNL1       -0.0218
     28 C           5.8569   44.3414    8.1172 C.ar    1  UNL1       -0.0041
     29 C           6.6096   43.5477    8.9878 C.ar    1  UNL1        0.0042
     30 C           3.6611   45.1321    7.2281 C.3     1  UNL1        0.0310
@<TRIPOS>BOND
     1    11    14    1
     2    11     6    1
     3     2     3   am
     4    21    22   am
     5    15    14    1
     6    15    16    1
     7    16    17    1
     8    17    18    1
     9    18    14    1
    10     6     5   ar
    11     7     5   ar
    12     8     2    1
    13     8     9   ar
    14    19     3    1
    15    19    21    1
    16    22    24    1
    17    25    26   ar
    18    27    28   ar
    19    29    24   ar
    20    30    27    1
    21    10     7    1
    22    11    12    2
    23    11    13    2
    24     7     8   ar
    25     3     1    2
    26    22    20    2
    27    24    25   ar
    28    26    27   ar
    29    28    29   ar
    30     9     6   ar
    31     2     4    1
    32    21    23    1
@<TRIPOS>MOLECULE
MolPort-007-967-220 ChemDiv-L497-0033 MCULE-5991978792 PubChem-46385444 ZINC000033129554
 30 32 0 0 0
SMALL
GASTEIGER

@<TRIPOS>ATOM
      1 O          10.6918   40.0678    9.9783 O.2     1  UNL1       -0.2729
      2 N          11.7232   38.6839    8.3962 N.am    1  UNL1       -0.2823
      3 C          10.7652   39.6731    8.7846 C.2     1  UNL1        0.2462
      4 H          11.5891   38.2435    7.5260 H       1  UNL1        0.1549
      5 S          14.3862   37.1761   10.8204 S.2     1  UNL1       -0.0703
      6 C          15.0291   38.4649    9.9554 C.ar    1  UNL1        0.1526
      7 C          12.8712   37.2371   10.0978 C.ar    1  UNL1        0.0223
      8 C          12.8612   38.2807    9.1676 C.ar    1  UNL1        0.0542
      9 C          14.0695   38.9856    9.0986 C.ar    1  UNL1        0.0414
     10 C          11.7152   36.4017   10.5256 C.3     1  UNL1        0.0395
     11 S          16.6528   39.0923   10.1612 S.O2    1  UNL1        0.0690
     12 O          16.7148   40.4800    9.5867 O.2     1  UNL1       -0.1523
     13 O          16.9813   39.1563   11.6280 O.2     1  UNL1       -0.1523
     14 N          17.7850   38.0642    9.3397 N.3     1  UNL1       -0.1551
     15 C          19.0834   38.2115    9.9940 C.3     1  UNL1        0.0959
     16 C          19.4642   36.8849   10.6144 C.3     1  UNL1        0.0206
     17 C          18.5779   35.8820    9.9353 C.3     1  UNL1        0.0206
     18 C          17.3626   36.6821    9.5398 C.3     1  UNL1        0.0959
     19 C           9.7830   40.1767    7.7840 C.3     1  UNL1        0.1762
     20 O           8.5480   42.7080    8.2585 O.2     1  UNL1       -0.2701
     21 N           8.4845   40.3801    8.4105 N.am    1  UNL1       -0.2931
     22 C           7.9288   41.6787    8.6440 C.2     1  UNL1        0.2462
     23 H           7.9658   39.5899    8.6856 H       1  UNL1        0.1502
     24 C           6.6326   41.8130    9.3312 C.ar    1  UNL1        0.0533
     25 C           5.5152   42.3158    8.6479 C.ar    1  UNL1        0.0042
     26 C           4.2860   42.4444    9.3013 C.ar    1  UNL1       -0.0041
     27 C           4.1652   42.0714   10.6426 C.ar    1  UNL1       -0.0218
     28 C           5.2733   41.5700   11.3306 C.ar    1  UNL1       -0.0041
     29 C           6.5025   41.4414   10.6773 C.ar    1  UNL1        0.0042
     30 C           2.8587   42.2082   11.3372 C.3     1  UNL1        0.0310
@<TRIPOS>BOND
     1    11    14    1
     2    11     6    1
     3     2     3   am
     4    21    22   am
     5    15    14    1
     6    15    16    1
     7    16    17    1
     8    17    18    1
     9    18    14    1
    10     6     5   ar
    11     7     5   ar
    12     8     2    1
    13     8     9   ar
    14    19     3    1
    15    19    21    1
    16    22    24    1
    17    25    26   ar
    18    27    28   ar
    19    29    24   ar
    20    30    27    1
    21    10     7    1
    22    11    12    2
    23    11    13    2
    24     7     8   ar
    25     3     1    2
    26    22    20    2
    27    24    25   ar
    28    26    27   ar
    29    28    29   ar
    30     9     6   ar
    31     2     4    1
    32    21    23    1
@<TRIPOS>MOLECULE
MolPort-007-967-220 ChemDiv-L497-0033 MCULE-5991978792 PubChem-46385444 ZINC000033129554
 30 32 0 0 0
SMALL
GASTEIGER

@<TRIPOS>ATOM
      1 O          10.8325   40.5552    9.5613 O.2     1  UNL1       -0.2729
      2 N          12.2838   40.9638    7.7700 N.am    1  UNL1       -0.2823
      3 C          10.9936   40.9835    8.3880 C.2     1  UNL1        0.2462
      4 H          12.3179   41.0839    6.7934 H       1  UNL1        0.1549
      5 S          15.9337   40.8857    9.1532 S.2     1  UNL1       -0.0703
      6 C          14.9710   39.7605    9.9468 C.ar    1  UNL1        0.1526
      7 C          14.7106   41.4753    8.1647 C.ar    1  UNL1        0.0223
      8 C          13.5302   40.7838    8.4531 C.ar    1  UNL1        0.0542
      9 C          13.6784   39.8047    9.4435 C.ar    1  UNL1        0.0414
     10 C          14.9328   42.4582    7.0684 C.3     1  UNL1        0.0395
     11 S          15.5419   38.6539   11.1804 S.O2    1  UNL1        0.0690
     12 O          16.9495   39.0259   11.5542 O.2     1  UNL1       -0.1523
     13 O          14.6667   38.7695   12.3987 O.2     1  UNL1       -0.1523
     14 N          15.5049   37.0291   10.5702 N.3     1  UNL1       -0.1551
     15 C          14.1584   36.5008   10.7785 C.3     1  UNL1        0.0959
     16 C          13.5318   36.2311    9.4278 C.3     1  UNL1        0.0206
     17 C          14.6895   36.2029    8.4731 C.3     1  UNL1        0.0206
     18 C          15.7206   37.0866    9.1284 C.3     1  UNL1        0.0959
     19 C           9.8100   41.4328    7.6024 C.3     1  UNL1        0.1762
     20 O           7.4834   43.0441    7.2173 O.2     1  UNL1       -0.2701
     21 N           8.6137   41.4030    8.4319 N.am    1  UNL1       -0.2931
     22 C           7.4868   42.2556    8.2020 C.2     1  UNL1        0.2462
     23 H           8.5782   40.7686    9.1840 H       1  UNL1        0.1502
     24 C           6.3300   42.2097    9.1131 C.ar    1  UNL1        0.0533
     25 C           5.1564   42.9149    8.8069 C.ar    1  UNL1        0.0042
     26 C           4.0598   42.8721    9.6729 C.ar    1  UNL1       -0.0041
     27 C           4.1286   42.1242   10.8513 C.ar    1  UNL1       -0.0218
     28 C           5.2939   41.4193   11.1640 C.ar    1  UNL1       -0.0041
     29 C           6.3906   41.4620   10.2982 C.ar    1  UNL1        0.0042
     30 C           2.9631   42.0789   11.7719 C.3     1  UNL1        0.0310
@<TRIPOS>BOND
     1    11    14    1
     2    11     6    1
     3     2     3   am
     4    21    22   am
     5    15    14    1
     6    15    16    1
     7    16    17    1
     8    17    18    1
     9    18    14    1
    10     6     5   ar
    11     7     5   ar
    12     8     2    1
    13     8     9   ar
    14    19     3    1
    15    19    21    1
    16    22    24    1
    17    25    26   ar
    18    27    28   ar
    19    29    24   ar
    20    30    27    1
    21    10     7    1
    22    11    12    2
    23    11    13    2
    24     7     8   ar
    25     3     1    2
    26    22    20    2
    27    24    25   ar
    28    26    27   ar
    29    28    29   ar
    30     9     6   ar
    31     2     4    1
    32    21    23    1
@<TRIPOS>MOLECULE
MolPort-007-967-220 ChemDiv-L497-0033 MCULE-5991978792 PubChem-46385444 ZINC000033129554
 30 32 0 0 0
SMALL
GASTEIGER

@<TRIPOS>ATOM
      1 O          10.0351   42.7131   11.5086 O.2     1  UNL1       -0.2729
      2 N          10.3052   40.4248   11.0931 N.am    1  UNL1       -0.2823
      3 C           9.5424   41.5542   11.5286 C.2     1  UNL1        0.2462
      4 H           9.9728   39.5325   11.3434 H       1  UNL1        0.1549
      5 S          13.1981   40.8404    8.5047 S.2     1  UNL1       -0.0703
      6 C          13.7217   39.9839    9.8518 C.ar    1  UNL1        0.1526
      7 C          11.6335   41.0818    9.0656 C.ar    1  UNL1        0.0223
      8 C          11.5121   40.4835   10.3233 C.ar    1  UNL1        0.0542
      9 C          12.6814   39.8484   10.7604 C.ar    1  UNL1        0.0414
     10 C          10.5478   41.6967    8.2529 C.3     1  UNL1        0.0395
     11 S          15.3281   39.3087   10.0412 S.O2    1  UNL1        0.0690
     12 O          16.2592   39.9904    9.0780 O.2     1  UNL1       -0.1523
     13 O          15.8113   39.5555   11.4445 O.2     1  UNL1       -0.1523
     14 N          15.2879   37.6042    9.7143 N.3     1  UNL1       -0.1551
     15 C          14.9631   36.9145   10.9610 C.3     1  UNL1        0.0959
     16 C          13.6270   36.2235   10.7961 C.3     1  UNL1        0.0206
     17 C          13.4102   36.1697    9.3120 C.3     1  UNL1        0.0206
     18 C          14.1882   37.3509    8.7895 C.3     1  UNL1        0.0959
     19 C           8.1810   41.3458   12.0966 C.3     1  UNL1        0.1762
     20 O           7.4332   41.0012    9.3617 O.2     1  UNL1       -0.2701
     21 N           7.2059   42.1539   11.3781 N.am    1  UNL1       -0.2931
     22 C           6.8915   41.9471    9.9967 C.2     1  UNL1        0.2462
     23 H           6.7424   42.8741   11.8635 H       1  UNL1        0.1502
     24 C           5.9331   42.8365    9.3180 C.ar    1  UNL1        0.0533
     25 C           6.3806   43.7802    8.3813 C.ar    1  UNL1        0.0042
     26 C           5.4705   44.6249    7.7389 C.ar    1  UNL1       -0.0041
     27 C           4.1066   44.5323    8.0285 C.ar    1  UNL1       -0.0218
     28 C           3.6525   43.5953    8.9605 C.ar    1  UNL1       -0.0041
     29 C           4.5625   42.7506    9.6029 C.ar    1  UNL1        0.0042
     30 C           3.1392   45.4302    7.3459 C.3     1  UNL1        0.0310
@<TRIPOS>BOND
     1    11    14    1
     2    11     6    1
     3     2     3   am
     4    21    22   am
     5    15    14    1
     6    15    16    1
     7    16    17    1
     8    17    18    1
     9    18    14    1
    10     6     5   ar
    11     7     5   ar
    12     8     2    1
    13     8     9   ar
    14    19     3    1
    15    19    21    1
    16    22    24    1
    17    25    26   ar
    18    27    28   ar
    19    29    24   ar
    20    30    27    1
    21    10     7    1
    22    11    12    2
    23    11    13    2
    24     7     8   ar
    25     3     1    2
    26    22    20    2
    27    24    25   ar
    28    26    27   ar
    29    28    29   ar
    30     9     6   ar
    31     2     4    1
    32    21    23    1
@<TRIPOS>MOLECULE
MolPort-007-967-220 ChemDiv-L497-0033 MCULE-5991978792 PubChem-46385444 ZINC000033129554
 30 32 0 0 0
SMALL
GASTEIGER

@<TRIPOS>ATOM
      1 O           8.5822   42.0139    5.8493 O.2     1  UNL1       -0.2729
      2 N           9.4903   40.6354    7.5098 N.am    1  UNL1       -0.2823
      3 C           9.4902   41.2156    6.2020 C.2     1  UNL1        0.2462
      4 H          10.0710   39.8541    7.6566 H       1  UNL1        0.1549
      5 S           7.9391   41.7602   10.9113 S.2     1  UNL1       -0.0703
      6 C           6.7653   41.7026    9.7107 C.ar    1  UNL1        0.1526
      7 C           9.2110   41.3016    9.9151 C.ar    1  UNL1        0.0223
      8 C           8.7160   41.0962    8.6238 C.ar    1  UNL1        0.0542
      9 C           7.3356   41.3034    8.5100 C.ar    1  UNL1        0.0414
     10 C          10.5878   41.0185   10.4067 C.3     1  UNL1        0.0395
     11 S           5.0631   42.0354    9.9640 S.O2    1  UNL1        0.0690
     12 O           4.2549   41.1682    9.0399 O.2     1  UNL1       -0.1523
     13 O           4.6964   41.7077   11.3859 O.2     1  UNL1       -0.1523
     14 N           4.7394   43.7087    9.6341 N.3     1  UNL1       -0.1551
     15 C           5.8354   44.2266    8.8179 C.3     1  UNL1        0.0959
     16 C           5.2845   44.6215    7.4650 C.3     1  UNL1        0.0206
     17 C           3.8024   44.7264    7.6766 C.3     1  UNL1        0.0206
     18 C           3.5319   43.7794    8.8184 C.3     1  UNL1        0.0959
     19 C          10.5265   40.8014    5.2150 C.3     1  UNL1        0.1762
     20 O          12.2775   40.2313    7.3983 O.2     1  UNL1       -0.2701
     21 N          11.7846   41.4809    5.4900 N.am    1  UNL1       -0.2931
     22 C          12.6082   41.1656    6.6178 C.2     1  UNL1        0.2462
     23 H          12.0820   42.1882    4.8731 H       1  UNL1        0.1502
     24 C          13.8432   41.9298    6.8650 C.ar    1  UNL1        0.0533
     25 C          14.1248   43.0848    6.1201 C.ar    1  UNL1        0.0042
     26 C          15.2979   43.8083    6.3543 C.ar    1  UNL1       -0.0041
     27 C          16.1979   43.3822    7.3347 C.ar    1  UNL1       -0.0218
     28 C          15.9252   42.2326    8.0809 C.ar    1  UNL1       -0.0041
     29 C          14.7522   41.5090    7.8468 C.ar    1  UNL1        0.0042
     30 C          17.4448   44.1512    7.5835 C.3     1  UNL1        0.0310
@<TRIPOS>BOND
     1    11    14    1
     2    11     6    1
     3     2     3   am
     4    21    22   am
     5    15    14    1
     6    15    16    1
     7    16    17    1
     8    17    18    1
     9    18    14    1
    10     6     5   ar
    11     7     5   ar
    12     8     2    1
    13     8     9   ar
    14    19     3    1
    15    19    21    1
    16    22    24    1
    17    25    26   ar
    18    27    28   ar
    19    29    24   ar
    20    30    27    1
    21    10     7    1
    22    11    12    2
    23    11    13    2
    24     7     8   ar
    25     3     1    2
    26    22    20    2
    27    24    25   ar
    28    26    27   ar
    29    28    29   ar
    30     9     6   ar
    31     2     4    1
    32    21    23    1
@<TRIPOS>MOLECULE
MolPort-007-967-220 ChemDiv-L497-0033 MCULE-5991978792 PubChem-46385444 ZINC000033129554
 30 32 0 0 0
SMALL
GASTEIGER

@<TRIPOS>ATOM
      1 O          10.8455   39.9698    8.8324 O.2     1  UNL1       -0.2729
      2 N          11.1090   37.6511    8.6421 N.am    1  UNL1       -0.2823
      3 C          10.5272   38.8985    8.2518 C.2     1  UNL1        0.2462
      4 H          10.6659   36.8294    8.3297 H       1  UNL1        0.1549
      5 S          13.9213   36.8169   11.2183 S.2     1  UNL1       -0.0703
      6 C          14.4035   38.0539   10.1888 C.ar    1  UNL1        0.1526
      7 C          12.4166   36.5926   10.5066 C.ar    1  UNL1        0.0223
      8 C          12.2826   37.4976    9.4495 C.ar    1  UNL1        0.0542
      9 C          13.3928   38.3344    9.2800 C.ar    1  UNL1        0.0414
     10 C          11.3718   35.6803   11.0484 C.3     1  UNL1        0.0395
     11 S          15.9333   38.9024   10.2983 S.O2    1  UNL1        0.0690
     12 O          16.5166   38.6798   11.6656 O.2     1  UNL1       -0.1523
     13 O          16.8829   38.3549    9.2676 O.2     1  UNL1       -0.1523
     14 N          15.6803   40.5997   10.0356 N.3     1  UNL1       -0.1551
     15 C          16.9743   41.2053    9.7287 C.3     1  UNL1        0.0959
     16 C          16.9341   41.7376    8.3127 C.3     1  UNL1        0.0206
     17 C          15.4729   41.8131    7.9789 C.3     1  UNL1        0.0206
     18 C          14.8479   40.7502    8.8469 C.3     1  UNL1        0.0959
     19 C           9.4656   38.9184    7.2066 C.3     1  UNL1        0.1762
     20 O           8.6260   41.1476    5.6307 O.2     1  UNL1       -0.2701
     21 N           8.4193   39.8640    7.5687 N.am    1  UNL1       -0.2931
     22 C           8.0601   40.9790    6.7456 C.2     1  UNL1        0.2462
     23 H           7.9376   39.7307    8.4169 H       1  UNL1        0.1502
     24 C           7.0277   41.9271    7.1987 C.ar    1  UNL1        0.0533
     25 C           6.8769   43.1695    6.5646 C.ar    1  UNL1        0.0042
     26 C           5.8980   44.0693    6.9964 C.ar    1  UNL1       -0.0041
     27 C           5.0629   43.7336    8.0654 C.ar    1  UNL1       -0.0218
     28 C           5.2066   42.4984    8.7027 C.ar    1  UNL1       -0.0041
     29 C           6.1855   41.5985    8.2711 C.ar    1  UNL1        0.0042
     30 C           4.0225   44.6900    8.5244 C.3     1  UNL1        0.0310
@<TRIPOS>BOND
     1    11    14    1
     2    11     6    1
     3     2     3   am
     4    21    22   am
     5    15    14    1
     6    15    16    1
     7    16    17    1
     8    17    18    1
     9    18    14    1
    10     6     5   ar
    11     7     5   ar
    12     8     2    1
    13     8     9   ar
    14    19     3    1
    15    19    21    1
    16    22    24    1
    17    25    26   ar
    18    27    28   ar
    19    29    24   ar
    20    30    27    1
    21    10     7    1
    22    11    12    2
    23    11    13    2
    24     7     8   ar
    25     3     1    2
    26    22    20    2
    27    24    25   ar
    28    26    27   ar
    29    28    29   ar
    30     9     6   ar
    31     2     4    1
    32    21    23    1
