@<TRIPOS>MOLECULE
MolPort-039-123-951 MolPort-047-505-371 CSSS00160134884 MCULE-3548329714 MCULE-5752747003 PubChem-118794773 PubChem-154903008
 31 33 0 0 0
SMALL
GASTEIGER

@<TRIPOS>ATOM
      1 C          17.9527   33.2539    5.7442 C.ar    1  UNL1        0.0540
      2 C          17.3949   34.4108    5.1798 C.ar    1  UNL1        0.0058
      3 C          17.1328   35.5298    5.9736 C.ar    1  UNL1        0.0149
      4 C          17.4269   35.5089    7.3423 C.ar    1  UNL1        0.0516
      5 C          18.0105   34.3656    7.9029 C.ar    1  UNL1        0.0149
      6 C          18.2774   33.2479    7.1070 C.ar    1  UNL1        0.0058
      7 C          16.8720   36.6303    9.5606 C.2     1  UNL1        0.3077
      8 C          15.6418   38.7923    9.3522 C.3     1  UNL1        0.0949
      9 C          16.0758   40.0827   10.0193 C.3     1  UNL1        0.0216
     10 C          15.3176   40.2527   11.3341 C.3     1  UNL1        0.0035
     11 C          15.0529   38.9335   12.0966 C.3     1  UNL1        0.0213
     12 C          15.8704   37.7087   11.6342 C.3     1  UNL1        0.0923
     13 N          17.0966   36.6489    8.1430 N.am    1  UNL1       -0.2681
     14 N          16.1117   37.6831   10.1763 N.am    1  UNL1       -0.2642
     15 O          17.3589   35.7029   10.2683 O.2     1  UNL1       -0.2522
     16 H          17.0170   37.5162    7.6840 H       1  UNL1        0.1564
     17 C          15.1903   36.4207   12.1169 C.3     1  UNL1        0.0852
     18 N          14.0990   36.0514   11.2235 N.3     1  UNL1       -0.3198
     19 H          13.4042   36.7980   11.2087 H       1  UNL1        0.1189
     20 H          13.6652   35.1897   11.5547 H       1  UNL1        0.1189
     21 C          18.2091   32.0581    4.9146 C.2     1  UNL1        0.2527
     22 N          17.3668   31.7333    3.7967 N.am    1  UNL1       -0.2552
     23 O          19.1652   31.2875    5.2100 O.2     1  UNL1       -0.2696
     24 C          15.9377   31.5945    3.9485 C.ar    1  UNL1        0.0541
     25 C          15.0940   31.5952    2.8241 C.ar    1  UNL1        0.0149
     26 C          13.7096   31.4928    2.9739 C.ar    1  UNL1        0.0013
     27 C          13.1504   31.3928    4.2492 C.ar    1  UNL1        0.0001
     28 C          13.9770   31.3934    5.3752 C.ar    1  UNL1        0.0013
     29 C          15.3623   31.4990    5.2260 C.ar    1  UNL1        0.0149
     30 C          18.7340   32.5407    1.9333 C.3     1  UNL1        0.0237
     31 C          17.9986   31.3521    2.5367 C.3     1  UNL1        0.0986
@<TRIPOS>BOND
     1    30    31    1
     2    31    22    1
     3    21     1    1
     4     2     3   ar
     5     4    13    1
     6     4     5   ar
     7     7    14   am
     8     8    14    1
     9     8     9    1
    10     9    10    1
    11    10    11    1
    12    11    12    1
    13    12    17    1
    14    12    14    1
    15    17    18    1
    16     6     1   ar
    17    25    26   ar
    18    27    28   ar
    19    29    24   ar
    20    22    21   am
    21    22    24    1
    22    13     7   am
    23    21    23    2
    24     1     2   ar
    25     3     4   ar
    26     7    15    2
    27     5     6   ar
    28    24    25   ar
    29    26    27   ar
    30    28    29   ar
    31    13    16    1
    32    18    19    1
    33    18    20    1
@<TRIPOS>MOLECULE
MolPort-039-123-951 MolPort-047-505-371 CSSS00160134884 MCULE-3548329714 MCULE-5752747003 PubChem-118794773 PubChem-154903008
 31 33 0 0 0
SMALL
GASTEIGER

@<TRIPOS>ATOM
      1 C          11.7550   41.2456    9.8395 C.ar    1  UNL1        0.0540
      2 C          11.8609   40.2656   10.8377 C.ar    1  UNL1        0.0058
      3 C          12.8655   39.2972   10.7751 C.ar    1  UNL1        0.0149
      4 C          13.7800   39.2965    9.7149 C.ar    1  UNL1        0.0516
      5 C          13.6946   40.2910    8.7322 C.ar    1  UNL1        0.0149
      6 C          12.6922   41.2628    8.7982 C.ar    1  UNL1        0.0058
      7 C          16.0383   38.2790   10.3076 C.2     1  UNL1        0.3077
      8 C          16.8546   36.5539    8.6986 C.3     1  UNL1        0.0949
      9 C          17.3129   35.1665    9.1030 C.3     1  UNL1        0.0216
     10 C          18.8333   35.1574    9.2463 C.3     1  UNL1        0.0035
     11 C          19.4313   36.4644    9.8172 C.3     1  UNL1        0.0213
     12 C          18.4300   37.4330   10.4816 C.3     1  UNL1        0.0923
     13 N          14.7649   38.2596    9.6456 N.am    1  UNL1       -0.2681
     14 N          17.1086   37.4531    9.8199 N.am    1  UNL1       -0.2642
     15 O          16.2120   39.0040   11.3286 O.2     1  UNL1       -0.2522
     16 H          14.5513   37.4688    9.0994 H       1  UNL1        0.1564
     17 C          19.0435   38.8372   10.5605 C.3     1  UNL1        0.0852
     18 N          18.8677   39.5452    9.2983 N.3     1  UNL1       -0.3198
     19 H          19.3341   39.0300    8.5517 H       1  UNL1        0.1189
     20 H          19.2733   40.4782    9.3724 H       1  UNL1        0.1189
     21 C          10.6791   42.2575    9.8869 C.2     1  UNL1        0.2527
     22 N           9.2965   41.8791    9.7864 N.am    1  UNL1       -0.2552
     23 O          10.9775   43.4809    9.9846 O.2     1  UNL1       -0.2696
     24 C           8.8118   41.0932    8.6764 C.ar    1  UNL1        0.0541
     25 C           7.5661   41.3744    8.0890 C.ar    1  UNL1        0.0149
     26 C           7.0838   40.5939    7.0364 C.ar    1  UNL1        0.0013
     27 C           7.8384   39.5201    6.5603 C.ar    1  UNL1        0.0001
     28 C           9.0769   39.2281    7.1365 C.ar    1  UNL1        0.0013
     29 C           9.5584   40.0069    8.1920 C.ar    1  UNL1        0.0149
     30 C           8.3163   41.6658   12.0195 C.3     1  UNL1        0.0237
     31 C           8.3442   42.4661   10.7247 C.3     1  UNL1        0.0986
@<TRIPOS>BOND
     1    30    31    1
     2    31    22    1
     3    21     1    1
     4     2     3   ar
     5     4    13    1
     6     4     5   ar
     7     7    14   am
     8     8    14    1
     9     8     9    1
    10     9    10    1
    11    10    11    1
    12    11    12    1
    13    12    17    1
    14    12    14    1
    15    17    18    1
    16     6     1   ar
    17    25    26   ar
    18    27    28   ar
    19    29    24   ar
    20    22    21   am
    21    22    24    1
    22    13     7   am
    23    21    23    2
    24     1     2   ar
    25     3     4   ar
    26     7    15    2
    27     5     6   ar
    28    24    25   ar
    29    26    27   ar
    30    28    29   ar
    31    13    16    1
    32    18    19    1
    33    18    20    1
@<TRIPOS>MOLECULE
MolPort-039-123-951 MolPort-047-505-371 CSSS00160134884 MCULE-3548329714 MCULE-5752747003 PubChem-118794773 PubChem-154903008
 31 33 0 0 0
SMALL
GASTEIGER

@<TRIPOS>ATOM
      1 C           7.8941   42.4867    8.1037 C.ar    1  UNL1        0.0540
      2 C           8.8503   43.1958    8.8460 C.ar    1  UNL1        0.0058
      3 C          10.0186   42.5655    9.2807 C.ar    1  UNL1        0.0149
      4 C          10.2484   41.2181    8.9773 C.ar    1  UNL1        0.0516
      5 C           9.3091   40.5155    8.2118 C.ar    1  UNL1        0.0149
      6 C           8.1426   41.1483    7.7726 C.ar    1  UNL1        0.0058
      7 C          11.6919   39.1717    9.4409 C.2     1  UNL1        0.3077
      8 C          13.3656   39.4738   11.2681 C.3     1  UNL1        0.0949
      9 C          14.8440   39.1710   11.1225 C.3     1  UNL1        0.0216
     10 C          15.1283   37.7684   11.6556 C.3     1  UNL1        0.0035
     11 C          14.0058   36.7398   11.3843 C.3     1  UNL1        0.0213
     12 C          12.9493   37.1514   10.3371 C.3     1  UNL1        0.0923
     13 N          11.4273   40.5819    9.4826 N.am    1  UNL1       -0.2681
     14 N          12.6377   38.5960   10.3572 N.am    1  UNL1       -0.2642
     15 O          11.1112   38.4418    8.5877 O.2     1  UNL1       -0.2522
     16 H          12.1122   41.1585    9.8920 H       1  UNL1        0.1564
     17 C          11.6860   36.2986   10.5141 C.3     1  UNL1        0.0852
     18 N          12.0246   34.9860   11.0507 N.3     1  UNL1       -0.3198
     19 H          12.6511   34.5059   10.4046 H       1  UNL1        0.1189
     20 H          11.1730   34.4373   11.1695 H       1  UNL1        0.1189
     21 C           6.6447   43.1411    7.6623 C.2     1  UNL1        0.2527
     22 N           5.5963   43.4492    8.5954 N.am    1  UNL1       -0.2552
     23 O           6.4782   43.4062    6.4387 O.2     1  UNL1       -0.2696
     24 C           5.0244   42.4318    9.4453 C.ar    1  UNL1        0.0541
     25 C           5.7167   41.9731   10.5795 C.ar    1  UNL1        0.0149
     26 C           5.1773   40.9666   11.3830 C.ar    1  UNL1        0.0013
     27 C           3.9414   40.4028   11.0610 C.ar    1  UNL1        0.0001
     28 C           3.2440   40.8476    9.9354 C.ar    1  UNL1        0.0013
     29 C           3.7848   41.8525    9.1292 C.ar    1  UNL1        0.0149
     30 C           3.6415   44.6971    7.8111 C.3     1  UNL1        0.0237
     31 C           4.9781   44.7708    8.5362 C.3     1  UNL1        0.0986
@<TRIPOS>BOND
     1    30    31    1
     2    31    22    1
     3    21     1    1
     4     2     3   ar
     5     4    13    1
     6     4     5   ar
     7     7    14   am
     8     8    14    1
     9     8     9    1
    10     9    10    1
    11    10    11    1
    12    11    12    1
    13    12    17    1
    14    12    14    1
    15    17    18    1
    16     6     1   ar
    17    25    26   ar
    18    27    28   ar
    19    29    24   ar
    20    22    21   am
    21    22    24    1
    22    13     7   am
    23    21    23    2
    24     1     2   ar
    25     3     4   ar
    26     7    15    2
    27     5     6   ar
    28    24    25   ar
    29    26    27   ar
    30    28    29   ar
    31    13    16    1
    32    18    19    1
    33    18    20    1
@<TRIPOS>MOLECULE
MolPort-039-123-951 MolPort-047-505-371 CSSS00160134884 MCULE-3548329714 MCULE-5752747003 PubChem-118794773 PubChem-154903008
 31 33 0 0 0
SMALL
GASTEIGER

@<TRIPOS>ATOM
      1 C           8.6172   42.0928    6.9542 C.ar    1  UNL1        0.0540
      2 C           9.0593   42.5455    8.2063 C.ar    1  UNL1        0.0058
      3 C          10.4182   42.5215    8.5282 C.ar    1  UNL1        0.0149
      4 C          11.3547   42.0468    7.6020 C.ar    1  UNL1        0.0516
      5 C          10.9195   41.6211    6.3405 C.ar    1  UNL1        0.0149
      6 C           9.5600   41.6502    6.0170 C.ar    1  UNL1        0.0058
      7 C          13.7529   42.9032    7.5626 C.2     1  UNL1        0.3077
      8 C          15.4773   41.1884    8.1257 C.3     1  UNL1        0.0949
      9 C          16.5474   41.3772    9.1829 C.3     1  UNL1        0.0216
     10 C          17.8362   41.8567    8.5187 C.3     1  UNL1        0.0035
     11 C          17.6235   42.8168    7.3250 C.3     1  UNL1        0.0213
     12 C          16.2130   43.4292    7.1922 C.3     1  UNL1        0.0923
     13 N          12.7346   41.9810    7.9783 N.am    1  UNL1       -0.2681
     14 N          15.1334   42.5050    7.5978 N.am    1  UNL1       -0.2642
     15 O          13.4389   44.0686    7.1868 O.2     1  UNL1       -0.2522
     16 H          13.0071   41.2432    8.5704 H       1  UNL1        0.1564
     17 C          16.0063   43.9466    5.7625 C.3     1  UNL1        0.0852
     18 N          15.9360   45.4027    5.7494 N.3     1  UNL1       -0.3198
     19 H          15.1496   45.7103    6.3216 H       1  UNL1        0.1189
     20 H          15.8073   45.7283    4.7914 H       1  UNL1        0.1189
     21 C           7.1784   42.0924    6.6170 C.2     1  UNL1        0.2527
     22 N           6.1988   42.6044    7.5351 N.am    1  UNL1       -0.2552
     23 O           6.7959   41.6041    5.5168 O.2     1  UNL1       -0.2696
     24 C           6.1085   42.1114    8.8892 C.ar    1  UNL1        0.0541
     25 C           7.1100   42.4108    9.8292 C.ar    1  UNL1        0.0149
     26 C           7.0380   41.9073   11.1296 C.ar    1  UNL1        0.0013
     27 C           5.9669   41.0948   11.5058 C.ar    1  UNL1        0.0001
     28 C           4.9662   40.7875   10.5810 C.ar    1  UNL1        0.0013
     29 C           5.0394   41.2885    9.2787 C.ar    1  UNL1        0.0149
     30 C           5.1405   44.7938    7.8179 C.3     1  UNL1        0.0237
     31 C           5.1629   43.4963    7.0218 C.3     1  UNL1        0.0986
@<TRIPOS>BOND
     1    30    31    1
     2    31    22    1
     3    21     1    1
     4     2     3   ar
     5     4    13    1
     6     4     5   ar
     7     7    14   am
     8     8    14    1
     9     8     9    1
    10     9    10    1
    11    10    11    1
    12    11    12    1
    13    12    17    1
    14    12    14    1
    15    17    18    1
    16     6     1   ar
    17    25    26   ar
    18    27    28   ar
    19    29    24   ar
    20    22    21   am
    21    22    24    1
    22    13     7   am
    23    21    23    2
    24     1     2   ar
    25     3     4   ar
    26     7    15    2
    27     5     6   ar
    28    24    25   ar
    29    26    27   ar
    30    28    29   ar
    31    13    16    1
    32    18    19    1
    33    18    20    1
@<TRIPOS>MOLECULE
MolPort-039-123-951 MolPort-047-505-371 CSSS00160134884 MCULE-3548329714 MCULE-5752747003 PubChem-118794773 PubChem-154903008
 31 33 0 0 0
SMALL
GASTEIGER

@<TRIPOS>ATOM
      1 C          16.7533   33.7797    4.8639 C.ar    1  UNL1        0.0540
      2 C          17.2192   35.1025    4.9016 C.ar    1  UNL1        0.0058
      3 C          17.2617   35.8037    6.1089 C.ar    1  UNL1        0.0149
      4 C          16.8413   35.1916    7.2958 C.ar    1  UNL1        0.0516
      5 C          16.4029   33.8616    7.2660 C.ar    1  UNL1        0.0149
      6 C          16.3655   33.1587    6.0584 C.ar    1  UNL1        0.0058
      7 C          15.7026   36.1685    9.3538 C.2     1  UNL1        0.3077
      8 C          16.8645   38.1431   10.3446 C.3     1  UNL1        0.0949
      9 C          17.2464   38.2565   11.8074 C.3     1  UNL1        0.0216
     10 C          16.1666   39.0372   12.5535 C.3     1  UNL1        0.0035
     11 C          14.7261   38.7749   12.0554 C.3     1  UNL1        0.0213
     12 C          14.5373   37.5380   11.1518 C.3     1  UNL1        0.0923
     13 N          16.8428   35.9512    8.5095 N.am    1  UNL1       -0.2681
     14 N          15.6854   37.2875   10.2555 N.am    1  UNL1       -0.2642
     15 O          14.7257   35.3668    9.3200 O.2     1  UNL1       -0.2522
     16 H          17.6953   36.3577    8.7875 H       1  UNL1        0.1564
     17 C          13.2253   37.6665   10.3666 C.3     1  UNL1        0.0852
     18 N          13.4817   37.6381    8.9317 N.3     1  UNL1       -0.3198
     19 H          14.0877   38.4188    8.6791 H       1  UNL1        0.1189
     20 H          12.5988   37.7158    8.4269 H       1  UNL1        0.1189
     21 C          16.6825   33.0410    3.5859 C.2     1  UNL1        0.2527
     22 N          17.6972   33.1949    2.5802 N.am    1  UNL1       -0.2552
     23 O          15.6971   32.2850    3.3564 O.2     1  UNL1       -0.2696
     24 C          18.0519   34.4958    2.0640 C.ar    1  UNL1        0.0541
     25 C          19.2542   34.6844    1.3606 C.ar    1  UNL1        0.0149
     26 C          19.6115   35.9493    0.8894 C.ar    1  UNL1        0.0013
     27 C          18.7740   37.0424    1.1189 C.ar    1  UNL1        0.0001
     28 C          17.5774   36.8696    1.8186 C.ar    1  UNL1        0.0013
     29 C          17.2210   35.6046    2.2930 C.ar    1  UNL1        0.0149
     30 C          19.2104   31.2930    2.8742 C.3     1  UNL1        0.0237
     31 C          18.2326   31.9954    1.9424 C.3     1  UNL1        0.0986
@<TRIPOS>BOND
     1    30    31    1
     2    31    22    1
     3    21     1    1
     4     2     3   ar
     5     4    13    1
     6     4     5   ar
     7     7    14   am
     8     8    14    1
     9     8     9    1
    10     9    10    1
    11    10    11    1
    12    11    12    1
    13    12    17    1
    14    12    14    1
    15    17    18    1
    16     6     1   ar
    17    25    26   ar
    18    27    28   ar
    19    29    24   ar
    20    22    21   am
    21    22    24    1
    22    13     7   am
    23    21    23    2
    24     1     2   ar
    25     3     4   ar
    26     7    15    2
    27     5     6   ar
    28    24    25   ar
    29    26    27   ar
    30    28    29   ar
    31    13    16    1
    32    18    19    1
    33    18    20    1
@<TRIPOS>MOLECULE
MolPort-039-123-951 MolPort-047-505-371 CSSS00160134884 MCULE-3548329714 MCULE-5752747003 PubChem-118794773 PubChem-154903008
 31 33 0 0 0
SMALL
GASTEIGER

@<TRIPOS>ATOM
      1 C          13.4393   39.1872   10.5081 C.ar    1  UNL1        0.0540
      2 C          12.9399   38.9708    9.2150 C.ar    1  UNL1        0.0058
      3 C          11.6672   39.4256    8.8626 C.ar    1  UNL1        0.0149
      4 C          10.8767   40.1053    9.7971 C.ar    1  UNL1        0.0516
      5 C          11.3839   40.3482   11.0800 C.ar    1  UNL1        0.0149
      6 C          12.6597   39.8973   11.4305 C.ar    1  UNL1        0.0058
      7 C           9.1884   41.8176    8.9581 C.2     1  UNL1        0.3077
      8 C           6.8199   41.3306    9.5777 C.3     1  UNL1        0.0949
      9 C           5.6757   41.2844    8.5842 C.3     1  UNL1        0.0216
     10 C           4.9615   42.6343    8.5714 C.3     1  UNL1        0.0035
     11 C           5.8934   43.8543    8.7585 C.3     1  UNL1        0.0213
     12 C           7.4026   43.5873    8.5769 C.3     1  UNL1        0.0923
     13 N           9.5546   40.5113    9.4268 N.am    1  UNL1       -0.2681
     14 N           7.8235   42.2558    9.0610 N.am    1  UNL1       -0.2642
     15 O          10.0587   42.5723    8.4374 O.2     1  UNL1       -0.2522
     16 H           8.8383   39.8398    9.4995 H       1  UNL1        0.1564
     17 C           8.2101   44.7107    9.2404 C.3     1  UNL1        0.0852
     18 N           8.6779   44.2967   10.5577 N.3     1  UNL1       -0.3198
     19 H           7.8765   44.0808   11.1506 H       1  UNL1        0.1189
     20 H           9.2191   45.0516   10.9791 H       1  UNL1        0.1189
     21 C          14.7750   38.6866   10.8945 C.2     1  UNL1        0.2527
     22 N          15.4511   37.6894   10.1115 N.am    1  UNL1       -0.2552
     23 O          15.3210   39.1166   11.9491 O.2     1  UNL1       -0.2696
     24 C          14.8238   36.4269    9.7994 C.ar    1  UNL1        0.0541
     25 C          13.6142   36.0568   10.4124 C.ar    1  UNL1        0.0149
     26 C          13.0247   34.8220   10.1340 C.ar    1  UNL1        0.0013
     27 C          13.6385   33.9399    9.2430 C.ar    1  UNL1        0.0001
     28 C          14.8420   34.2941    8.6287 C.ar    1  UNL1        0.0013
     29 C          15.4340   35.5282    8.9094 C.ar    1  UNL1        0.0149
     30 C          17.7388   37.2211   10.8468 C.3     1  UNL1        0.0237
     31 C          16.8627   37.8906    9.7969 C.3     1  UNL1        0.0986
@<TRIPOS>BOND
     1    30    31    1
     2    31    22    1
     3    21     1    1
     4     2     3   ar
     5     4    13    1
     6     4     5   ar
     7     7    14   am
     8     8    14    1
     9     8     9    1
    10     9    10    1
    11    10    11    1
    12    11    12    1
    13    12    17    1
    14    12    14    1
    15    17    18    1
    16     6     1   ar
    17    25    26   ar
    18    27    28   ar
    19    29    24   ar
    20    22    21   am
    21    22    24    1
    22    13     7   am
    23    21    23    2
    24     1     2   ar
    25     3     4   ar
    26     7    15    2
    27     5     6   ar
    28    24    25   ar
    29    26    27   ar
    30    28    29   ar
    31    13    16    1
    32    18    19    1
    33    18    20    1
@<TRIPOS>MOLECULE
MolPort-039-123-951 MolPort-047-505-371 CSSS00160134884 MCULE-3548329714 MCULE-5752747003 PubChem-118794773 PubChem-154903008
 31 33 0 0 0
SMALL
GASTEIGER

@<TRIPOS>ATOM
      1 C          14.0400   39.4320    9.1124 C.ar    1  UNL1        0.0540
      2 C          13.5413   38.3302    8.4014 C.ar    1  UNL1        0.0058
      3 C          14.2326   37.1164    8.4009 C.ar    1  UNL1        0.0149
      4 C          15.4309   36.9864    9.1131 C.ar    1  UNL1        0.0516
      5 C          15.9164   38.0760    9.8473 C.ar    1  UNL1        0.0149
      6 C          15.2215   39.2888    9.8517 C.ar    1  UNL1        0.0058
      7 C          17.0785   35.3801    8.0215 C.2     1  UNL1        0.3077
      8 C          16.7735   32.9864    8.6605 C.3     1  UNL1        0.0949
      9 C          17.8863   32.0999    9.1839 C.3     1  UNL1        0.0216
     10 C          18.4723   31.2886    8.0304 C.3     1  UNL1        0.0035
     11 C          18.5318   32.0428    6.6815 C.3     1  UNL1        0.0213
     12 C          18.3384   33.5724    6.7523 C.3     1  UNL1        0.0923
     13 N          16.1476   35.7485    9.0500 N.am    1  UNL1       -0.2681
     14 N          17.3750   33.9928    7.7912 N.am    1  UNL1       -0.2642
     15 O          17.6518   36.2731    7.3346 O.2     1  UNL1       -0.2522
     16 H          15.9889   35.0969    9.7708 H       1  UNL1        0.1564
     17 C          17.9472   34.1089    5.3690 C.3     1  UNL1        0.0852
     18 N          16.5181   33.9367    5.1377 N.3     1  UNL1       -0.3198
     19 H          16.2843   32.9447    5.1779 H       1  UNL1        0.1189
     20 H          16.2755   34.3063    4.2185 H       1  UNL1        0.1189
     21 C          13.3263   40.7259    9.0964 C.2     1  UNL1        0.2527
     22 N          13.5748   41.7002    8.0699 N.am    1  UNL1       -0.2552
     23 O          12.5066   40.9973   10.0182 O.2     1  UNL1       -0.2696
     24 C          14.9088   42.1804    7.7973 C.ar    1  UNL1        0.0541
     25 C          15.1486   43.0636    6.7303 C.ar    1  UNL1        0.0149
     26 C          16.4437   43.5025    6.4478 C.ar    1  UNL1        0.0013
     27 C          17.5160   43.0610    7.2252 C.ar    1  UNL1        0.0001
     28 C          17.2922   42.1814    8.2869 C.ar    1  UNL1        0.0013
     29 C          15.9968   41.7394    8.5680 C.ar    1  UNL1        0.0149
     30 C          11.9411   41.5143    6.2562 C.3     1  UNL1        0.0237
     31 C          12.4312   42.3469    7.4327 C.3     1  UNL1        0.0986
@<TRIPOS>BOND
     1    30    31    1
     2    31    22    1
     3    21     1    1
     4     2     3   ar
     5     4    13    1
     6     4     5   ar
     7     7    14   am
     8     8    14    1
     9     8     9    1
    10     9    10    1
    11    10    11    1
    12    11    12    1
    13    12    17    1
    14    12    14    1
    15    17    18    1
    16     6     1   ar
    17    25    26   ar
    18    27    28   ar
    19    29    24   ar
    20    22    21   am
    21    22    24    1
    22    13     7   am
    23    21    23    2
    24     1     2   ar
    25     3     4   ar
    26     7    15    2
    27     5     6   ar
    28    24    25   ar
    29    26    27   ar
    30    28    29   ar
    31    13    16    1
    32    18    19    1
    33    18    20    1
@<TRIPOS>MOLECULE
MolPort-039-123-951 MolPort-047-505-371 CSSS00160134884 MCULE-3548329714 MCULE-5752747003 PubChem-118794773 PubChem-154903008
 31 33 0 0 0
SMALL
GASTEIGER

@<TRIPOS>ATOM
      1 C          13.3876   40.5635    9.2156 C.ar    1  UNL1        0.0540
      2 C          12.4583   40.9983    8.2588 C.ar    1  UNL1        0.0058
      3 C          11.1068   41.1211    8.5896 C.ar    1  UNL1        0.0149
      4 C          10.6657   40.8134    9.8822 C.ar    1  UNL1        0.0516
      5 C          11.5956   40.4068   10.8477 C.ar    1  UNL1        0.0149
      6 C          12.9487   40.2890   10.5175 C.ar    1  UNL1        0.0058
      7 C           8.2660   41.4472    9.3113 C.2     1  UNL1        0.3077
      8 C           6.7672   41.7260   11.2879 C.3     1  UNL1        0.0949
      9 C           5.4281   41.0321   11.4414 C.3     1  UNL1        0.0216
     10 C           4.3152   41.9727   10.9841 C.3     1  UNL1        0.0035
     11 C           4.6889   42.8713    9.7822 C.3     1  UNL1        0.0213
     12 C           5.9560   42.4640    9.0008 C.3     1  UNL1        0.0923
     13 N           9.2673   40.8945   10.1785 N.am    1  UNL1       -0.2681
     14 N           7.0185   41.9023    9.8610 N.am    1  UNL1       -0.2642
     15 O           8.4718   41.5144    8.0658 O.2     1  UNL1       -0.2522
     16 H           8.9682   40.5424   11.0479 H       1  UNL1        0.1564
     17 C           6.4647   43.6576    8.1816 C.3     1  UNL1        0.0852
     18 N           6.7124   44.8047    9.0466 N.3     1  UNL1       -0.3198
     19 H           5.8444   45.0758    9.5087 H       1  UNL1        0.1189
     20 H           7.0576   45.5844    8.4869 H       1  UNL1        0.1189
     21 C          14.8147   40.4076    8.8649 C.2     1  UNL1        0.2527
     22 N          15.6306   41.5459    8.5433 N.am    1  UNL1       -0.2552
     23 O          15.3217   39.2520    8.8138 O.2     1  UNL1       -0.2696
     24 C          15.2485   42.4749    7.5062 C.ar    1  UNL1        0.0541
     25 C          14.1513   42.2042    6.6702 C.ar    1  UNL1        0.0149
     26 C          13.8018   43.0878    5.6471 C.ar    1  UNL1        0.0013
     27 C          14.5468   44.2508    5.4437 C.ar    1  UNL1        0.0001
     28 C          15.6410   44.5308    6.2656 C.ar    1  UNL1        0.0013
     29 C          15.9930   43.6453    7.2875 C.ar    1  UNL1        0.0149
     30 C          17.4501   43.0848    9.1039 C.3     1  UNL1        0.0237
     31 C          16.9557   41.6456    9.1484 C.3     1  UNL1        0.0986
@<TRIPOS>BOND
     1    30    31    1
     2    31    22    1
     3    21     1    1
     4     2     3   ar
     5     4    13    1
     6     4     5   ar
     7     7    14   am
     8     8    14    1
     9     8     9    1
    10     9    10    1
    11    10    11    1
    12    11    12    1
    13    12    17    1
    14    12    14    1
    15    17    18    1
    16     6     1   ar
    17    25    26   ar
    18    27    28   ar
    19    29    24   ar
    20    22    21   am
    21    22    24    1
    22    13     7   am
    23    21    23    2
    24     1     2   ar
    25     3     4   ar
    26     7    15    2
    27     5     6   ar
    28    24    25   ar
    29    26    27   ar
    30    28    29   ar
    31    13    16    1
    32    18    19    1
    33    18    20    1
@<TRIPOS>MOLECULE
MolPort-039-123-951 MolPort-047-505-371 CSSS00160134884 MCULE-3548329714 MCULE-5752747003 PubChem-118794773 PubChem-154903008
 31 33 0 0 0
SMALL
GASTEIGER

@<TRIPOS>ATOM
      1 C           8.8602   40.2770    5.1691 C.ar    1  UNL1        0.0540
      2 C           7.9256   39.2808    5.4891 C.ar    1  UNL1        0.0058
      3 C           6.8251   39.5760    6.2970 C.ar    1  UNL1        0.0149
      4 C           6.6421   40.8719    6.7944 C.ar    1  UNL1        0.0516
      5 C           7.5578   41.8754    6.4530 C.ar    1  UNL1        0.0149
      6 C           8.6561   41.5805    5.6403 C.ar    1  UNL1        0.0058
      7 C           5.6222   41.7806    8.9440 C.2     1  UNL1        0.3077
      8 C           3.4188   40.7778    9.5529 C.3     1  UNL1        0.0949
      9 C           2.1774   41.5877    9.8711 C.3     1  UNL1        0.0216
     10 C           2.0548   41.7527   11.3844 C.3     1  UNL1        0.0035
     11 C           3.4039   41.9148   12.1230 C.3     1  UNL1        0.0213
     12 C           4.6253   42.2408   11.2375 C.3     1  UNL1        0.0923
     13 N           5.5363   41.1337    7.6655 N.am    1  UNL1       -0.2681
     14 N           4.5820   41.5815    9.9155 N.am    1  UNL1       -0.2642
     15 O           6.5983   42.5395    9.2071 O.2     1  UNL1       -0.2522
     16 H           4.6445   40.8466    7.3630 H       1  UNL1        0.1564
     17 C           5.9172   41.9047   11.9942 C.3     1  UNL1        0.0852
     18 N           6.3048   40.5196   11.7568 N.3     1  UNL1       -0.3198
     19 H           5.5660   39.8984   12.0865 H       1  UNL1        0.1189
     20 H           7.1688   40.3173   12.2598 H       1  UNL1        0.1189
     21 C          10.0398   39.9649    4.3355 C.2     1  UNL1        0.2527
     22 N          11.2228   39.3838    4.9078 N.am    1  UNL1       -0.2552
     23 O          10.0238   40.2426    3.1035 O.2     1  UNL1       -0.2696
     24 C          11.8985   40.0018    6.0241 C.ar    1  UNL1        0.0541
     25 C          12.0833   39.2998    7.2279 C.ar    1  UNL1        0.0149
     26 C          12.7085   39.9091    8.3176 C.ar    1  UNL1        0.0013
     27 C          13.1531   41.2289    8.2197 C.ar    1  UNL1        0.0001
     28 C          12.9735   41.9389    7.0302 C.ar    1  UNL1        0.0013
     29 C          12.3451   41.3306    5.9405 C.ar    1  UNL1        0.0149
     30 C          10.7857   37.3561    3.6076 C.3     1  UNL1        0.0237
     31 C          11.8485   38.2584    4.2193 C.3     1  UNL1        0.0986
@<TRIPOS>BOND
     1    30    31    1
     2    31    22    1
     3    21     1    1
     4     2     3   ar
     5     4    13    1
     6     4     5   ar
     7     7    14   am
     8     8    14    1
     9     8     9    1
    10     9    10    1
    11    10    11    1
    12    11    12    1
    13    12    17    1
    14    12    14    1
    15    17    18    1
    16     6     1   ar
    17    25    26   ar
    18    27    28   ar
    19    29    24   ar
    20    22    21   am
    21    22    24    1
    22    13     7   am
    23    21    23    2
    24     1     2   ar
    25     3     4   ar
    26     7    15    2
    27     5     6   ar
    28    24    25   ar
    29    26    27   ar
    30    28    29   ar
    31    13    16    1
    32    18    19    1
    33    18    20    1
@<TRIPOS>MOLECULE
MolPort-039-123-951 MolPort-047-505-371 CSSS00160134884 MCULE-3548329714 MCULE-5752747003 PubChem-118794773 PubChem-154903008
 31 33 0 0 0
SMALL
GASTEIGER

@<TRIPOS>ATOM
      1 C          11.9300   41.3442    9.2707 C.ar    1  UNL1        0.0540
      2 C          11.6612   40.2377   10.0902 C.ar    1  UNL1        0.0058
      3 C          12.4689   39.0997   10.0303 C.ar    1  UNL1        0.0149
      4 C          13.5582   39.0528    9.1521 C.ar    1  UNL1        0.0516
      5 C          13.8464   40.1670    8.3535 C.ar    1  UNL1        0.0149
      6 C          13.0408   41.3074    8.4176 C.ar    1  UNL1        0.0058
      7 C          15.6579   37.6839    9.6035 C.2     1  UNL1        0.3077
      8 C          15.9845   35.7454    8.0651 C.3     1  UNL1        0.0949
      9 C          16.2376   34.3254    8.5320 C.3     1  UNL1        0.0216
     10 C          17.7401   34.0518    8.5288 C.3     1  UNL1        0.0035
     11 C          18.6131   35.2622    8.9343 C.3     1  UNL1        0.0213
     12 C          17.8722   36.4337    9.6131 C.3     1  UNL1        0.0923
     13 N          14.3360   37.8534    9.0707 N.am    1  UNL1       -0.2681
     14 N          16.5102   36.6508    9.0821 N.am    1  UNL1       -0.2642
     15 O          16.0640   38.4266   10.5425 O.2     1  UNL1       -0.2522
     16 H          13.9310   37.0822    8.6118 H       1  UNL1        0.1564
     17 C          18.7237   37.7069    9.5214 C.3     1  UNL1        0.0852
     18 N          19.0205   38.2222   10.8525 N.3     1  UNL1       -0.3198
     19 H          18.1489   38.4498   11.3310 H       1  UNL1        0.1189
     20 H          19.5935   39.0621   10.7720 H       1  UNL1        0.1189
     21 C          11.0644   42.5412    9.3115 C.2     1  UNL1        0.2527
     22 N           9.6335   42.4275    9.2443 N.am    1  UNL1       -0.2552
     23 O          11.5891   43.6884    9.3736 O.2     1  UNL1       -0.2696
     24 C           8.9861   41.7234    8.1627 C.ar    1  UNL1        0.0541
     25 C           9.5394   41.7300    6.8705 C.ar    1  UNL1        0.0149
     26 C           8.8960   41.0755    5.8182 C.ar    1  UNL1        0.0013
     27 C           7.6895   40.4099    6.0429 C.ar    1  UNL1        0.0001
     28 C           7.1275   40.3976    7.3216 C.ar    1  UNL1        0.0013
     29 C           7.7693   41.0551    8.3743 C.ar    1  UNL1        0.0149
     30 C           8.2464   44.4291    9.4948 C.3     1  UNL1        0.0237
     31 C           8.8288   43.2029   10.1841 C.3     1  UNL1        0.0986
@<TRIPOS>BOND
     1    30    31    1
     2    31    22    1
     3    21     1    1
     4     2     3   ar
     5     4    13    1
     6     4     5   ar
     7     7    14   am
     8     8    14    1
     9     8     9    1
    10     9    10    1
    11    10    11    1
    12    11    12    1
    13    12    17    1
    14    12    14    1
    15    17    18    1
    16     6     1   ar
    17    25    26   ar
    18    27    28   ar
    19    29    24   ar
    20    22    21   am
    21    22    24    1
    22    13     7   am
    23    21    23    2
    24     1     2   ar
    25     3     4   ar
    26     7    15    2
    27     5     6   ar
    28    24    25   ar
    29    26    27   ar
    30    28    29   ar
    31    13    16    1
    32    18    19    1
    33    18    20    1
