@<TRIPOS>MOLECULE
Molport-047-861-766 PubChem-165910249
 21 21 0 0 0
SMALL
GASTEIGER

@<TRIPOS>ATOM
      1 C          13.7285   41.9412    7.0325 C.ar    1  UNL1        0.0529
      2 C          13.6147   41.2589    8.2538 C.ar    1  UNL1        0.0147
      3 C          12.4819   40.4886    8.5305 C.ar    1  UNL1        0.0010
      4 C          11.4547   40.3945    7.5883 C.ar    1  UNL1       -0.0041
      5 C          11.5604   41.0697    6.3676 C.ar    1  UNL1       -0.0176
      6 C          12.6955   41.8407    6.0944 C.ar    1  UNL1        0.0106
      7 C          14.8807   43.9981    6.0240 C.2     1  UNL1        0.4057
      8 O          13.8064   44.5149    5.6113 O.2     1  UNL1       -0.2261
      9 N          14.8750   42.7411    6.7125 N.am    1  UNL1       -0.2499
     10 H          15.7501   42.3899    6.9954 H       1  UNL1        0.1582
     11 O          16.1009   44.6416    5.8071 O.3     1  UNL1       -0.4295
     12 C          17.3461   43.9537    5.8488 C.3     1  UNL1        0.2365
     13 C          17.8656   43.3265    8.1713 C.2     1  UNL1       -0.0011
     14 C          18.0279   44.1765    7.1608 C.2     1  UNL1        0.0208
     15 C          10.4600   40.9786    5.3637 C.3     1  UNL1        0.0733
     16 C          10.4012   39.5864    4.7411 C.3     1  UNL1        0.2627
     17 F          11.4064   39.4632    3.8009 F       1  UNL1       -0.2248
     18 C           9.0805   39.2810    4.0976 C.2     1  UNL1        0.3471
     19 O           8.9575   39.2325    2.8443 O.2     1  UNL1       -0.2472
     20 O           7.9751   39.0356    4.9010 O.3     1  UNL1       -0.4783
     21 H           8.0571   39.0695    5.8338 H       1  UNL1        0.2952
@<TRIPOS>BOND
     1    12    14    1
     2    12    11    1
     3     7    11    1
     4     7     9   am
     5     2     3   ar
     6     4     5   ar
     7     6     1   ar
     8    15     5    1
     9    15    16    1
    10    16    18    1
    11    16    17    1
    12    18    20    1
    13     9     1    1
    14    13    14    2
    15     7     8    2
    16     1     2   ar
    17     3     4   ar
    18     5     6   ar
    19    18    19    2
    20    20    21    1
    21     9    10    1
@<TRIPOS>MOLECULE
Molport-047-861-766 PubChem-165910249
 21 21 0 0 0
SMALL
GASTEIGER

@<TRIPOS>ATOM
      1 C          14.7111   40.9253    8.5615 C.ar    1  UNL1        0.0529
      2 C          15.5894   40.2169    9.3962 C.ar    1  UNL1        0.0147
      3 C          16.9040   40.6563    9.5747 C.ar    1  UNL1        0.0010
      4 C          17.3502   41.8072    8.9204 C.ar    1  UNL1       -0.0041
      5 C          16.4811   42.5206    8.0880 C.ar    1  UNL1       -0.0176
      6 C          15.1659   42.0772    7.9109 C.ar    1  UNL1        0.0106
      7 C          12.2384   41.3413    8.0246 C.2     1  UNL1        0.4057
      8 O          12.3773   42.5892    7.9020 O.2     1  UNL1       -0.2261
      9 N          13.3555   40.5059    8.3535 N.am    1  UNL1       -0.2499
     10 H          13.1731   39.5429    8.4463 H       1  UNL1        0.1582
     11 O          10.9846   40.7515    7.8503 O.3     1  UNL1       -0.4295
     12 C          10.2246   40.2358    8.9374 C.3     1  UNL1        0.2365
     13 C          10.5246   40.8884   11.2914 C.2     1  UNL1       -0.0011
     14 C          10.1649   41.2263   10.0559 C.2     1  UNL1        0.0208
     15 C          16.9584   43.7447    7.3804 C.3     1  UNL1        0.0733
     16 C          16.6693   43.6597    5.8842 C.3     1  UNL1        0.2627
     17 F          17.8124   43.9839    5.1786 F       1  UNL1       -0.2248
     18 C          15.5465   44.5536    5.4465 C.2     1  UNL1        0.3471
     19 O          14.6337   44.1348    4.6852 O.2     1  UNL1       -0.2472
     20 O          15.5076   45.8653    5.8997 O.3     1  UNL1       -0.4783
     21 H          16.1820   46.1855    6.4660 H       1  UNL1        0.2952
@<TRIPOS>BOND
     1    12    14    1
     2    12    11    1
     3     7    11    1
     4     7     9   am
     5     2     3   ar
     6     4     5   ar
     7     6     1   ar
     8    15     5    1
     9    15    16    1
    10    16    18    1
    11    16    17    1
    12    18    20    1
    13     9     1    1
    14    13    14    2
    15     7     8    2
    16     1     2   ar
    17     3     4   ar
    18     5     6   ar
    19    18    19    2
    20    20    21    1
    21     9    10    1
@<TRIPOS>MOLECULE
Molport-047-861-766 PubChem-165910249
 21 21 0 0 0
SMALL
GASTEIGER

@<TRIPOS>ATOM
      1 C          12.4871   40.4586    8.0232 C.ar    1  UNL1        0.0529
      2 C          12.2053   39.6980    9.1686 C.ar    1  UNL1        0.0147
      3 C          11.0988   38.8447    9.1960 C.ar    1  UNL1        0.0010
      4 C          10.2660   38.7454    8.0786 C.ar    1  UNL1       -0.0041
      5 C          10.5404   39.4985    6.9320 C.ar    1  UNL1       -0.0176
      6 C          11.6485   40.3524    6.9084 C.ar    1  UNL1        0.0106
      7 C          14.9521   41.0660    8.3840 C.2     1  UNL1        0.4057
      8 O          15.2497   39.9519    8.8956 O.2     1  UNL1       -0.2261
      9 N          13.6128   41.3448    7.9570 N.am    1  UNL1       -0.2499
     10 H          13.4482   42.2387    7.5785 H       1  UNL1        0.1582
     11 O          15.9267   42.0548    8.2333 O.3     1  UNL1       -0.4295
     12 C          15.8097   43.1044    7.2794 C.3     1  UNL1        0.2365
     13 C          17.9668   43.8394    8.2089 C.2     1  UNL1       -0.0011
     14 C          17.0620   43.9202    7.2368 C.2     1  UNL1        0.0208
     15 C           9.6467   39.4015    5.7409 C.3     1  UNL1        0.0733
     16 C          10.4336   38.9950    4.4980 C.3     1  UNL1        0.2627
     17 F          11.1149   40.0932    4.0088 F       1  UNL1       -0.2248
     18 C           9.5708   38.4229    3.4118 C.2     1  UNL1        0.3471
     19 O           8.8507   39.1622    2.6886 O.2     1  UNL1       -0.2472
     20 O           9.5760   37.0519    3.1928 O.3     1  UNL1       -0.4783
     21 H          10.1082   36.4944    3.7256 H       1  UNL1        0.2952
@<TRIPOS>BOND
     1    12    14    1
     2    12    11    1
     3     7    11    1
     4     7     9   am
     5     2     3   ar
     6     4     5   ar
     7     6     1   ar
     8    15     5    1
     9    15    16    1
    10    16    18    1
    11    16    17    1
    12    18    20    1
    13     9     1    1
    14    13    14    2
    15     7     8    2
    16     1     2   ar
    17     3     4   ar
    18     5     6   ar
    19    18    19    2
    20    20    21    1
    21     9    10    1
@<TRIPOS>MOLECULE
Molport-047-861-766 PubChem-165910249
 21 21 0 0 0
SMALL
GASTEIGER

@<TRIPOS>ATOM
      1 C          11.0275   41.0991    5.7113 C.ar    1  UNL1        0.0529
      2 C          10.8976   40.2162    4.6279 C.ar    1  UNL1        0.0147
      3 C           9.8140   39.3363    4.5589 C.ar    1  UNL1        0.0010
      4 C           8.8523   39.3326    5.5723 C.ar    1  UNL1       -0.0041
      5 C           8.9728   40.2103    6.6550 C.ar    1  UNL1       -0.0176
      6 C          10.0595   41.0893    6.7212 C.ar    1  UNL1        0.0106
      7 C          13.2394   41.9230    6.7133 C.2     1  UNL1        0.4057
      8 O          13.3302   40.9713    7.5364 O.2     1  UNL1       -0.2261
      9 N          12.1249   42.0164    5.8172 N.am    1  UNL1       -0.2499
     10 H          12.1112   42.7916    5.2105 H       1  UNL1        0.1582
     11 O          14.2243   42.9120    6.6684 O.3     1  UNL1       -0.4295
     12 C          14.2357   43.9353    5.6794 C.3     1  UNL1        0.2365
     13 C          16.5516   44.4957    6.2957 C.2     1  UNL1       -0.0011
     14 C          15.3379   44.9108    5.9427 C.2     1  UNL1        0.0208
     15 C           7.9520   40.2013    7.7435 C.3     1  UNL1        0.0733
     16 C           6.6349   40.8046    7.2636 C.3     1  UNL1        0.2627
     17 F           6.0304   39.9352    6.3757 F       1  UNL1       -0.2248
     18 C           6.8010   42.1447    6.6095 C.2     1  UNL1        0.3471
     19 O           7.2461   43.1355    7.2486 O.2     1  UNL1       -0.2472
     20 O           6.4681   42.2916    5.2697 O.3     1  UNL1       -0.4783
     21 H           6.1365   41.5605    4.7865 H       1  UNL1        0.2952
@<TRIPOS>BOND
     1    12    14    1
     2    12    11    1
     3     7    11    1
     4     7     9   am
     5     2     3   ar
     6     4     5   ar
     7     6     1   ar
     8    15     5    1
     9    15    16    1
    10    16    18    1
    11    16    17    1
    12    18    20    1
    13     9     1    1
    14    13    14    2
    15     7     8    2
    16     1     2   ar
    17     3     4   ar
    18     5     6   ar
    19    18    19    2
    20    20    21    1
    21     9    10    1
@<TRIPOS>MOLECULE
Molport-047-861-766 PubChem-165910249
 21 21 0 0 0
SMALL
GASTEIGER

@<TRIPOS>ATOM
      1 C          14.4104   40.9956    8.3012 C.ar    1  UNL1        0.0529
      2 C          15.1497   40.2469    9.2302 C.ar    1  UNL1        0.0147
      3 C          16.4656   40.6029    9.5380 C.ar    1  UNL1        0.0010
      4 C          17.0520   41.7099    8.9197 C.ar    1  UNL1       -0.0041
      5 C          16.3220   42.4630    7.9939 C.ar    1  UNL1       -0.0176
      6 C          15.0051   42.1031    7.6874 C.ar    1  UNL1        0.0106
      7 C          12.3041   41.1618    6.8482 C.2     1  UNL1        0.4057
      8 O          12.8071   41.9981    6.0487 O.2     1  UNL1       -0.2261
      9 N          13.0581   40.6616    7.9595 N.am    1  UNL1       -0.2499
     10 H          12.5996   40.0215    8.5505 H       1  UNL1        0.1582
     11 O          10.9936   40.7146    6.6676 O.3     1  UNL1       -0.4295
     12 C          10.6689   39.6241    5.8128 C.3     1  UNL1        0.2365
     13 C           9.8488   39.2885    3.5166 C.2     1  UNL1       -0.0011
     14 C          10.3470   40.1109    4.4361 C.2     1  UNL1        0.0208
     15 C          16.9497   43.6400    7.3249 C.3     1  UNL1        0.0733
     16 C          16.7231   43.5972    5.8162 C.3     1  UNL1        0.2627
     17 F          17.8635   44.0347    5.1700 F       1  UNL1       -0.2248
     18 C          15.5527   44.4233    5.3697 C.2     1  UNL1        0.3471
     19 O          15.3788   45.5971    5.7939 O.2     1  UNL1       -0.2472
     20 O          14.6503   43.8860    4.4616 O.3     1  UNL1       -0.4783
     21 H          14.7716   43.0140    4.1407 H       1  UNL1        0.2952
@<TRIPOS>BOND
     1    12    14    1
     2    12    11    1
     3     7    11    1
     4     7     9   am
     5     2     3   ar
     6     4     5   ar
     7     6     1   ar
     8    15     5    1
     9    15    16    1
    10    16    18    1
    11    16    17    1
    12    18    20    1
    13     9     1    1
    14    13    14    2
    15     7     8    2
    16     1     2   ar
    17     3     4   ar
    18     5     6   ar
    19    18    19    2
    20    20    21    1
    21     9    10    1
@<TRIPOS>MOLECULE
Molport-047-861-766 PubChem-165910249
 21 21 0 0 0
SMALL
GASTEIGER

@<TRIPOS>ATOM
      1 C          11.8490   41.9719    8.7257 C.ar    1  UNL1        0.0529
      2 C          12.1962   41.1106    9.7781 C.ar    1  UNL1        0.0147
      3 C          11.2112   40.5996   10.6277 C.ar    1  UNL1        0.0010
      4 C           9.8720   40.9456   10.4313 C.ar    1  UNL1       -0.0041
      5 C           9.5166   41.8019    9.3838 C.ar    1  UNL1       -0.0176
      6 C          10.5055   42.3124    8.5357 C.ar    1  UNL1        0.0106
      7 C          12.9764   42.2285    6.4369 C.2     1  UNL1        0.4057
      8 O          12.2083   41.4099    5.8613 O.2     1  UNL1       -0.2261
      9 N          12.8309   42.5163    7.8333 N.am    1  UNL1       -0.2499
     10 H          13.4724   43.1548    8.2206 H       1  UNL1        0.1582
     11 O          13.9930   42.8639    5.7207 O.3     1  UNL1       -0.4295
     12 C          14.2714   44.2529    5.8575 C.3     1  UNL1        0.2365
     13 C          16.3342   44.1949    7.1987 C.2     1  UNL1       -0.0011
     14 C          15.7373   44.4808    6.0446 C.2     1  UNL1        0.0208
     15 C           8.0879   42.1806    9.1781 C.3     1  UNL1        0.0733
     16 C           7.9185   43.0082    7.9070 C.3     1  UNL1        0.2627
     17 F           7.5097   44.2846    8.2435 F       1  UNL1       -0.2248
     18 C           6.9386   42.4129    6.9392 C.2     1  UNL1        0.3471
     19 O           6.9053   42.7762    5.7329 O.2     1  UNL1       -0.2472
     20 O           6.0590   41.4335    7.3805 O.3     1  UNL1       -0.4783
     21 H           6.0765   41.1571    8.2756 H       1  UNL1        0.2952
@<TRIPOS>BOND
     1    12    14    1
     2    12    11    1
     3     7    11    1
     4     7     9   am
     5     2     3   ar
     6     4     5   ar
     7     6     1   ar
     8    15     5    1
     9    15    16    1
    10    16    18    1
    11    16    17    1
    12    18    20    1
    13     9     1    1
    14    13    14    2
    15     7     8    2
    16     1     2   ar
    17     3     4   ar
    18     5     6   ar
    19    18    19    2
    20    20    21    1
    21     9    10    1
@<TRIPOS>MOLECULE
Molport-047-861-766 PubChem-165910249
 21 21 0 0 0
SMALL
GASTEIGER

@<TRIPOS>ATOM
      1 C           8.8834   41.0354    8.4657 C.ar    1  UNL1        0.0529
      2 C           8.6021   40.4623    7.2157 C.ar    1  UNL1        0.0147
      3 C           7.6960   41.0743    6.3452 C.ar    1  UNL1        0.0010
      4 C           7.0648   42.2636    6.7178 C.ar    1  UNL1       -0.0041
      5 C           7.3406   42.8429    7.9610 C.ar    1  UNL1       -0.0176
      6 C           8.2475   42.2269    8.8303 C.ar    1  UNL1        0.0106
      7 C          10.9301   41.0717   10.0101 C.2     1  UNL1        0.4057
      8 O          11.2113   42.2769    9.7654 O.2     1  UNL1       -0.2261
      9 N           9.8069   40.4373    9.3857 N.am    1  UNL1       -0.2499
     10 H           9.6531   39.4916    9.6120 H       1  UNL1        0.1582
     11 O          11.7189   40.3292   10.8914 O.3     1  UNL1       -0.4295
     12 C          12.9748   39.7768   10.5132 C.3     1  UNL1        0.2365
     13 C          14.7889   38.4882   11.5647 C.2     1  UNL1       -0.0011
     14 C          13.6849   39.2173   11.7042 C.2     1  UNL1        0.0208
     15 C           6.6601   44.1080    8.3651 C.3     1  UNL1        0.0733
     16 C           5.2280   44.1513    7.8393 C.3     1  UNL1        0.2627
     17 F           4.8998   45.4534    7.5134 F       1  UNL1       -0.2248
     18 C           4.2224   43.6162    8.8159 C.2     1  UNL1        0.3471
     19 O           4.5795   43.1055    9.9112 O.2     1  UNL1       -0.2472
     20 O           2.8705   43.6968    8.5101 O.3     1  UNL1       -0.4783
     21 H           2.5955   44.0750    7.6981 H       1  UNL1        0.2952
@<TRIPOS>BOND
     1    12    14    1
     2    12    11    1
     3     7    11    1
     4     7     9   am
     5     2     3   ar
     6     4     5   ar
     7     6     1   ar
     8    15     5    1
     9    15    16    1
    10    16    18    1
    11    16    17    1
    12    18    20    1
    13     9     1    1
    14    13    14    2
    15     7     8    2
    16     1     2   ar
    17     3     4   ar
    18     5     6   ar
    19    18    19    2
    20    20    21    1
    21     9    10    1
@<TRIPOS>MOLECULE
Molport-047-861-766 PubChem-165910249
 21 21 0 0 0
SMALL
GASTEIGER

@<TRIPOS>ATOM
      1 C           8.5814   40.0726    7.8050 C.ar    1  UNL1        0.0529
      2 C           7.9688   39.3472    6.7714 C.ar    1  UNL1        0.0147
      3 C           6.6597   39.6415    6.3806 C.ar    1  UNL1        0.0010
      4 C           5.9534   40.6633    7.0201 C.ar    1  UNL1       -0.0041
      5 C           6.5567   41.3927    8.0502 C.ar    1  UNL1       -0.0176
      6 C           7.8672   41.0947    8.4393 C.ar    1  UNL1        0.0106
      7 C          11.0858   39.6960    7.4032 C.2     1  UNL1        0.4057
      8 O          11.0018   39.8313    6.1518 O.2     1  UNL1       -0.2261
      9 N           9.9226   39.8001    8.2339 N.am    1  UNL1       -0.2499
     10 H          10.0584   39.6710    9.2003 H       1  UNL1        0.1582
     11 O          12.3194   39.4316    8.0020 O.3     1  UNL1       -0.4295
     12 C          13.1401   40.4584    8.5475 C.3     1  UNL1        0.2365
     13 C          14.6465   42.0433    7.4178 C.2     1  UNL1       -0.0011
     14 C          13.4359   41.5005    7.5168 C.2     1  UNL1        0.0208
     15 C           5.8008   42.4781    8.7413 C.3     1  UNL1        0.0733
     16 C           4.9087   41.9089    9.8410 C.3     1  UNL1        0.2627
     17 F           4.8500   40.5340    9.7164 F       1  UNL1       -0.2248
     18 C           3.5164   42.4681    9.8226 C.2     1  UNL1        0.3471
     19 O           2.7474   42.3454   10.8134 O.2     1  UNL1       -0.2472
     20 O           3.0720   43.1444    8.6945 O.3     1  UNL1       -0.4783
     21 H           3.6367   43.2406    7.9531 H       1  UNL1        0.2952
@<TRIPOS>BOND
     1    12    14    1
     2    12    11    1
     3     7    11    1
     4     7     9   am
     5     2     3   ar
     6     4     5   ar
     7     6     1   ar
     8    15     5    1
     9    15    16    1
    10    16    18    1
    11    16    17    1
    12    18    20    1
    13     9     1    1
    14    13    14    2
    15     7     8    2
    16     1     2   ar
    17     3     4   ar
    18     5     6   ar
    19    18    19    2
    20    20    21    1
    21     9    10    1
@<TRIPOS>MOLECULE
Molport-047-861-766 PubChem-165910249
 21 21 0 0 0
SMALL
GASTEIGER

@<TRIPOS>ATOM
      1 C          10.2028   41.0099    8.5471 C.ar    1  UNL1        0.0529
      2 C          11.4435   41.4011    9.0737 C.ar    1  UNL1        0.0147
      3 C          12.5490   41.5621    8.2339 C.ar    1  UNL1        0.0010
      4 C          12.4221   41.3334    6.8615 C.ar    1  UNL1       -0.0041
      5 C          11.1887   40.9450    6.3277 C.ar    1  UNL1       -0.0176
      6 C          10.0844   40.7839    7.1716 C.ar    1  UNL1        0.0106
      7 C           7.9544   41.7497    9.5334 C.2     1  UNL1        0.4057
      8 O           7.9424   42.8536    8.9229 O.2     1  UNL1       -0.2261
      9 N           9.0460   40.8345    9.3766 N.am    1  UNL1       -0.2499
     10 H           8.9966   39.9974    9.8924 H       1  UNL1        0.1582
     11 O           6.9025   41.4038   10.3844 O.3     1  UNL1       -0.4295
     12 C           5.5478   41.7334   10.0985 C.3     1  UNL1        0.2365
     13 C           3.4097   41.8907   11.3071 C.2     1  UNL1       -0.0011
     14 C           4.7304   41.7365   11.3505 C.2     1  UNL1        0.0208
     15 C          11.0533   40.6906    4.8635 C.3     1  UNL1        0.0733
     16 C          10.5943   39.2597    4.5967 C.3     1  UNL1        0.2627
     17 F          11.4987   38.6387    3.7564 F       1  UNL1       -0.2248
     18 C           9.2226   39.1806    3.9938 C.2     1  UNL1        0.3471
     19 O           9.0450   39.2931    2.7513 O.2     1  UNL1       -0.2472
     20 O           8.1289   38.9675    4.8221 O.3     1  UNL1       -0.4783
     21 H           8.2513   38.8826    5.7472 H       1  UNL1        0.2952
@<TRIPOS>BOND
     1    12    14    1
     2    12    11    1
     3     7    11    1
     4     7     9   am
     5     2     3   ar
     6     4     5   ar
     7     6     1   ar
     8    15     5    1
     9    15    16    1
    10    16    18    1
    11    16    17    1
    12    18    20    1
    13     9     1    1
    14    13    14    2
    15     7     8    2
    16     1     2   ar
    17     3     4   ar
    18     5     6   ar
    19    18    19    2
    20    20    21    1
    21     9    10    1
@<TRIPOS>MOLECULE
Molport-047-861-766 PubChem-165910249
 21 21 0 0 0
SMALL
GASTEIGER

@<TRIPOS>ATOM
      1 C          14.7248   40.0325    9.1809 C.ar    1  UNL1        0.0529
      2 C          15.8256   39.6247    9.9504 C.ar    1  UNL1        0.0147
      3 C          17.0311   40.3291    9.8888 C.ar    1  UNL1        0.0010
      4 C          17.1450   41.4463    9.0578 C.ar    1  UNL1       -0.0041
      5 C          16.0525   41.8610    8.2886 C.ar    1  UNL1       -0.0176
      6 C          14.8474   41.1529    8.3521 C.ar    1  UNL1        0.0106
      7 C          12.5077   39.3563   10.2774 C.2     1  UNL1        0.4057
      8 O          12.7157   40.0217   11.3287 O.2     1  UNL1       -0.2261
      9 N          13.4718   39.3357    9.2172 N.am    1  UNL1       -0.2499
     10 H          13.2508   38.7854    8.4313 H       1  UNL1        0.1582
     11 O          11.3318   38.6169   10.1327 O.3     1  UNL1       -0.4295
     12 C          11.3082   37.3290    9.5276 C.3     1  UNL1        0.2365
     13 C          12.9322   35.6000   10.1837 C.2     1  UNL1       -0.0011
     14 C          11.8338   36.2939   10.4700 C.2     1  UNL1        0.0208
     15 C          16.1749   43.0483    7.3929 C.3     1  UNL1        0.0733
     16 C          14.8406   43.3704    6.7257 C.3     1  UNL1        0.2627
     17 F          14.2714   42.2027    6.2544 F       1  UNL1       -0.2248
     18 C          14.9644   44.3519    5.5976 C.2     1  UNL1        0.3471
     19 O          15.3836   45.5244    5.7916 O.2     1  UNL1       -0.2472
     20 O          14.6209   43.9548    4.3123 O.3     1  UNL1       -0.4783
     21 H          14.3084   43.0850    4.1584 H       1  UNL1        0.2952
@<TRIPOS>BOND
     1    12    14    1
     2    12    11    1
     3     7    11    1
     4     7     9   am
     5     2     3   ar
     6     4     5   ar
     7     6     1   ar
     8    15     5    1
     9    15    16    1
    10    16    18    1
    11    16    17    1
    12    18    20    1
    13     9     1    1
    14    13    14    2
    15     7     8    2
    16     1     2   ar
    17     3     4   ar
    18     5     6   ar
    19    18    19    2
    20    20    21    1
    21     9    10    1
