@<TRIPOS>MOLECULE
Molport-047-891-759 MCULE-9852795841 PubChem-165933824
 24 25 0 0 0
SMALL
GASTEIGER

@<TRIPOS>ATOM
      1 C          12.0892   40.7584    9.6634 C.ar    1  UNL1        0.0562
      2 C          13.2188   41.0276    8.8829 C.ar    1  UNL1        0.0516
      3 C          14.4794   40.5544    9.2619 C.ar    1  UNL1        0.1398
      4 C          14.6076   39.8013   10.4397 C.ar    1  UNL1        0.0370
      5 C          13.4855   39.5282   11.2252 C.ar    1  UNL1        0.0044
      6 C          12.2306   40.0051   10.8385 C.ar    1  UNL1        0.0150
      7 C          10.3077   42.5894    9.4411 C.2     1  UNL1        0.4057
      8 O          10.9794   43.4511   10.0717 O.2     1  UNL1       -0.2261
      9 N          10.8181   41.2663    9.2347 N.am    1  UNL1       -0.2498
     10 H          10.2351   40.6402    8.7475 H       1  UNL1        0.1582
     11 O           9.0451   42.9101    8.9371 O.3     1  UNL1       -0.4295
     12 C           7.8754   42.1708    9.2712 C.3     1  UNL1        0.2367
     13 C           4.3486   44.3784    8.2292 C.ar    1  UNL1       -0.0000
     14 C           5.5857   44.7390    7.6859 C.ar    1  UNL1       -0.0002
     15 C           6.7357   44.0216    8.0292 C.ar    1  UNL1       -0.0007
     16 C           6.6504   42.9443    8.9177 C.ar    1  UNL1        0.0213
     17 C           5.4113   42.5824    9.4584 C.ar    1  UNL1       -0.0007
     18 C           4.2613   43.2999    9.1150 C.ar    1  UNL1       -0.0002
     19 O          15.5817   40.8447    8.4538 O.3     1  UNL1       -0.4754
     20 C          15.9279   42.1711    8.0751 C.3     1  UNL1        0.2065
     21 C          17.3211   42.5087    8.5817 C.3     1  UNL1        0.0635
     22 C          17.8097   43.8302    8.0083 C.3     1  UNL1        0.1092
     23 C          17.4834   43.9243    6.5818 C.1     1  UNL1        0.0733
     24 N          17.2258   43.9994    5.4562 N.1     1  UNL1       -0.1959
@<TRIPOS>BOND
     1    14    15   ar
     2    16    17   ar
     3    18    13   ar
     4    12    16    1
     5    12    11    1
     6     7    11    1
     7     7     9   am
     8     2     3   ar
     9     3    19    1
    10     4     5   ar
    11     6     1   ar
    12    20    19    1
    13    20    21    1
    14    21    22    1
    15    22    23    1
    16     9     1    1
    17    13    14   ar
    18    15    16   ar
    19    17    18   ar
    20     7     8    2
    21     1     2   ar
    22     3     4   ar
    23     5     6   ar
    24    23    24    3
    25     9    10    1
@<TRIPOS>MOLECULE
Molport-047-891-759 MCULE-9852795841 PubChem-165933824
 24 25 0 0 0
SMALL
GASTEIGER

@<TRIPOS>ATOM
      1 C           9.9378   41.1665    5.7413 C.ar    1  UNL1        0.0562
      2 C           8.9901   41.8077    6.5466 C.ar    1  UNL1        0.0516
      3 C           7.7582   41.2041    6.8202 C.ar    1  UNL1        0.1398
      4 C           7.4739   39.9408    6.2782 C.ar    1  UNL1        0.0370
      5 C           8.4138   39.2936    5.4728 C.ar    1  UNL1        0.0044
      6 C           9.6415   39.9043    5.2052 C.ar    1  UNL1        0.0150
      7 C          12.3575   41.7942    6.3127 C.2     1  UNL1        0.4057
      8 O          12.3659   41.1555    7.4005 O.2     1  UNL1       -0.2261
      9 N          11.1861   41.8258    5.4877 N.am    1  UNL1       -0.2498
     10 H          11.2444   42.3556    4.6600 H       1  UNL1        0.1582
     11 O          13.4938   42.4912    5.8955 O.3     1  UNL1       -0.4295
     12 C          13.9930   43.6297    6.5890 C.3     1  UNL1        0.2367
     13 C          17.9822   42.9296    8.0010 C.ar    1  UNL1       -0.0000
     14 C          17.7243   43.9950    7.1327 C.ar    1  UNL1       -0.0002
     15 C          16.4244   44.2202    6.6694 C.ar    1  UNL1       -0.0007
     16 C          15.3814   43.3792    7.0722 C.ar    1  UNL1        0.0213
     17 C          15.6401   42.3151    7.9436 C.ar    1  UNL1       -0.0007
     18 C          16.9401   42.0900    8.4068 C.ar    1  UNL1       -0.0002
     19 O           6.8401   41.8779    7.6298 O.3     1  UNL1       -0.4754
     20 C           6.9061   43.2792    7.8636 C.3     1  UNL1        0.2065
     21 C           5.8173   43.9888    7.0746 C.3     1  UNL1        0.0635
     22 C           4.8982   44.7791    7.9937 C.3     1  UNL1        0.1092
     23 C           3.9424   43.8865    8.6571 C.1     1  UNL1        0.0733
     24 N           3.1887   43.1817    9.1808 N.1     1  UNL1       -0.1959
@<TRIPOS>BOND
     1    14    15   ar
     2    16    17   ar
     3    18    13   ar
     4    12    16    1
     5    12    11    1
     6     7    11    1
     7     7     9   am
     8     2     3   ar
     9     3    19    1
    10     4     5   ar
    11     6     1   ar
    12    20    19    1
    13    20    21    1
    14    21    22    1
    15    22    23    1
    16     9     1    1
    17    13    14   ar
    18    15    16   ar
    19    17    18   ar
    20     7     8    2
    21     1     2   ar
    22     3     4   ar
    23     5     6   ar
    24    23    24    3
    25     9    10    1
@<TRIPOS>MOLECULE
Molport-047-891-759 MCULE-9852795841 PubChem-165933824
 24 25 0 0 0
SMALL
GASTEIGER

@<TRIPOS>ATOM
      1 C          11.4404   40.8905    9.6289 C.ar    1  UNL1        0.0562
      2 C          12.5062   41.1629    8.7642 C.ar    1  UNL1        0.0516
      3 C          13.8051   40.7494    9.0776 C.ar    1  UNL1        0.1398
      4 C          14.0373   40.0535   10.2745 C.ar    1  UNL1        0.0370
      5 C          12.9795   39.7777   11.1440 C.ar    1  UNL1        0.0044
      6 C          11.6854   40.1948   10.8223 C.ar    1  UNL1        0.0150
      7 C           9.1738   40.6335    8.4573 C.2     1  UNL1        0.4057
      8 O           9.4509   39.5065    7.9629 O.2     1  UNL1       -0.2261
      9 N          10.1264   41.3362    9.2652 N.am    1  UNL1       -0.2498
     10 H           9.8499   42.2172    9.6065 H       1  UNL1        0.1582
     11 O           7.9298   41.2218    8.2183 O.3     1  UNL1       -0.4295
     12 C           7.4723   42.3653    8.9322 C.3     1  UNL1        0.2367
     13 C           3.2087   42.2648    9.3899 C.ar    1  UNL1       -0.0000
     14 C           3.9636   41.1086    9.6114 C.ar    1  UNL1       -0.0002
     15 C           5.3530   41.1410    9.4579 C.ar    1  UNL1       -0.0007
     16 C           5.9889   42.3287    9.0809 C.ar    1  UNL1        0.0213
     17 C           5.2327   43.4859    8.8625 C.ar    1  UNL1       -0.0007
     18 C           3.8433   43.4535    9.0159 C.ar    1  UNL1       -0.0002
     19 O          14.8410   41.0407    8.1864 O.3     1  UNL1       -0.4754
     20 C          14.8447   42.2031    7.3669 C.3     1  UNL1        0.2065
     21 C          16.1629   42.9443    7.5234 C.3     1  UNL1        0.0635
     22 C          16.0865   44.3368    6.9161 C.3     1  UNL1        0.1092
     23 C          15.3870   44.2988    5.6279 C.1     1  UNL1        0.0733
     24 N          14.8346   44.2695    4.6114 N.1     1  UNL1       -0.1959
@<TRIPOS>BOND
     1    14    15   ar
     2    16    17   ar
     3    18    13   ar
     4    12    16    1
     5    12    11    1
     6     7    11    1
     7     7     9   am
     8     2     3   ar
     9     3    19    1
    10     4     5   ar
    11     6     1   ar
    12    20    19    1
    13    20    21    1
    14    21    22    1
    15    22    23    1
    16     9     1    1
    17    13    14   ar
    18    15    16   ar
    19    17    18   ar
    20     7     8    2
    21     1     2   ar
    22     3     4   ar
    23     5     6   ar
    24    23    24    3
    25     9    10    1
@<TRIPOS>MOLECULE
Molport-047-891-759 MCULE-9852795841 PubChem-165933824
 24 25 0 0 0
SMALL
GASTEIGER

@<TRIPOS>ATOM
      1 C          10.8449   40.3630    9.9447 C.ar    1  UNL1        0.0562
      2 C          11.9357   40.2471   10.8134 C.ar    1  UNL1        0.0516
      3 C          13.1536   39.7241   10.3665 C.ar    1  UNL1        0.1398
      4 C          13.2782   39.3120    9.0303 C.ar    1  UNL1        0.0370
      5 C          12.1945   39.4235    8.1562 C.ar    1  UNL1        0.0044
      6 C          10.9820   39.9472    8.6118 C.ar    1  UNL1        0.0150
      7 C           9.0039   42.1434   10.0720 C.2     1  UNL1        0.4057
      8 O           9.5494   42.9034    9.2257 O.2     1  UNL1       -0.2261
      9 N           9.6161   40.9039   10.4494 N.am    1  UNL1       -0.2498
     10 H           9.1436   40.3672   11.1262 H       1  UNL1        0.1582
     11 O           7.7909   42.5029   10.6641 O.3     1  UNL1       -0.4295
     12 C           6.9418   41.5586   11.3072 C.3     1  UNL1        0.2367
     13 C           3.0143   41.6434    9.5851 C.ar    1  UNL1       -0.0000
     14 C           3.3608   40.6329   10.4876 C.ar    1  UNL1       -0.0002
     15 C           4.6427   40.6034   11.0454 C.ar    1  UNL1       -0.0007
     16 C           5.5799   41.5829   10.7000 C.ar    1  UNL1        0.0213
     17 C           5.2310   42.5955    9.7991 C.ar    1  UNL1       -0.0007
     18 C           3.9491   42.6249    9.2413 C.ar    1  UNL1       -0.0002
     19 O          14.2183   39.6263   11.2660 O.3     1  UNL1       -0.4754
     20 C          14.6776   38.3822   11.7797 C.3     1  UNL1        0.2065
     21 C          16.0428   38.0525   11.1972 C.3     1  UNL1        0.0635
     22 C          17.0296   39.1860   11.4323 C.3     1  UNL1        0.1092
     23 C          17.2707   39.9247   10.1887 C.1     1  UNL1        0.0733
     24 N          17.4607   40.5082    9.2077 N.1     1  UNL1       -0.1959
@<TRIPOS>BOND
     1    14    15   ar
     2    16    17   ar
     3    18    13   ar
     4    12    16    1
     5    12    11    1
     6     7    11    1
     7     7     9   am
     8     2     3   ar
     9     3    19    1
    10     4     5   ar
    11     6     1   ar
    12    20    19    1
    13    20    21    1
    14    21    22    1
    15    22    23    1
    16     9     1    1
    17    13    14   ar
    18    15    16   ar
    19    17    18   ar
    20     7     8    2
    21     1     2   ar
    22     3     4   ar
    23     5     6   ar
    24    23    24    3
    25     9    10    1
@<TRIPOS>MOLECULE
Molport-047-891-759 MCULE-9852795841 PubChem-165933824
 24 25 0 0 0
SMALL
GASTEIGER

@<TRIPOS>ATOM
      1 C          13.1425   39.1164    9.4448 C.ar    1  UNL1        0.0562
      2 C          14.2861   39.2396   10.2415 C.ar    1  UNL1        0.0516
      3 C          14.5815   38.2861   11.2213 C.ar    1  UNL1        0.1398
      4 C          13.7175   37.1948   11.4039 C.ar    1  UNL1        0.0370
      5 C          12.5733   37.0639   10.6136 C.ar    1  UNL1        0.0044
      6 C          12.2867   38.0214    9.6374 C.ar    1  UNL1        0.0150
      7 C          12.1791   41.3548    8.6467 C.2     1  UNL1        0.4057
      8 O          11.6956   41.6557    9.7723 O.2     1  UNL1       -0.2261
      9 N          12.8809   40.1202    8.4543 N.am    1  UNL1       -0.2498
     10 H          13.2189   39.9424    7.5469 H       1  UNL1        0.1582
     11 O          12.0314   42.2214    7.5613 O.3     1  UNL1       -0.4295
     12 C          12.7899   42.0875    6.3641 C.3     1  UNL1        0.2367
     13 C          16.2939   44.5538    6.5562 C.ar    1  UNL1       -0.0000
     14 C          15.1660   44.9941    5.8564 C.ar    1  UNL1       -0.0002
     15 C          14.0255   44.1878    5.7907 C.ar    1  UNL1       -0.0007
     16 C          14.0122   42.9397    6.4227 C.ar    1  UNL1        0.0213
     17 C          15.1405   42.5015    7.1252 C.ar    1  UNL1       -0.0007
     18 C          16.2810   43.3079    7.1909 C.ar    1  UNL1       -0.0002
     19 O          15.7341   38.4460   11.9948 O.3     1  UNL1       -0.4754
     20 C          17.0178   38.6655   11.4234 C.3     1  UNL1        0.2065
     21 C          17.2201   37.7434   10.2316 C.3     1  UNL1        0.0635
     22 C          18.6558   37.2460   10.1583 C.3     1  UNL1        0.1092
     23 C          18.9419   36.3341   11.2705 C.1     1  UNL1        0.0733
     24 N          19.1670   35.6145   12.1483 N.1     1  UNL1       -0.1959
@<TRIPOS>BOND
     1    14    15   ar
     2    16    17   ar
     3    18    13   ar
     4    12    16    1
     5    12    11    1
     6     7    11    1
     7     7     9   am
     8     2     3   ar
     9     3    19    1
    10     4     5   ar
    11     6     1   ar
    12    20    19    1
    13    20    21    1
    14    21    22    1
    15    22    23    1
    16     9     1    1
    17    13    14   ar
    18    15    16   ar
    19    17    18   ar
    20     7     8    2
    21     1     2   ar
    22     3     4   ar
    23     5     6   ar
    24    23    24    3
    25     9    10    1
@<TRIPOS>MOLECULE
Molport-047-891-759 MCULE-9852795841 PubChem-165933824
 24 25 0 0 0
SMALL
GASTEIGER

@<TRIPOS>ATOM
      1 C          12.7711   40.2644    9.7742 C.ar    1  UNL1        0.0562
      2 C          13.6894   40.9302    8.9550 C.ar    1  UNL1        0.0516
      3 C          15.0641   40.7167    9.1008 C.ar    1  UNL1        0.1398
      4 C          15.5229   39.8235   10.0817 C.ar    1  UNL1        0.0370
      5 C          14.6135   39.1548   10.9043 C.ar    1  UNL1        0.0044
      6 C          13.2423   39.3745   10.7512 C.ar    1  UNL1        0.0150
      7 C          10.5705   40.1299    8.4648 C.2     1  UNL1        0.4057
      8 O          11.0795   39.5139    7.4886 O.2     1  UNL1       -0.2261
      9 N          11.3716   40.5170    9.5882 N.am    1  UNL1       -0.2498
     10 H          10.9131   41.0080   10.3079 H       1  UNL1        0.1582
     11 O           9.2116   40.4529    8.4636 O.3     1  UNL1       -0.4295
     12 C           8.7180   41.6945    8.9548 C.3     1  UNL1        0.2367
     13 C           4.7211   41.2099   10.4339 C.ar    1  UNL1       -0.0000
     14 C           4.9762   41.1123    9.0623 C.ar    1  UNL1       -0.0002
     15 C           6.2787   41.2745    8.5804 C.ar    1  UNL1       -0.0007
     16 C           7.3271   41.5366    9.4689 C.ar    1  UNL1        0.0213
     17 C           7.0711   41.6310   10.8415 C.ar    1  UNL1       -0.0007
     18 C           5.7685   41.4688   11.3234 C.ar    1  UNL1       -0.0002
     19 O          15.9473   41.4010    8.2617 O.3     1  UNL1       -0.4754
     20 C          15.6373   42.6644    7.6871 C.3     1  UNL1        0.2065
     21 C          16.8971   43.5088    7.5793 C.3     1  UNL1        0.0635
     22 C          17.2011   43.8608    6.1310 C.3     1  UNL1        0.1092
     23 C          15.9650   44.1753    5.4074 C.1     1  UNL1        0.0733
     24 N          14.9894   44.4239    4.8370 N.1     1  UNL1       -0.1959
@<TRIPOS>BOND
     1    14    15   ar
     2    16    17   ar
     3    18    13   ar
     4    12    16    1
     5    12    11    1
     6     7    11    1
     7     7     9   am
     8     2     3   ar
     9     3    19    1
    10     4     5   ar
    11     6     1   ar
    12    20    19    1
    13    20    21    1
    14    21    22    1
    15    22    23    1
    16     9     1    1
    17    13    14   ar
    18    15    16   ar
    19    17    18   ar
    20     7     8    2
    21     1     2   ar
    22     3     4   ar
    23     5     6   ar
    24    23    24    3
    25     9    10    1
@<TRIPOS>MOLECULE
Molport-047-891-759 MCULE-9852795841 PubChem-165933824
 24 25 0 0 0
SMALL
GASTEIGER

@<TRIPOS>ATOM
      1 C          12.3225   40.5277    9.9217 C.ar    1  UNL1        0.0562
      2 C          13.3061   40.9000    8.9988 C.ar    1  UNL1        0.0516
      3 C          14.6417   40.5304    9.1887 C.ar    1  UNL1        0.1398
      4 C          14.9946   39.7776   10.3199 C.ar    1  UNL1        0.0370
      5 C          14.0195   39.4020   11.2467 C.ar    1  UNL1        0.0044
      6 C          12.6880   39.7758   11.0484 C.ar    1  UNL1        0.0150
      7 C          10.4451   42.2651    9.7410 C.2     1  UNL1        0.4057
      8 O          11.1892   43.2389   10.0400 O.2     1  UNL1       -0.2261
      9 N          10.9667   40.9314    9.6848 N.am    1  UNL1       -0.2498
     10 H          10.3273   40.2174    9.4599 H       1  UNL1        0.1582
     11 O           9.0913   42.4706    9.4654 O.3     1  UNL1       -0.4295
     12 C           8.6197   42.8481    8.1764 C.3     1  UNL1        0.2367
     13 C           7.1927   39.4329    6.0090 C.ar    1  UNL1       -0.0000
     14 C           6.3080   40.1892    6.7843 C.ar    1  UNL1       -0.0002
     15 C           6.7746   41.3000    7.4939 C.ar    1  UNL1       -0.0007
     16 C           8.1265   41.6545    7.4309 C.ar    1  UNL1        0.0213
     17 C           9.0103   40.8986    6.6523 C.ar    1  UNL1       -0.0007
     18 C           8.5436   39.7878    5.9426 C.ar    1  UNL1       -0.0002
     19 O          15.5927   40.9218    8.2428 O.3     1  UNL1       -0.4754
     20 C          15.9029   42.2855    7.9847 C.3     1  UNL1        0.2065
     21 C          17.2366   42.6438    8.6205 C.3     1  UNL1        0.0635
     22 C          17.8269   43.8968    7.9917 C.3     1  UNL1        0.1092
     23 C          17.2723   44.1101    6.6511 C.1     1  UNL1        0.0733
     24 N          16.8340   44.2783    5.5935 N.1     1  UNL1       -0.1959
@<TRIPOS>BOND
     1    14    15   ar
     2    16    17   ar
     3    18    13   ar
     4    12    16    1
     5    12    11    1
     6     7    11    1
     7     7     9   am
     8     2     3   ar
     9     3    19    1
    10     4     5   ar
    11     6     1   ar
    12    20    19    1
    13    20    21    1
    14    21    22    1
    15    22    23    1
    16     9     1    1
    17    13    14   ar
    18    15    16   ar
    19    17    18   ar
    20     7     8    2
    21     1     2   ar
    22     3     4   ar
    23     5     6   ar
    24    23    24    3
    25     9    10    1
@<TRIPOS>MOLECULE
Molport-047-891-759 MCULE-9852795841 PubChem-165933824
 24 25 0 0 0
SMALL
GASTEIGER

@<TRIPOS>ATOM
      1 C           5.8844   41.4947   10.3771 C.ar    1  UNL1        0.0562
      2 C           5.2715   42.5056    9.6287 C.ar    1  UNL1        0.0516
      3 C           3.9195   42.8129    9.8138 C.ar    1  UNL1        0.1398
      4 C           3.1731   42.0960   10.7623 C.ar    1  UNL1        0.0370
      5 C           3.7765   41.0849   11.5136 C.ar    1  UNL1        0.0044
      6 C           5.1275   40.7851   11.3216 C.ar    1  UNL1        0.0150
      7 C           7.8860   40.8618    8.9044 C.2     1  UNL1        0.4057
      8 O           7.1974   40.7486    7.8536 O.2     1  UNL1       -0.2261
      9 N           7.2728   41.2147   10.1507 N.am    1  UNL1       -0.2498
     10 H           7.8669   41.2708   10.9337 H       1  UNL1        0.1582
     11 O           9.2641   40.6367    8.8721 O.3     1  UNL1       -0.4295
     12 C          10.1264   41.0030    9.9439 C.3     1  UNL1        0.2367
     13 C          13.1567   38.0246   10.5306 C.ar    1  UNL1       -0.0000
     14 C          13.2931   39.2865   11.1176 C.ar    1  UNL1       -0.0002
     15 C          12.3069   40.2584   10.9226 C.ar    1  UNL1       -0.0007
     16 C          11.1845   39.9703   10.1387 C.ar    1  UNL1        0.0213
     17 C          11.0476   38.7061    9.5542 C.ar    1  UNL1       -0.0007
     18 C          12.0338   37.7342    9.7494 C.ar    1  UNL1       -0.0002
     19 O           3.3461   43.8302    9.0466 O.3     1  UNL1       -0.4754
     20 C           3.8765   44.2369    7.7912 C.3     1  UNL1        0.2065
     21 C           5.0956   45.1200    8.0043 C.3     1  UNL1        0.0635
     22 C           6.3404   44.4966    7.3914 C.3     1  UNL1        0.1092
     23 C           7.4217   44.4281    8.3796 C.1     1  UNL1        0.0733
     24 N           8.2747   44.3733    9.1596 N.1     1  UNL1       -0.1959
@<TRIPOS>BOND
     1    14    15   ar
     2    16    17   ar
     3    18    13   ar
     4    12    16    1
     5    12    11    1
     6     7    11    1
     7     7     9   am
     8     2     3   ar
     9     3    19    1
    10     4     5   ar
    11     6     1   ar
    12    20    19    1
    13    20    21    1
    14    21    22    1
    15    22    23    1
    16     9     1    1
    17    13    14   ar
    18    15    16   ar
    19    17    18   ar
    20     7     8    2
    21     1     2   ar
    22     3     4   ar
    23     5     6   ar
    24    23    24    3
    25     9    10    1
@<TRIPOS>MOLECULE
Molport-047-891-759 MCULE-9852795841 PubChem-165933824
 24 25 0 0 0
SMALL
GASTEIGER

@<TRIPOS>ATOM
      1 C          10.1047   40.4335    7.7660 C.ar    1  UNL1        0.0562
      2 C          10.8659   41.2953    6.9688 C.ar    1  UNL1        0.0516
      3 C          12.2635   41.2431    6.9916 C.ar    1  UNL1        0.1398
      4 C          12.9053   40.3140    7.8256 C.ar    1  UNL1        0.0370
      5 C          12.1534   39.4501    8.6252 C.ar    1  UNL1        0.0044
      6 C          10.7579   39.5097    8.5957 C.ar    1  UNL1        0.0150
      7 C           7.8681   41.6364    8.1215 C.2     1  UNL1        0.4057
      8 O           8.3955   42.6727    8.6108 O.2     1  UNL1       -0.2261
      9 N           8.6744   40.5255    7.7097 N.am    1  UNL1       -0.2498
     10 H           8.1964   39.7434    7.3505 H       1  UNL1        0.1582
     11 O           6.4813   41.5512    7.9787 O.3     1  UNL1       -0.4295
     12 C           5.5985   42.5665    8.4439 C.3     1  UNL1        0.2367
     13 C           3.3279   41.1464   11.7943 C.ar    1  UNL1       -0.0000
     14 C           2.7948   42.1287   10.9537 C.ar    1  UNL1       -0.0002
     15 C           3.5372   42.5943    9.8641 C.ar    1  UNL1       -0.0007
     16 C           4.8141   42.0797    9.6150 C.ar    1  UNL1        0.0213
     17 C           5.3453   41.0945   10.4552 C.ar    1  UNL1       -0.0007
     18 C           4.6028   40.6290   11.5448 C.ar    1  UNL1       -0.0002
     19 O          12.9863   42.1207    6.1793 O.3     1  UNL1       -0.4754
     20 C          14.1682   42.7776    6.6200 C.3     1  UNL1        0.2065
     21 C          14.7605   43.5972    5.4847 C.3     1  UNL1        0.0635
     22 C          15.5215   44.8027    6.0153 C.3     1  UNL1        0.1092
     23 C          16.7399   44.3766    6.7112 C.1     1  UNL1        0.0733
     24 N          17.7010   44.0399    7.2607 N.1     1  UNL1       -0.1959
@<TRIPOS>BOND
     1    14    15   ar
     2    16    17   ar
     3    18    13   ar
     4    12    16    1
     5    12    11    1
     6     7    11    1
     7     7     9   am
     8     2     3   ar
     9     3    19    1
    10     4     5   ar
    11     6     1   ar
    12    20    19    1
    13    20    21    1
    14    21    22    1
    15    22    23    1
    16     9     1    1
    17    13    14   ar
    18    15    16   ar
    19    17    18   ar
    20     7     8    2
    21     1     2   ar
    22     3     4   ar
    23     5     6   ar
    24    23    24    3
    25     9    10    1
@<TRIPOS>MOLECULE
Molport-047-891-759 MCULE-9852795841 PubChem-165933824
 24 25 0 0 0
SMALL
GASTEIGER

@<TRIPOS>ATOM
      1 C          10.9191   40.3115    6.1124 C.ar    1  UNL1        0.0562
      2 C           9.6574   39.9356    6.5865 C.ar    1  UNL1        0.0516
      3 C           8.7105   39.3680    5.7276 C.ar    1  UNL1        0.1398
      4 C           9.0342   39.1755    4.3752 C.ar    1  UNL1        0.0370
      5 C          10.2910   39.5484    3.8931 C.ar    1  UNL1        0.0044
      6 C          11.2302   40.1145    4.7586 C.ar    1  UNL1        0.0150
      7 C          12.7256   40.1893    7.9282 C.2     1  UNL1        0.4057
      8 O          12.7134   38.9293    7.9883 O.2     1  UNL1       -0.2261
      9 N          11.8561   40.8910    7.0309 N.am    1  UNL1       -0.2498
     10 H          11.9072   41.8741    7.0465 H       1  UNL1        0.1582
     11 O          13.5866   40.9259    8.7450 O.3     1  UNL1       -0.4295
     12 C          14.9852   40.6696    8.8135 C.3     1  UNL1        0.2367
     13 C          17.2121   43.9665    7.2106 C.ar    1  UNL1       -0.0000
     14 C          17.7722   43.1633    8.2090 C.ar    1  UNL1       -0.0002
     15 C          17.0442   42.0912    8.7341 C.ar    1  UNL1       -0.0007
     16 C          15.7546   41.8224    8.2630 C.ar    1  UNL1        0.0213
     17 C          15.1962   42.6250    7.2617 C.ar    1  UNL1       -0.0007
     18 C          15.9244   43.6971    6.7367 C.ar    1  UNL1       -0.0002
     19 O           7.4628   39.0056    6.2414 O.3     1  UNL1       -0.4754
     20 C           6.4415   39.9556    6.5191 C.3     1  UNL1        0.2065
     21 C           6.7289   40.6563    7.8374 C.3     1  UNL1        0.0635
     22 C           5.4469   41.1574    8.4850 C.3     1  UNL1        0.1092
     23 C           5.6287   41.3156    9.9315 C.1     1  UNL1        0.0733
     24 N           5.7729   41.4405   11.0728 N.1     1  UNL1       -0.1959
@<TRIPOS>BOND
     1    14    15   ar
     2    16    17   ar
     3    18    13   ar
     4    12    16    1
     5    12    11    1
     6     7    11    1
     7     7     9   am
     8     2     3   ar
     9     3    19    1
    10     4     5   ar
    11     6     1   ar
    12    20    19    1
    13    20    21    1
    14    21    22    1
    15    22    23    1
    16     9     1    1
    17    13    14   ar
    18    15    16   ar
    19    17    18   ar
    20     7     8    2
    21     1     2   ar
    22     3     4   ar
    23     5     6   ar
    24    23    24    3
    25     9    10    1
