@<TRIPOS>MOLECULE
Molport-020-298-634 CHEMBL3498421 CHEMBL3553604 MCULE-3322794214 MCULE-6979039994 PubChem-110269785 PubChem-118742117
 26 28 0 0 0
SMALL
GASTEIGER

@<TRIPOS>ATOM
      1 N          13.5447   42.9341    6.2818 N.ar    1  UNL1       -0.2120
      2 N          12.7267   41.0886    7.4883 N.ar    1  UNL1       -0.2179
      3 C          13.9170   40.9473    8.1289 C.ar    1  UNL1        0.0647
      4 C          14.9656   41.8278    7.8411 C.ar    1  UNL1        0.0356
      5 C          14.7505   42.8297    6.8977 C.ar    1  UNL1        0.1031
      6 C          12.5318   42.0716    6.5698 C.ar    1  UNL1        0.2215
      7 N          15.5066   38.9485   10.9042 N.am    1  UNL1       -0.2780
      8 C          16.6967   38.1601   11.0638 C.2     1  UNL1        0.2415
      9 C          14.4072   38.8248   11.8589 C.3     1  UNL1        0.0935
     10 C          13.0863   38.6776   11.1093 C.3     1  UNL1        0.0219
     11 C          12.9143   39.8257   10.1191 C.3     1  UNL1        0.0094
     12 C          14.0813   39.8489    9.1304 C.3     1  UNL1        0.0603
     13 C          15.4126   39.9780    9.8710 C.3     1  UNL1        0.0993
     14 O          16.7479   37.2670   11.9511 O.2     1  UNL1       -0.2734
     15 N          18.8448   39.2340   10.8229 N.3     1  UNL1       -0.3135
     16 C          17.8841   38.3562   10.1781 C.3     1  UNL1        0.1517
     17 H          19.6515   39.3624   10.2121 H       1  UNL1        0.1193
     18 H          19.1479   38.8179   11.7035 H       1  UNL1        0.1193
     19 N          11.2590   42.1794    5.9214 N.pl3   1  UNL1       -0.2667
     20 H          10.8529   43.0755    5.8850 H       1  UNL1        0.1565
     21 N           8.4819   39.8942    5.1174 N.ar    1  UNL1       -0.2378
     22 N          11.0874   40.2809    4.4011 N.ar    1  UNL1       -0.2258
     23 C          10.5198   41.1092    5.3207 C.ar    1  UNL1        0.1537
     24 C           9.1867   40.9085    5.6849 C.ar    1  UNL1        0.1332
     25 C           9.0511   39.0689    4.1996 C.ar    1  UNL1        0.1196
     26 C          10.3832   39.2665    3.8334 C.ar    1  UNL1        0.1210
@<TRIPOS>BOND
     1    19    23    1
     2    16    15    1
     3    16     8    1
     4     8     7   am
     5     9     7    1
     6     9    10    1
     7    10    11    1
     8    11    12    1
     9    12    13    1
    10    12     3    1
    11    13     7    1
    12     3     2   ar
    13     4     5   ar
    14     6     1   ar
    15     6    19    1
    16    23    22   ar
    17    24    21   ar
    18    25    26   ar
    19     8    14    2
    20     3     4   ar
    21     5     1   ar
    22     6     2   ar
    23    23    24   ar
    24    25    21   ar
    25    26    22   ar
    26    15    17    1
    27    15    18    1
    28    19    20    1
@<TRIPOS>MOLECULE
Molport-020-298-634 CHEMBL3498421 CHEMBL3553604 MCULE-3322794214 MCULE-6979039994 PubChem-110269785 PubChem-118742117
 26 28 0 0 0
SMALL
GASTEIGER

@<TRIPOS>ATOM
      1 N          13.6896   40.5310    8.9099 N.ar    1  UNL1       -0.2120
      2 N          11.7311   41.7944    8.5962 N.ar    1  UNL1       -0.2179
      3 C          11.2537   41.4024    9.8069 C.ar    1  UNL1        0.0647
      4 C          12.0162   40.5427   10.6051 C.ar    1  UNL1        0.0356
      5 C          13.2518   40.1140   10.1259 C.ar    1  UNL1        0.1031
      6 C          12.9390   41.3675    8.1420 C.ar    1  UNL1        0.2215
      7 N           7.5163   41.9088    9.7925 N.am    1  UNL1       -0.2780
      8 C           6.5637   42.5762    8.9497 C.2     1  UNL1        0.2415
      9 C           7.1507   41.5177   11.1522 C.3     1  UNL1        0.0935
     10 C           8.2448   41.9473   12.1251 C.3     1  UNL1        0.0219
     11 C           9.5951   41.4010   11.6705 C.3     1  UNL1        0.0094
     12 C           9.9182   41.8993   10.2609 C.3     1  UNL1        0.0603
     13 C           8.8194   41.4904    9.2796 C.3     1  UNL1        0.0993
     14 O           5.4531   42.9421    9.4191 O.2     1  UNL1       -0.2734
     15 N           5.7673   43.6114    6.9200 N.3     1  UNL1       -0.3135
     16 C           6.8671   42.8746    7.5174 C.3     1  UNL1        0.1517
     17 H           5.9825   43.8107    5.9431 H       1  UNL1        0.1193
     18 H           5.6317   44.4877    7.4240 H       1  UNL1        0.1193
     19 N          13.3986   41.8088    6.8589 N.pl3   1  UNL1       -0.2667
     20 H          13.0363   41.3412    6.0719 H       1  UNL1        0.1565
     21 N          14.9362   44.8171    5.3871 N.ar    1  UNL1       -0.2378
     22 N          15.4967   42.9652    7.3125 N.ar    1  UNL1       -0.2258
     23 C          14.3345   42.8646    6.6104 C.ar    1  UNL1        0.1537
     24 C          14.0509   43.8138    5.6261 C.ar    1  UNL1        0.1332
     25 C          16.0956   44.9150    6.0896 C.ar    1  UNL1        0.1196
     26 C          16.3823   43.9681    7.0739 C.ar    1  UNL1        0.1210
@<TRIPOS>BOND
     1    19    23    1
     2    16    15    1
     3    16     8    1
     4     8     7   am
     5     9     7    1
     6     9    10    1
     7    10    11    1
     8    11    12    1
     9    12    13    1
    10    12     3    1
    11    13     7    1
    12     3     2   ar
    13     4     5   ar
    14     6     1   ar
    15     6    19    1
    16    23    22   ar
    17    24    21   ar
    18    25    26   ar
    19     8    14    2
    20     3     4   ar
    21     5     1   ar
    22     6     2   ar
    23    23    24   ar
    24    25    21   ar
    25    26    22   ar
    26    15    17    1
    27    15    18    1
    28    19    20    1
@<TRIPOS>MOLECULE
Molport-020-298-634 CHEMBL3498421 CHEMBL3553604 MCULE-3322794214 MCULE-6979039994 PubChem-110269785 PubChem-118742117
 26 28 0 0 0
SMALL
GASTEIGER

@<TRIPOS>ATOM
      1 N          17.3310   40.4717    9.6756 N.ar    1  UNL1       -0.2120
      2 N          15.1991   41.0481    8.8675 N.ar    1  UNL1       -0.2179
      3 C          14.6337   40.0177    9.5500 C.ar    1  UNL1        0.0647
      4 C          15.4398   39.1781   10.3265 C.ar    1  UNL1        0.0356
      5 C          16.8087   39.4305   10.3737 C.ar    1  UNL1        0.1031
      6 C          16.5370   41.2819    8.9234 C.ar    1  UNL1        0.2215
      7 N          11.2470   39.6415    7.9333 N.am    1  UNL1       -0.2780
      8 C          10.3422   40.4924    7.2119 C.2     1  UNL1        0.2415
      9 C          10.7780   38.3783    8.4990 C.3     1  UNL1        0.0935
     10 C          11.2490   38.2535    9.9449 C.3     1  UNL1        0.0219
     11 C          12.7619   38.4372   10.0216 C.3     1  UNL1        0.0094
     12 C          13.1569   39.8020    9.4549 C.3     1  UNL1        0.0603
     13 C          12.6743   39.9464    8.0113 C.3     1  UNL1        0.0993
     14 O           9.1131   40.2177    7.1726 O.2     1  UNL1       -0.2734
     15 N           9.9605   42.0237    5.3857 N.3     1  UNL1       -0.3135
     16 C          10.8212   41.7254    6.5169 C.3     1  UNL1        0.1517
     17 H          10.2944   42.8661    4.9173 H       1  UNL1        0.1193
     18 H           9.0065   42.1729    5.7144 H       1  UNL1        0.1193
     19 N          17.0855   42.3808    8.1860 N.pl3   1  UNL1       -0.2667
     20 H          18.0494   42.5508    8.2923 H       1  UNL1        0.1565
     21 N          16.3378   45.2018    5.9357 N.ar    1  UNL1       -0.2378
     22 N          15.0632   43.0295    6.9882 N.ar    1  UNL1       -0.2258
     23 C          16.3670   43.2563    7.3087 C.ar    1  UNL1        0.1537
     24 C          17.0160   44.3686    6.7685 C.ar    1  UNL1        0.1332
     25 C          15.0364   44.9728    5.6176 C.ar    1  UNL1        0.1196
     26 C          14.3847   43.8623    6.1557 C.ar    1  UNL1        0.1210
@<TRIPOS>BOND
     1    19    23    1
     2    16    15    1
     3    16     8    1
     4     8     7   am
     5     9     7    1
     6     9    10    1
     7    10    11    1
     8    11    12    1
     9    12    13    1
    10    12     3    1
    11    13     7    1
    12     3     2   ar
    13     4     5   ar
    14     6     1   ar
    15     6    19    1
    16    23    22   ar
    17    24    21   ar
    18    25    26   ar
    19     8    14    2
    20     3     4   ar
    21     5     1   ar
    22     6     2   ar
    23    23    24   ar
    24    25    21   ar
    25    26    22   ar
    26    15    17    1
    27    15    18    1
    28    19    20    1
@<TRIPOS>MOLECULE
Molport-020-298-634 CHEMBL3498421 CHEMBL3553604 MCULE-3322794214 MCULE-6979039994 PubChem-110269785 PubChem-118742117
 26 28 0 0 0
SMALL
GASTEIGER

@<TRIPOS>ATOM
      1 N          17.4780   40.4466    9.5750 N.ar    1  UNL1       -0.2120
      2 N          15.2718   41.0386    9.0156 N.ar    1  UNL1       -0.2179
      3 C          14.7819   39.9982    9.7399 C.ar    1  UNL1        0.0647
      4 C          15.6659   39.1452   10.4097 C.ar    1  UNL1        0.0356
      5 C          17.0326   39.3951   10.3098 C.ar    1  UNL1        0.1031
      6 C          16.6085   41.2697    8.9276 C.ar    1  UNL1        0.2215
      7 N          11.1184   40.6759    9.1533 N.am    1  UNL1       -0.2780
      8 C          10.1682   41.6696    9.5693 C.2     1  UNL1        0.2415
      9 C          10.6598   39.4068    8.5924 C.3     1  UNL1        0.0935
     10 C          11.3999   38.2505    9.2580 C.3     1  UNL1        0.0219
     11 C          12.9073   38.4611    9.1504 C.3     1  UNL1        0.0094
     12 C          13.3029   39.7859    9.8046 C.3     1  UNL1        0.0603
     13 C          12.5537   40.9513    9.1579 C.3     1  UNL1        0.0993
     14 O           8.9367   41.4031    9.5723 O.2     1  UNL1       -0.2734
     15 N           9.6967   43.5223   11.0425 N.3     1  UNL1       -0.3135
     16 C          10.6076   43.0221   10.0281 C.3     1  UNL1        0.1517
     17 H          10.0037   44.4452   11.3499 H       1  UNL1        0.1193
     18 H           9.6898   42.8839   11.8380 H       1  UNL1        0.1193
     19 N          17.0759   42.3795    8.1516 N.pl3   1  UNL1       -0.2667
     20 H          18.0300   42.6083    8.2325 H       1  UNL1        0.1565
     21 N          16.0539   45.1815    5.9870 N.ar    1  UNL1       -0.2378
     22 N          15.0543   42.7935    6.8527 N.ar    1  UNL1       -0.2258
     23 C          16.2890   43.1886    7.2691 C.ar    1  UNL1        0.1537
     24 C          16.7973   44.4109    6.8243 C.ar    1  UNL1        0.1332
     25 C          14.8217   44.7846    5.5730 C.ar    1  UNL1        0.1196
     26 C          14.3106   43.5638    6.0156 C.ar    1  UNL1        0.1210
@<TRIPOS>BOND
     1    19    23    1
     2    16    15    1
     3    16     8    1
     4     8     7   am
     5     9     7    1
     6     9    10    1
     7    10    11    1
     8    11    12    1
     9    12    13    1
    10    12     3    1
    11    13     7    1
    12     3     2   ar
    13     4     5   ar
    14     6     1   ar
    15     6    19    1
    16    23    22   ar
    17    24    21   ar
    18    25    26   ar
    19     8    14    2
    20     3     4   ar
    21     5     1   ar
    22     6     2   ar
    23    23    24   ar
    24    25    21   ar
    25    26    22   ar
    26    15    17    1
    27    15    18    1
    28    19    20    1
@<TRIPOS>MOLECULE
Molport-020-298-634 CHEMBL3498421 CHEMBL3553604 MCULE-3322794214 MCULE-6979039994 PubChem-110269785 PubChem-118742117
 26 28 0 0 0
SMALL
GASTEIGER

@<TRIPOS>ATOM
      1 N          17.5980   40.6638    9.6576 N.ar    1  UNL1       -0.2120
      2 N          15.4887   40.9080    8.6468 N.ar    1  UNL1       -0.2179
      3 C          15.0537   39.7532    9.2162 C.ar    1  UNL1        0.0647
      4 C          15.9166   39.0200   10.0383 C.ar    1  UNL1        0.0356
      5 C          17.2056   39.5049   10.2467 C.ar    1  UNL1        0.1031
      6 C          16.7498   41.3685    8.8597 C.ar    1  UNL1        0.2215
      7 N          11.6873   38.2015    9.9121 N.am    1  UNL1       -0.2780
      8 C          11.1937   36.8858   10.2099 C.2     1  UNL1        0.2415
      9 C          10.7711   39.2490    9.4666 C.3     1  UNL1        0.0935
     10 C          11.3477   39.9530    8.2418 C.3     1  UNL1        0.0219
     11 C          12.7571   40.4554    8.5406 C.3     1  UNL1        0.0094
     12 C          13.6574   39.2885    8.9500 C.3     1  UNL1        0.0603
     13 C          13.0804   38.5635   10.1661 C.3     1  UNL1        0.0993
     14 O           9.9928   36.5922    9.9667 O.2     1  UNL1       -0.2734
     15 N          11.2859   34.8142   11.4450 N.3     1  UNL1       -0.3135
     16 C          12.0840   35.8330   10.7859 C.3     1  UNL1        0.1517
     17 H          11.9009   34.1001   11.8351 H       1  UNL1        0.1193
     18 H          10.6544   34.3862   10.7679 H       1  UNL1        0.1193
     19 N          17.1615   42.5912    8.2369 N.pl3   1  UNL1       -0.2667
     20 H          18.0667   42.9152    8.4484 H       1  UNL1        0.1565
     21 N          16.2491   45.2216    5.8224 N.ar    1  UNL1       -0.2378
     22 N          15.0678   43.1216    7.1053 N.ar    1  UNL1       -0.2258
     23 C          16.3830   43.3880    7.3360 C.ar    1  UNL1        0.1537
     24 C          16.9843   44.4631    6.6780 C.ar    1  UNL1        0.1332
     25 C          14.9364   44.9533    5.5941 C.ar    1  UNL1        0.1196
     26 C          14.3324   43.8798    6.2500 C.ar    1  UNL1        0.1210
@<TRIPOS>BOND
     1    19    23    1
     2    16    15    1
     3    16     8    1
     4     8     7   am
     5     9     7    1
     6     9    10    1
     7    10    11    1
     8    11    12    1
     9    12    13    1
    10    12     3    1
    11    13     7    1
    12     3     2   ar
    13     4     5   ar
    14     6     1   ar
    15     6    19    1
    16    23    22   ar
    17    24    21   ar
    18    25    26   ar
    19     8    14    2
    20     3     4   ar
    21     5     1   ar
    22     6     2   ar
    23    23    24   ar
    24    25    21   ar
    25    26    22   ar
    26    15    17    1
    27    15    18    1
    28    19    20    1
@<TRIPOS>MOLECULE
Molport-020-298-634 CHEMBL3498421 CHEMBL3553604 MCULE-3322794214 MCULE-6979039994 PubChem-110269785 PubChem-118742117
 26 28 0 0 0
SMALL
GASTEIGER

@<TRIPOS>ATOM
      1 N          12.0747   41.1464    8.4616 N.ar    1  UNL1       -0.2120
      2 N          10.2062   42.0190    7.3311 N.ar    1  UNL1       -0.2179
      3 C           9.3928   41.6911    8.3694 C.ar    1  UNL1        0.0647
      4 C           9.9322   41.0672    9.4997 C.ar    1  UNL1        0.0356
      5 C          11.2992   40.8012    9.5216 C.ar    1  UNL1        0.1031
      6 C          11.5388   41.7529    7.3672 C.ar    1  UNL1        0.2215
      7 N           5.9312   42.6125    9.5497 N.am    1  UNL1       -0.2780
      8 C           4.9139   41.9996   10.3576 C.2     1  UNL1        0.2415
      9 C           5.6013   43.7376    8.6774 C.3     1  UNL1        0.0935
     10 C           6.1880   43.5036    7.2884 C.3     1  UNL1        0.0219
     11 C           7.6844   43.2237    7.3913 C.3     1  UNL1        0.0094
     12 C           7.9331   42.0042    8.2805 C.3     1  UNL1        0.0603
     13 C           7.3337   42.2193    9.6705 C.3     1  UNL1        0.0993
     14 O           3.7092   42.3437   10.2237 O.2     1  UNL1       -0.2734
     15 N           4.1901   39.9364   11.3795 N.3     1  UNL1       -0.3135
     16 C           5.2462   40.9328   11.3496 C.3     1  UNL1        0.1517
     17 H           4.4248   39.2124   12.0587 H       1  UNL1        0.1193
     18 H           4.0925   39.5165   10.4551 H       1  UNL1        0.1193
     19 N          12.3546   42.1179    6.2476 N.pl3   1  UNL1       -0.2667
     20 H          12.0679   41.7927    5.3637 H       1  UNL1        0.1565
     21 N          15.8048   43.1704    7.0019 N.ar    1  UNL1       -0.2378
     22 N          13.6116   44.1319    5.6917 N.ar    1  UNL1       -0.2258
     23 C          13.5473   42.9104    6.2900 C.ar    1  UNL1        0.1537
     24 C          14.6712   42.4215    6.9594 C.ar    1  UNL1        0.1332
     25 C          15.8661   44.3893    6.4039 C.ar    1  UNL1        0.1196
     26 C          14.7448   44.8810    5.7341 C.ar    1  UNL1        0.1210
@<TRIPOS>BOND
     1    19    23    1
     2    16    15    1
     3    16     8    1
     4     8     7   am
     5     9     7    1
     6     9    10    1
     7    10    11    1
     8    11    12    1
     9    12    13    1
    10    12     3    1
    11    13     7    1
    12     3     2   ar
    13     4     5   ar
    14     6     1   ar
    15     6    19    1
    16    23    22   ar
    17    24    21   ar
    18    25    26   ar
    19     8    14    2
    20     3     4   ar
    21     5     1   ar
    22     6     2   ar
    23    23    24   ar
    24    25    21   ar
    25    26    22   ar
    26    15    17    1
    27    15    18    1
    28    19    20    1
@<TRIPOS>MOLECULE
Molport-020-298-634 CHEMBL3498421 CHEMBL3553604 MCULE-3322794214 MCULE-6979039994 PubChem-110269785 PubChem-118742117
 26 28 0 0 0
SMALL
GASTEIGER

@<TRIPOS>ATOM
      1 N          12.6277   42.3460    6.1559 N.ar    1  UNL1       -0.2120
      2 N          12.9013   40.8084    7.9142 N.ar    1  UNL1       -0.2179
      3 C          14.1694   41.2456    8.1332 C.ar    1  UNL1        0.0647
      4 C          14.6941   42.2707    7.3384 C.ar    1  UNL1        0.0356
      5 C          13.8894   42.8135    6.3395 C.ar    1  UNL1        0.1031
      6 C          12.1280   41.3482    6.9352 C.ar    1  UNL1        0.2215
      7 N          15.5922   38.5126   10.3083 N.am    1  UNL1       -0.2780
      8 C          15.0785   37.5869   11.2791 C.2     1  UNL1        0.2415
      9 C          17.0275   38.7756   10.2282 C.3     1  UNL1        0.0935
     10 C          17.2745   40.2801   10.1706 C.3     1  UNL1        0.0219
     11 C          16.4713   40.9004    9.0311 C.3     1  UNL1        0.0094
     12 C          14.9801   40.6184    9.2222 C.3     1  UNL1        0.0603
     13 C          14.7219   39.1134    9.2995 C.3     1  UNL1        0.0993
     14 O          15.8452   37.0946   12.1494 O.2     1  UNL1       -0.2734
     15 N          13.4955   35.7758   11.0798 N.3     1  UNL1       -0.3135
     16 C          13.6341   37.2045   11.3009 C.3     1  UNL1        0.1517
     17 H          12.5073   35.5236   11.0962 H       1  UNL1        0.1193
     18 H          13.9881   35.2686   11.8150 H       1  UNL1        0.1193
     19 N          10.7974   40.8531    6.7434 N.pl3   1  UNL1       -0.2667
     20 H          10.1470   41.0370    7.4592 H       1  UNL1        0.1565
     21 N           8.4929   39.2279    4.3709 N.ar    1  UNL1       -0.2378
     22 N          11.1789   39.5952    4.6898 N.ar    1  UNL1       -0.2258
     23 C          10.3218   40.1163    5.6105 C.ar    1  UNL1        0.1537
     24 C           8.9483   39.9265    5.4444 C.ar    1  UNL1        0.1332
     25 C           9.3509   38.7089    3.4534 C.ar    1  UNL1        0.1196
     26 C          10.7241   38.8966    3.6164 C.ar    1  UNL1        0.1210
@<TRIPOS>BOND
     1    19    23    1
     2    16    15    1
     3    16     8    1
     4     8     7   am
     5     9     7    1
     6     9    10    1
     7    10    11    1
     8    11    12    1
     9    12    13    1
    10    12     3    1
    11    13     7    1
    12     3     2   ar
    13     4     5   ar
    14     6     1   ar
    15     6    19    1
    16    23    22   ar
    17    24    21   ar
    18    25    26   ar
    19     8    14    2
    20     3     4   ar
    21     5     1   ar
    22     6     2   ar
    23    23    24   ar
    24    25    21   ar
    25    26    22   ar
    26    15    17    1
    27    15    18    1
    28    19    20    1
@<TRIPOS>MOLECULE
Molport-020-298-634 CHEMBL3498421 CHEMBL3553604 MCULE-3322794214 MCULE-6979039994 PubChem-110269785 PubChem-118742117
 26 28 0 0 0
SMALL
GASTEIGER

@<TRIPOS>ATOM
      1 N          11.1688   41.5971    5.9574 N.ar    1  UNL1       -0.2120
      2 N          10.9336   41.9306    8.2734 N.ar    1  UNL1       -0.2179
      3 C           9.5803   41.9744    8.1555 C.ar    1  UNL1        0.0647
      4 C           8.9910   41.8250    6.8953 C.ar    1  UNL1        0.0356
      5 C           9.8212   41.6344    5.7933 C.ar    1  UNL1        0.1031
      6 C          11.7308   41.7437    7.1884 C.ar    1  UNL1        0.2215
      7 N           6.6677   41.5767   10.5185 N.am    1  UNL1       -0.2780
      8 C           5.2711   41.9122   10.5083 C.2     1  UNL1        0.2415
      9 C           7.3375   41.2474   11.7749 C.3     1  UNL1        0.0935
     10 C           8.6500   42.0186   11.8781 C.3     1  UNL1        0.0219
     11 C           9.5059   41.7654   10.6405 C.3     1  UNL1        0.0094
     12 C           8.7472   42.1833    9.3798 C.3     1  UNL1        0.0603
     13 C           7.4208   41.4301    9.2745 C.3     1  UNL1        0.0993
     14 O           4.6470   42.0493   11.5943 O.2     1  UNL1       -0.2734
     15 N           3.6403   41.0128    8.9731 N.3     1  UNL1       -0.3135
     16 C           4.5328   42.1299    9.2276 C.3     1  UNL1        0.1517
     17 H           3.1407   41.1694    8.0977 H       1  UNL1        0.1193
     18 H           2.9698   40.9322    9.7375 H       1  UNL1        0.1193
     19 N          13.1520   41.7050    7.3641 N.pl3   1  UNL1       -0.2667
     20 H          13.5238   40.9083    7.8071 H       1  UNL1        0.1565
     21 N          16.3079   43.5667    6.9697 N.ar    1  UNL1       -0.2378
     22 N          13.6993   43.7722    6.1924 N.ar    1  UNL1       -0.2258
     23 C          14.0846   42.7138    6.9575 C.ar    1  UNL1        0.1537
     24 C          15.4199   42.6117    7.3534 C.ar    1  UNL1        0.1332
     25 C          15.9204   44.6222    6.2060 C.ar    1  UNL1        0.1196
     26 C          14.5867   44.7273    5.8087 C.ar    1  UNL1        0.1210
@<TRIPOS>BOND
     1    19    23    1
     2    16    15    1
     3    16     8    1
     4     8     7   am
     5     9     7    1
     6     9    10    1
     7    10    11    1
     8    11    12    1
     9    12    13    1
    10    12     3    1
    11    13     7    1
    12     3     2   ar
    13     4     5   ar
    14     6     1   ar
    15     6    19    1
    16    23    22   ar
    17    24    21   ar
    18    25    26   ar
    19     8    14    2
    20     3     4   ar
    21     5     1   ar
    22     6     2   ar
    23    23    24   ar
    24    25    21   ar
    25    26    22   ar
    26    15    17    1
    27    15    18    1
    28    19    20    1
@<TRIPOS>MOLECULE
Molport-020-298-634 CHEMBL3498421 CHEMBL3553604 MCULE-3322794214 MCULE-6979039994 PubChem-110269785 PubChem-118742117
 26 28 0 0 0
SMALL
GASTEIGER

@<TRIPOS>ATOM
      1 N          11.9300   40.8423    5.5508 N.ar    1  UNL1       -0.2120
      2 N          10.8315   41.1738    7.6035 N.ar    1  UNL1       -0.2179
      3 C           9.6576   40.7381    7.0749 C.ar    1  UNL1        0.0647
      4 C           9.6093   40.3379    5.7351 C.ar    1  UNL1        0.0356
      5 C          10.7790   40.4004    4.9815 C.ar    1  UNL1        0.1031
      6 C          11.9650   41.2292    6.8553 C.ar    1  UNL1        0.2215
      7 N           7.3343   41.6636    9.8981 N.am    1  UNL1       -0.2780
      8 C           7.3521   41.5629   11.3309 C.2     1  UNL1        0.2415
      9 C           6.0781   41.9059    9.1919 C.3     1  UNL1        0.0935
     10 C           5.9450   40.9312    8.0255 C.3     1  UNL1        0.0219
     11 C           7.1785   41.0121    7.1310 C.3     1  UNL1        0.0094
     12 C           8.4381   40.6969    7.9396 C.3     1  UNL1        0.0603
     13 C           8.5731   41.6560    9.1226 C.3     1  UNL1        0.0993
     14 O           6.2702   41.5549   11.9766 O.2     1  UNL1       -0.2734
     15 N           8.4593   41.9215   13.4454 N.3     1  UNL1       -0.3135
     16 C           8.6357   41.4414   12.0861 C.3     1  UNL1        0.1517
     17 H           9.3395   41.8351   13.9534 H       1  UNL1        0.1193
     18 H           7.7417   41.3665   13.9116 H       1  UNL1        0.1193
     19 N          13.1778   41.6960    7.4581 N.pl3   1  UNL1       -0.2667
     20 H          13.4472   41.2692    8.3034 H       1  UNL1        0.1565
     21 N          14.3184   44.6830    5.6259 N.ar    1  UNL1       -0.2378
     22 N          15.3603   42.7660    7.2662 N.ar    1  UNL1       -0.2258
     23 C          14.0367   42.7238    6.9498 C.ar    1  UNL1        0.1537
     24 C          13.5069   43.7061    6.1104 C.ar    1  UNL1        0.1332
     25 C          15.6393   44.7226    5.9434 C.ar    1  UNL1        0.1196
     26 C          16.1721   43.7426    6.7819 C.ar    1  UNL1        0.1210
@<TRIPOS>BOND
     1    19    23    1
     2    16    15    1
     3    16     8    1
     4     8     7   am
     5     9     7    1
     6     9    10    1
     7    10    11    1
     8    11    12    1
     9    12    13    1
    10    12     3    1
    11    13     7    1
    12     3     2   ar
    13     4     5   ar
    14     6     1   ar
    15     6    19    1
    16    23    22   ar
    17    24    21   ar
    18    25    26   ar
    19     8    14    2
    20     3     4   ar
    21     5     1   ar
    22     6     2   ar
    23    23    24   ar
    24    25    21   ar
    25    26    22   ar
    26    15    17    1
    27    15    18    1
    28    19    20    1
@<TRIPOS>MOLECULE
Molport-020-298-634 CHEMBL3498421 CHEMBL3553604 MCULE-3322794214 MCULE-6979039994 PubChem-110269785 PubChem-118742117
 26 28 0 0 0
SMALL
GASTEIGER

@<TRIPOS>ATOM
      1 N          15.5134   38.5263    9.2981 N.ar    1  UNL1       -0.2120
      2 N          14.0074   40.3218    9.1011 N.ar    1  UNL1       -0.2179
      3 C          12.9525   39.4659    9.0601 C.ar    1  UNL1        0.0647
      4 C          13.1775   38.0872    9.1403 C.ar    1  UNL1        0.0356
      5 C          14.4894   37.6351    9.2609 C.ar    1  UNL1        0.1031
      6 C          15.2824   39.8654    9.2191 C.ar    1  UNL1        0.2215
      7 N           9.9497   41.6108    9.8392 N.am    1  UNL1       -0.2780
      8 C           9.0102   41.7262   10.9196 C.2     1  UNL1        0.2415
      9 C           9.6507   42.2012    8.5363 C.3     1  UNL1        0.0935
     10 C           9.9336   41.1866    7.4324 C.3     1  UNL1        0.0219
     11 C          11.3607   40.6609    7.5561 C.3     1  UNL1        0.0094
     12 C          11.5689   40.0180    8.9283 C.3     1  UNL1        0.0603
     13 C          11.2709   41.0202   10.0439 C.3     1  UNL1        0.0993
     14 O           7.8710   42.2240   10.7149 O.2     1  UNL1       -0.2734
     15 N           8.4043   41.7965   13.2549 N.3     1  UNL1       -0.3135
     16 C           9.3423   41.2432   12.2941 C.3     1  UNL1        0.1517
     17 H           8.6380   41.4620   14.1897 H       1  UNL1        0.1193
     18 H           7.4579   41.5013   13.0149 H       1  UNL1        0.1193
     19 N          16.3609   40.8076    9.2579 N.pl3   1  UNL1       -0.2667
     20 H          17.0938   40.6189    9.8876 H       1  UNL1        0.1565
     21 N          15.5910   43.4243    6.7799 N.ar    1  UNL1       -0.2378
     22 N          17.5301   42.8475    8.6124 N.ar    1  UNL1       -0.2258
     23 C          16.4759   41.9979    8.4689 C.ar    1  UNL1        0.1537
     24 C          15.4856   42.2960    7.5305 C.ar    1  UNL1        0.1332
     25 C          16.6446   44.2706    6.9253 C.ar    1  UNL1        0.1196
     26 C          17.6360   43.9757    7.8620 C.ar    1  UNL1        0.1210
@<TRIPOS>BOND
     1    19    23    1
     2    16    15    1
     3    16     8    1
     4     8     7   am
     5     9     7    1
     6     9    10    1
     7    10    11    1
     8    11    12    1
     9    12    13    1
    10    12     3    1
    11    13     7    1
    12     3     2   ar
    13     4     5   ar
    14     6     1   ar
    15     6    19    1
    16    23    22   ar
    17    24    21   ar
    18    25    26   ar
    19     8    14    2
    20     3     4   ar
    21     5     1   ar
    22     6     2   ar
    23    23    24   ar
    24    25    21   ar
    25    26    22   ar
    26    15    17    1
    27    15    18    1
    28    19    20    1
