@<TRIPOS>MOLECULE
MolPort-002-455-713 1423179 CSC026731286 CSSS00026731286 MCULE-9058263817 PubChem-1504069 Z57169730 ZINC000001423179 ZINC01423179
 29 30 0 0 0
SMALL
GASTEIGER

@<TRIPOS>ATOM
      1 C          12.5852   41.0115    8.1319 C.2     1  UNL1        0.3093
      2 O          12.2882   42.2107    8.3850 O.2     1  UNL1       -0.2521
      3 N          11.5612   40.0446    7.8804 N.am    1  UNL1       -0.2551
      4 N          13.9518   40.5873    8.1432 N.am    1  UNL1       -0.2655
      5 H          11.8430   39.1144    7.7237 H       1  UNL1        0.1578
      6 H          14.1235   39.6182    8.1642 H       1  UNL1        0.1565
      7 C           8.1026   40.6145    7.0793 C.ar    1  UNL1        0.0857
      8 C           8.1712   40.8535    8.4469 C.ar    1  UNL1        0.0408
      9 C           7.0372   41.2534    9.3268 C.3     1  UNL1        0.0500
     10 C          10.1574   40.3261    7.8392 C.ar    1  UNL1        0.1085
     11 C           9.3879   40.2756    6.6970 C.ar    1  UNL1        0.0153
     12 C           9.8686   39.9248    5.3296 C.3     1  UNL1        0.0342
     13 N           9.4240   40.6787    8.9143 N.ar    1  UNL1       -0.3451
     14 H           9.7363   40.7856    9.8418 H       1  UNL1        0.1668
     15 C           6.9113   40.7034    6.2102 C.2     1  UNL1        0.3421
     16 O           6.1858   39.6879    6.0267 O.2     1  UNL1       -0.2449
     17 O           6.5901   41.9141    5.5928 O.3     1  UNL1       -0.4454
     18 C           6.1584   43.8802    6.8936 C.3     1  UNL1        0.0513
     19 C           7.1519   43.1470    6.0167 C.3     1  UNL1        0.2089
     20 C          15.0915   41.4567    8.1265 C.ar    1  UNL1        0.0890
     21 C          15.0535   42.5802    7.2940 C.ar    1  UNL1        0.0547
     22 C          16.1328   43.4748    7.2418 C.ar    1  UNL1        0.1402
     23 C          17.2525   43.2440    8.0426 C.ar    1  UNL1        0.0401
     24 C          17.2902   42.1427    8.8993 C.ar    1  UNL1        0.0413
     25 C          16.2097   41.2471    8.9622 C.ar    1  UNL1        0.1523
     26 C          14.9444   45.0374    5.7372 C.3     1  UNL1        0.2525
     27 O          16.1175   44.5945    6.4057 O.3     1  UNL1       -0.4714
     28 C          17.4183   39.5398   10.2912 C.3     1  UNL1        0.2525
     29 O          16.2216   40.1770    9.8644 O.3     1  UNL1       -0.4702
@<TRIPOS>BOND
     1    18    19    1
     2    19    17    1
     3    15    17    1
     4    15     7    1
     5     8    13   ar
     6     9     8    1
     7    10     3    1
     8     1     4   am
     9    21    22   ar
    10    22    27    1
    11    26    27    1
    12    23    24   ar
    13    25    29    1
    14    25    20   ar
    15    28    29    1
    16    11     7   ar
    17    12    11    1
    18    13    10   ar
    19     3     1   am
    20     4    20    1
    21    15    16    2
    22     7     8   ar
    23    10    11   ar
    24     1     2    2
    25    20    21   ar
    26    22    23   ar
    27    24    25   ar
    28    13    14    1
    29     3     5    1
    30     4     6    1
@<TRIPOS>MOLECULE
MolPort-002-455-713 1423179 CSC026731286 CSSS00026731286 MCULE-9058263817 PubChem-1504069 Z57169730 ZINC000001423179 ZINC01423179
 29 30 0 0 0
SMALL
GASTEIGER

@<TRIPOS>ATOM
      1 C          11.1899   42.0556    6.6336 C.2     1  UNL1        0.3093
      2 O          11.1865   42.2245    7.8833 O.2     1  UNL1       -0.2521
      3 N          12.4013   42.1865    5.8838 N.am    1  UNL1       -0.2551
      4 N           9.9700   41.7808    5.9380 N.am    1  UNL1       -0.2655
      5 H          12.3447   42.0809    4.9066 H       1  UNL1        0.1578
      6 H           9.9772   41.8779    4.9583 H       1  UNL1        0.1565
      7 C          15.5084   42.2915    7.6903 C.ar    1  UNL1        0.0857
      8 C          15.5765   43.3942    6.8467 C.ar    1  UNL1        0.0408
      9 C          16.7045   44.3634    6.7572 C.3     1  UNL1        0.0500
     10 C          13.6902   42.4594    6.4458 C.ar    1  UNL1        0.1085
     11 C          14.2887   41.6959    7.4246 C.ar    1  UNL1        0.0153
     12 C          13.7144   40.4742    8.0586 C.3     1  UNL1        0.0342
     13 N          14.4682   43.5001    6.0857 N.ar    1  UNL1       -0.3451
     14 H          14.2698   44.1896    5.4115 H       1  UNL1        0.1668
     15 C          16.5211   41.8446    8.6686 C.2     1  UNL1        0.3421
     16 O          17.2469   42.6912    9.2582 O.2     1  UNL1       -0.2449
     17 O          16.6726   40.4830    8.9394 O.3     1  UNL1       -0.4454
     18 C          16.4076   38.9634   10.7738 C.3     1  UNL1        0.0513
     19 C          17.2859   40.0169   10.1320 C.3     1  UNL1        0.2089
     20 C           8.7383   41.3756    6.5494 C.ar    1  UNL1        0.0890
     21 C           8.3270   42.0392    7.7100 C.ar    1  UNL1        0.0547
     22 C           7.1259   41.6963    8.3485 C.ar    1  UNL1        0.1402
     23 C           6.3270   40.6874    7.8079 C.ar    1  UNL1        0.0401
     24 C           6.7120   40.0381    6.6338 C.ar    1  UNL1        0.0413
     25 C           7.9097   40.3817    5.9851 C.ar    1  UNL1        0.1523
     26 C           5.9427   41.6856   10.5206 C.3     1  UNL1        0.2525
     27 O           6.7066   42.3393    9.5163 O.3     1  UNL1       -0.4714
     28 C           9.4105   38.9415    4.6378 C.3     1  UNL1        0.2525
     29 O           8.2662   39.7732    4.7760 O.3     1  UNL1       -0.4702
@<TRIPOS>BOND
     1    18    19    1
     2    19    17    1
     3    15    17    1
     4    15     7    1
     5     8    13   ar
     6     9     8    1
     7    10     3    1
     8     1     4   am
     9    21    22   ar
    10    22    27    1
    11    26    27    1
    12    23    24   ar
    13    25    29    1
    14    25    20   ar
    15    28    29    1
    16    11     7   ar
    17    12    11    1
    18    13    10   ar
    19     3     1   am
    20     4    20    1
    21    15    16    2
    22     7     8   ar
    23    10    11   ar
    24     1     2    2
    25    20    21   ar
    26    22    23   ar
    27    24    25   ar
    28    13    14    1
    29     3     5    1
    30     4     6    1
@<TRIPOS>MOLECULE
MolPort-002-455-713 1423179 CSC026731286 CSSS00026731286 MCULE-9058263817 PubChem-1504069 Z57169730 ZINC000001423179 ZINC01423179
 29 30 0 0 0
SMALL
GASTEIGER

@<TRIPOS>ATOM
      1 C          12.1428   41.6490    7.8386 C.2     1  UNL1        0.3093
      2 O          12.0795   42.7822    8.3882 O.2     1  UNL1       -0.2521
      3 N          10.9561   40.9932    7.3819 N.am    1  UNL1       -0.2551
      4 N          13.3996   40.9773    7.7096 N.am    1  UNL1       -0.2655
      5 H          11.0546   40.0943    6.9927 H       1  UNL1        0.1578
      6 H          13.3784   40.0188    7.4857 H       1  UNL1        0.1565
      7 C           7.6636   42.1646    8.2281 C.ar    1  UNL1        0.0857
      8 C           7.7983   42.4927    6.8841 C.ar    1  UNL1        0.0408
      9 C           6.7768   43.1727    6.0391 C.3     1  UNL1        0.0500
     10 C           9.6356   41.5442    7.4476 C.ar    1  UNL1        0.1085
     11 C           8.8529   41.5534    8.5818 C.ar    1  UNL1        0.0153
     12 C           9.2334   41.0046    9.9153 C.3     1  UNL1        0.0342
     13 N           9.0008   42.1153    6.4041 N.ar    1  UNL1       -0.3451
     14 H           9.3419   42.2318    5.4880 H       1  UNL1        0.1668
     15 C           6.4978   42.4121    9.1011 C.2     1  UNL1        0.3421
     16 O           6.1188   41.5264    9.9153 O.2     1  UNL1       -0.2449
     17 O           5.8170   43.6289    9.0232 O.3     1  UNL1       -0.4454
     18 C           4.0616   44.8118    7.8990 C.3     1  UNL1        0.0513
     19 C           4.4082   43.6935    8.8595 C.3     1  UNL1        0.2089
     20 C          14.6871   41.5843    7.8794 C.ar    1  UNL1        0.0890
     21 C          14.9917   42.7137    7.1122 C.ar    1  UNL1        0.0547
     22 C          16.2304   43.3592    7.2409 C.ar    1  UNL1        0.1402
     23 C          17.1640   42.8725    8.1574 C.ar    1  UNL1        0.0401
     24 C          16.8606   41.7643    8.9498 C.ar    1  UNL1        0.0413
     25 C          15.6191   41.1176    8.8315 C.ar    1  UNL1        0.1523
     26 C          15.5782   45.2614    5.8007 C.3     1  UNL1        0.2525
     27 O          16.5566   44.4801    6.4727 O.3     1  UNL1       -0.4714
     28 C          16.2704   39.2319   10.3017 C.3     1  UNL1        0.2525
     29 O          15.2913   40.0439    9.6676 O.3     1  UNL1       -0.4702
@<TRIPOS>BOND
     1    18    19    1
     2    19    17    1
     3    15    17    1
     4    15     7    1
     5     8    13   ar
     6     9     8    1
     7    10     3    1
     8     1     4   am
     9    21    22   ar
    10    22    27    1
    11    26    27    1
    12    23    24   ar
    13    25    29    1
    14    25    20   ar
    15    28    29    1
    16    11     7   ar
    17    12    11    1
    18    13    10   ar
    19     3     1   am
    20     4    20    1
    21    15    16    2
    22     7     8   ar
    23    10    11   ar
    24     1     2    2
    25    20    21   ar
    26    22    23   ar
    27    24    25   ar
    28    13    14    1
    29     3     5    1
    30     4     6    1
@<TRIPOS>MOLECULE
MolPort-002-455-713 1423179 CSC026731286 CSSS00026731286 MCULE-9058263817 PubChem-1504069 Z57169730 ZINC000001423179 ZINC01423179
 29 30 0 0 0
SMALL
GASTEIGER

@<TRIPOS>ATOM
      1 C           9.9998   41.4887    8.1321 C.2     1  UNL1        0.3093
      2 O          10.2576   42.2727    9.0857 O.2     1  UNL1       -0.2521
      3 N           8.6508   41.1078    7.8462 N.am    1  UNL1       -0.2551
      4 N          11.0594   40.9262    7.3522 N.am    1  UNL1       -0.2655
      5 H           8.5053   40.4652    7.1146 H       1  UNL1        0.1578
      6 H          10.8378   40.1596    6.7756 H       1  UNL1        0.1565
      7 C           5.6262   42.6788    8.9918 C.ar    1  UNL1        0.0857
      8 C           6.0357   41.9137   10.0776 C.ar    1  UNL1        0.0408
      9 C           5.3400   41.8095   11.3911 C.3     1  UNL1        0.0500
     10 C           7.4956   41.5896    8.5426 C.ar    1  UNL1        0.1085
     11 C           6.5739   42.4633    8.0076 C.ar    1  UNL1        0.0153
     12 C           6.6128   43.0494    6.6368 C.3     1  UNL1        0.0342
     13 N           7.1767   41.2476    9.8073 N.ar    1  UNL1       -0.3451
     14 H           7.6709   40.6414   10.4053 H       1  UNL1        0.1668
     15 C           4.4320   43.5437    8.9011 C.2     1  UNL1        0.3421
     16 O           4.5639   44.7908    8.7652 O.2     1  UNL1       -0.2449
     17 O           3.1570   42.9775    8.9657 O.3     1  UNL1       -0.4454
     18 C           2.5544   40.6617    9.1005 C.3     1  UNL1        0.0513
     19 C           2.8435   41.9317    9.8732 C.3     1  UNL1        0.2089
     20 C          12.4170   41.3865    7.3407 C.ar    1  UNL1        0.0890
     21 C          12.7509   42.4387    6.4816 C.ar    1  UNL1        0.0547
     22 C          14.0598   42.9411    6.4328 C.ar    1  UNL1        0.1402
     23 C          15.0362   42.3892    7.2636 C.ar    1  UNL1        0.0401
     24 C          14.7088   41.3588    8.1463 C.ar    1  UNL1        0.0413
     25 C          13.3984   40.8561    8.2059 C.ar    1  UNL1        0.1523
     26 C          15.4573   44.9013    5.8648 C.3     1  UNL1        0.2525
     27 O          14.4139   43.9824    5.5707 O.3     1  UNL1       -0.4714
     28 C          12.7861   40.1456   10.4998 C.3     1  UNL1        0.2525
     29 O          13.0559   39.8648    9.1329 O.3     1  UNL1       -0.4702
@<TRIPOS>BOND
     1    18    19    1
     2    19    17    1
     3    15    17    1
     4    15     7    1
     5     8    13   ar
     6     9     8    1
     7    10     3    1
     8     1     4   am
     9    21    22   ar
    10    22    27    1
    11    26    27    1
    12    23    24   ar
    13    25    29    1
    14    25    20   ar
    15    28    29    1
    16    11     7   ar
    17    12    11    1
    18    13    10   ar
    19     3     1   am
    20     4    20    1
    21    15    16    2
    22     7     8   ar
    23    10    11   ar
    24     1     2    2
    25    20    21   ar
    26    22    23   ar
    27    24    25   ar
    28    13    14    1
    29     3     5    1
    30     4     6    1
@<TRIPOS>MOLECULE
MolPort-002-455-713 1423179 CSC026731286 CSSS00026731286 MCULE-9058263817 PubChem-1504069 Z57169730 ZINC000001423179 ZINC01423179
 29 30 0 0 0
SMALL
GASTEIGER

@<TRIPOS>ATOM
      1 C           9.5409   42.1355    7.2755 C.2     1  UNL1        0.3093
      2 O           9.7013   42.6134    8.4314 O.2     1  UNL1       -0.2521
      3 N           8.2589   42.1760    6.6417 N.am    1  UNL1       -0.2551
      4 N          10.6289   41.4977    6.5995 N.am    1  UNL1       -0.2655
      5 H           8.1771   41.7572    5.7544 H       1  UNL1        0.1578
      6 H          10.4114   40.9489    5.8116 H       1  UNL1        0.1565
      7 C           5.2825   43.0966    8.4368 C.ar    1  UNL1        0.0857
      8 C           5.4979   44.1681    7.5778 C.ar    1  UNL1        0.0408
      9 C           4.6533   45.3907    7.4694 C.3     1  UNL1        0.0500
     10 C           7.0853   42.7790    7.1990 C.ar    1  UNL1        0.1085
     11 C           6.3107   42.2065    8.1847 C.ar    1  UNL1        0.0153
     12 C           6.5519   40.8860    8.8344 C.3     1  UNL1        0.0342
     13 N           6.5974   43.9776    6.8205 N.ar    1  UNL1       -0.3451
     14 H           6.9651   44.5839    6.1375 H       1  UNL1        0.1668
     15 C           4.1871   42.9350    9.4147 C.2     1  UNL1        0.3421
     16 O           2.9930   43.1441    9.0662 O.2     1  UNL1       -0.2449
     17 O           4.4766   42.5495   10.7253 O.3     1  UNL1       -0.4454
     18 C           4.0443   40.3278   11.5135 C.3     1  UNL1        0.0513
     19 C           3.5761   41.7679   11.4959 C.3     1  UNL1        0.2089
     20 C          12.0093   41.5917    6.9744 C.ar    1  UNL1        0.0890
     21 C          12.8152   42.5164    6.3020 C.ar    1  UNL1        0.0547
     22 C          14.1711   42.6634    6.6307 C.ar    1  UNL1        0.1402
     23 C          14.7162   41.8835    7.6520 C.ar    1  UNL1        0.0401
     24 C          13.9154   40.9784    8.3502 C.ar    1  UNL1        0.0413
     25 C          12.5551   40.8316    8.0314 C.ar    1  UNL1        0.1523
     26 C          15.8987   44.4335    6.6377 C.3     1  UNL1        0.2525
     27 O          14.9940   43.5723    5.9601 O.3     1  UNL1       -0.4714
     28 C          11.8957   38.5559    8.7581 C.3     1  UNL1        0.2525
     29 O          11.7380   39.9684    8.7707 O.3     1  UNL1       -0.4702
@<TRIPOS>BOND
     1    18    19    1
     2    19    17    1
     3    15    17    1
     4    15     7    1
     5     8    13   ar
     6     9     8    1
     7    10     3    1
     8     1     4   am
     9    21    22   ar
    10    22    27    1
    11    26    27    1
    12    23    24   ar
    13    25    29    1
    14    25    20   ar
    15    28    29    1
    16    11     7   ar
    17    12    11    1
    18    13    10   ar
    19     3     1   am
    20     4    20    1
    21    15    16    2
    22     7     8   ar
    23    10    11   ar
    24     1     2    2
    25    20    21   ar
    26    22    23   ar
    27    24    25   ar
    28    13    14    1
    29     3     5    1
    30     4     6    1
@<TRIPOS>MOLECULE
MolPort-002-455-713 1423179 CSC026731286 CSSS00026731286 MCULE-9058263817 PubChem-1504069 Z57169730 ZINC000001423179 ZINC01423179
 29 30 0 0 0
SMALL
GASTEIGER

@<TRIPOS>ATOM
      1 C          11.7634   41.5176    7.1984 C.2     1  UNL1        0.3093
      2 O          11.6866   40.6215    8.0824 O.2     1  UNL1       -0.2521
      3 N          10.5870   41.9897    6.5352 N.am    1  UNL1       -0.2551
      4 N          13.0369   42.0403    6.8076 N.am    1  UNL1       -0.2655
      5 H          10.7039   42.6639    5.8273 H       1  UNL1        0.1578
      6 H          13.0739   42.5627    5.9739 H       1  UNL1        0.1565
      7 C           7.2912   41.3398    7.8174 C.ar    1  UNL1        0.0857
      8 C           7.3720   40.5375    6.6852 C.ar    1  UNL1        0.0408
      9 C           6.3047   39.6341    6.1708 C.3     1  UNL1        0.0500
     10 C           9.2521   41.5568    6.8221 C.ar    1  UNL1        0.1085
     11 C           8.5081   41.9925    7.8972 C.ar    1  UNL1        0.0153
     12 C           8.9497   42.9728    8.9307 C.3     1  UNL1        0.0342
     13 N           8.5677   40.6671    6.0751 N.ar    1  UNL1       -0.3451
     14 H           8.8750   40.2100    5.2592 H       1  UNL1        0.1668
     15 C           6.1497   41.4716    8.7458 C.2     1  UNL1        0.3421
     16 O           5.0204   41.0076    8.4288 O.2     1  UNL1       -0.2449
     17 O           6.3239   42.1105    9.9754 O.3     1  UNL1       -0.4454
     18 C           4.8556   40.9845   11.4986 C.3     1  UNL1        0.0513
     19 C           6.2815   41.4012   11.2044 C.3     1  UNL1        0.2089
     20 C          14.2631   41.8663    7.5294 C.ar    1  UNL1        0.0890
     21 C          14.3263   40.8514    8.4899 C.ar    1  UNL1        0.0547
     22 C          15.5016   40.6239    9.2212 C.ar    1  UNL1        0.1402
     23 C          16.6250   41.4149    8.9749 C.ar    1  UNL1        0.0401
     24 C          16.5837   42.4113    7.9984 C.ar    1  UNL1        0.0413
     25 C          15.4124   42.6394    7.2570 C.ar    1  UNL1        0.1523
     26 C          14.4852   39.2891   11.0387 C.3     1  UNL1        0.2525
     27 O          15.5780   39.6236   10.1942 O.3     1  UNL1       -0.4714
     28 C          16.1749   44.7812    6.2706 C.3     1  UNL1        0.2525
     29 O          15.3890   43.5974    6.2367 O.3     1  UNL1       -0.4702
@<TRIPOS>BOND
     1    18    19    1
     2    19    17    1
     3    15    17    1
     4    15     7    1
     5     8    13   ar
     6     9     8    1
     7    10     3    1
     8     1     4   am
     9    21    22   ar
    10    22    27    1
    11    26    27    1
    12    23    24   ar
    13    25    29    1
    14    25    20   ar
    15    28    29    1
    16    11     7   ar
    17    12    11    1
    18    13    10   ar
    19     3     1   am
    20     4    20    1
    21    15    16    2
    22     7     8   ar
    23    10    11   ar
    24     1     2    2
    25    20    21   ar
    26    22    23   ar
    27    24    25   ar
    28    13    14    1
    29     3     5    1
    30     4     6    1
@<TRIPOS>MOLECULE
MolPort-002-455-713 1423179 CSC026731286 CSSS00026731286 MCULE-9058263817 PubChem-1504069 Z57169730 ZINC000001423179 ZINC01423179
 29 30 0 0 0
SMALL
GASTEIGER

@<TRIPOS>ATOM
      1 C           8.9315   42.1150    9.5360 C.2     1  UNL1        0.3093
      2 O           8.8130   42.4512    8.3264 O.2     1  UNL1       -0.2521
      3 N           7.7963   42.1145   10.4068 N.am    1  UNL1       -0.2551
      4 N          10.2154   41.7777   10.0703 N.am    1  UNL1       -0.2655
      5 H           7.9476   41.8792   11.3507 H       1  UNL1        0.1578
      6 H          10.3012   41.7414   11.0503 H       1  UNL1        0.1565
      7 C           4.2556   42.3550    9.8286 C.ar    1  UNL1        0.0857
      8 C           4.7888   43.3835    9.0606 C.ar    1  UNL1        0.0408
      9 C           4.0192   44.3351    8.2108 C.3     1  UNL1        0.0500
     10 C           6.4565   42.4302   10.0105 C.ar    1  UNL1        0.1085
     11 C           5.3385   41.7463   10.4367 C.ar    1  UNL1        0.0153
     12 C           5.3241   40.5815   11.3680 C.3     1  UNL1        0.0342
     13 N           6.1322   43.4324    9.1689 N.ar    1  UNL1       -0.3451
     14 H           6.7448   44.0644    8.7278 H       1  UNL1        0.1668
     15 C           2.8328   41.9833    9.9695 C.2     1  UNL1        0.3421
     16 O           2.3164   41.1483    9.1774 O.2     1  UNL1       -0.2449
     17 O           2.0611   42.5580   10.9816 O.3     1  UNL1       -0.4454
     18 C           0.9515   42.6166   13.1052 C.3     1  UNL1        0.0513
     19 C           2.1668   42.1436   12.3354 C.3     1  UNL1        0.2089
     20 C          11.3870   41.4883    9.2966 C.ar    1  UNL1        0.0890
     21 C          12.0094   42.5427    8.6202 C.ar    1  UNL1        0.0547
     22 C          13.1654   42.3255    7.8558 C.ar    1  UNL1        0.1402
     23 C          13.7061   41.0407    7.7823 C.ar    1  UNL1        0.0401
     24 C          13.1112   39.9861    8.4766 C.ar    1  UNL1        0.0413
     25 C          11.9578   40.1980    9.2501 C.ar    1  UNL1        0.1523
     26 C          14.0417   43.3136    5.7644 C.3     1  UNL1        0.2525
     27 O          13.7922   43.3645    7.1624 O.3     1  UNL1       -0.4714
     28 C          11.1505   37.8637    9.4516 C.3     1  UNL1        0.2525
     29 O          11.3961   39.1541    9.9944 O.3     1  UNL1       -0.4702
@<TRIPOS>BOND
     1    18    19    1
     2    19    17    1
     3    15    17    1
     4    15     7    1
     5     8    13   ar
     6     9     8    1
     7    10     3    1
     8     1     4   am
     9    21    22   ar
    10    22    27    1
    11    26    27    1
    12    23    24   ar
    13    25    29    1
    14    25    20   ar
    15    28    29    1
    16    11     7   ar
    17    12    11    1
    18    13    10   ar
    19     3     1   am
    20     4    20    1
    21    15    16    2
    22     7     8   ar
    23    10    11   ar
    24     1     2    2
    25    20    21   ar
    26    22    23   ar
    27    24    25   ar
    28    13    14    1
    29     3     5    1
    30     4     6    1
@<TRIPOS>MOLECULE
MolPort-002-455-713 1423179 CSC026731286 CSSS00026731286 MCULE-9058263817 PubChem-1504069 Z57169730 ZINC000001423179 ZINC01423179
 29 30 0 0 0
SMALL
GASTEIGER

@<TRIPOS>ATOM
      1 C          10.1744   41.7533    7.8110 C.2     1  UNL1        0.3093
      2 O          10.4344   42.5885    8.7195 O.2     1  UNL1       -0.2521
      3 N          11.1735   41.3783    6.8581 N.am    1  UNL1       -0.2551
      4 N           8.8581   41.2057    7.6877 N.am    1  UNL1       -0.2655
      5 H          10.9103   40.7505    6.1469 H       1  UNL1        0.1578
      6 H           8.6393   40.7412    6.8477 H       1  UNL1        0.1565
      7 C          14.6545   42.0952    7.4032 C.ar    1  UNL1        0.0857
      8 C          14.3029   42.9332    6.3514 C.ar    1  UNL1        0.0408
      9 C          15.2052   43.8898    5.6510 C.3     1  UNL1        0.0500
     10 C          12.5272   41.8462    6.8595 C.ar    1  UNL1        0.1085
     11 C          13.5031   41.3990    7.7238 C.ar    1  UNL1        0.0153
     12 C          13.3282   40.3690    8.7879 C.3     1  UNL1        0.0342
     13 N          13.0050   42.7842    6.0169 N.ar    1  UNL1       -0.3451
     14 H          12.5119   43.2587    5.3091 H       1  UNL1        0.1668
     15 C          15.9772   41.9702    8.0490 C.2     1  UNL1        0.3421
     16 O          16.8932   42.7941    7.7780 O.2     1  UNL1       -0.2449
     17 O          16.2110   40.9383    8.9605 O.3     1  UNL1       -0.4454
     18 C          17.4717   39.4392   10.3417 C.3     1  UNL1        0.0513
     19 C          17.4850   40.7313    9.5519 C.3     1  UNL1        0.2089
     20 C           7.8318   41.2774    8.6859 C.ar    1  UNL1        0.0890
     21 C           8.2119   41.5347   10.0073 C.ar    1  UNL1        0.0547
     22 C           7.2534   41.6279   11.0273 C.ar    1  UNL1        0.1402
     23 C           5.9022   41.4739   10.7131 C.ar    1  UNL1        0.0401
     24 C           5.5080   41.2462    9.3937 C.ar    1  UNL1        0.0413
     25 C           6.4619   41.1594    8.3661 C.ar    1  UNL1        0.1523
     26 C           8.7454   41.2608   12.9657 C.3     1  UNL1        0.2525
     27 O           7.6164   41.8706   12.3549 O.3     1  UNL1       -0.4714
     28 C           6.3068   39.7990    6.3004 C.3     1  UNL1        0.2525
     29 O           6.0633   40.9913    7.0348 O.3     1  UNL1       -0.4702
@<TRIPOS>BOND
     1    18    19    1
     2    19    17    1
     3    15    17    1
     4    15     7    1
     5     8    13   ar
     6     9     8    1
     7    10     3    1
     8     1     4   am
     9    21    22   ar
    10    22    27    1
    11    26    27    1
    12    23    24   ar
    13    25    29    1
    14    25    20   ar
    15    28    29    1
    16    11     7   ar
    17    12    11    1
    18    13    10   ar
    19     3     1   am
    20     4    20    1
    21    15    16    2
    22     7     8   ar
    23    10    11   ar
    24     1     2    2
    25    20    21   ar
    26    22    23   ar
    27    24    25   ar
    28    13    14    1
    29     3     5    1
    30     4     6    1
@<TRIPOS>MOLECULE
MolPort-002-455-713 1423179 CSC026731286 CSSS00026731286 MCULE-9058263817 PubChem-1504069 Z57169730 ZINC000001423179 ZINC01423179
 29 30 0 0 0
SMALL
GASTEIGER

@<TRIPOS>ATOM
      1 C          11.9388   41.6377    8.2025 C.2     1  UNL1        0.3093
      2 O          12.1166   41.7784    9.4430 O.2     1  UNL1       -0.2521
      3 N          10.6175   41.5463    7.6615 N.am    1  UNL1       -0.2551
      4 N          13.0591   41.5152    7.3209 N.am    1  UNL1       -0.2655
      5 H          10.5326   41.4006    6.6915 H       1  UNL1        0.1578
      6 H          12.8828   41.1866    6.4097 H       1  UNL1        0.1565
      7 C           7.2748   41.9069    8.9363 C.ar    1  UNL1        0.0857
      8 C           8.0462   41.7103   10.0759 C.ar    1  UNL1        0.0408
      9 C           7.5463   41.6698   11.4789 C.3     1  UNL1        0.0500
     10 C           9.4087   41.6507    8.4228 C.ar    1  UNL1        0.1085
     11 C           8.1623   41.8672    7.8762 C.ar    1  UNL1        0.0153
     12 C           7.8557   42.0263    6.4254 C.3     1  UNL1        0.0342
     13 N           9.3494   41.5538    9.7663 N.ar    1  UNL1       -0.3451
     14 H          10.0973   41.4014   10.3882 H       1  UNL1        0.1668
     15 C           5.8142   42.1166    8.8650 C.2     1  UNL1        0.3421
     16 O           5.3513   43.2689    8.6435 O.2     1  UNL1       -0.2449
     17 O           4.9474   41.0362    9.0428 O.3     1  UNL1       -0.4454
     18 C           3.9155   40.2577   11.0611 C.3     1  UNL1        0.0513
     19 C           3.7738   41.1359    9.8354 C.3     1  UNL1        0.2089
     20 C          14.4170   41.8311    7.6545 C.ar    1  UNL1        0.0890
     21 C          15.0934   40.9865    8.5410 C.ar    1  UNL1        0.0547
     22 C          16.4270   41.2360    8.8977 C.ar    1  UNL1        0.1402
     23 C          17.0883   42.3356    8.3484 C.ar    1  UNL1        0.0401
     24 C          16.4336   43.1688    7.4399 C.ar    1  UNL1        0.0413
     25 C          15.1006   42.9205    7.0725 C.ar    1  UNL1        0.1523
     26 C          16.4757   39.3717   10.5226 C.3     1  UNL1        0.2525
     27 O          17.1135   40.4107    9.7924 O.3     1  UNL1       -0.4714
     28 C          14.9391   45.0064    5.7441 C.3     1  UNL1        0.2525
     29 O          14.4632   43.7199    6.1164 O.3     1  UNL1       -0.4702
@<TRIPOS>BOND
     1    18    19    1
     2    19    17    1
     3    15    17    1
     4    15     7    1
     5     8    13   ar
     6     9     8    1
     7    10     3    1
     8     1     4   am
     9    21    22   ar
    10    22    27    1
    11    26    27    1
    12    23    24   ar
    13    25    29    1
    14    25    20   ar
    15    28    29    1
    16    11     7   ar
    17    12    11    1
    18    13    10   ar
    19     3     1   am
    20     4    20    1
    21    15    16    2
    22     7     8   ar
    23    10    11   ar
    24     1     2    2
    25    20    21   ar
    26    22    23   ar
    27    24    25   ar
    28    13    14    1
    29     3     5    1
    30     4     6    1
@<TRIPOS>MOLECULE
MolPort-002-455-713 1423179 CSC026731286 CSSS00026731286 MCULE-9058263817 PubChem-1504069 Z57169730 ZINC000001423179 ZINC01423179
 29 30 0 0 0
SMALL
GASTEIGER

@<TRIPOS>ATOM
      1 C           9.9789   41.1786    9.2944 C.2     1  UNL1        0.3093
      2 O          10.3388   42.3332    8.9371 O.2     1  UNL1       -0.2521
      3 N           8.5956   40.8133    9.2927 N.am    1  UNL1       -0.2551
      4 N          10.9459   40.2308    9.7572 N.am    1  UNL1       -0.2655
      5 H           8.3630   39.9125    9.6148 H       1  UNL1        0.1578
      6 H          10.6086   39.4363   10.2308 H       1  UNL1        0.1565
      7 C           5.5678   42.6837    8.7809 C.ar    1  UNL1        0.0857
      8 C           6.3686   43.0456    7.7039 C.ar    1  UNL1        0.0408
      9 C           6.0013   43.9953    6.6161 C.3     1  UNL1        0.0500
     10 C           7.5233   41.6576    8.8583 C.ar    1  UNL1        0.1085
     11 C           6.3208   41.7885    9.5188 C.ar    1  UNL1        0.0153
     12 C           5.9305   41.0908   10.7778 C.3     1  UNL1        0.0342
     13 N           7.5630   42.4210    7.7476 N.ar    1  UNL1       -0.3451
     14 H           8.3050   42.5045    7.1060 H       1  UNL1        0.1668
     15 C           4.1988   43.1515    9.0800 C.2     1  UNL1        0.3421
     16 O           3.9969   44.3570    9.3915 O.2     1  UNL1       -0.2449
     17 O           3.1289   42.2562    9.0165 O.3     1  UNL1       -0.4454
     18 C           2.5905   42.1912   11.3511 C.3     1  UNL1        0.0513
     19 C           2.8145   41.3825   10.0904 C.3     1  UNL1        0.2089
     20 C          12.3651   40.3423    9.5883 C.ar    1  UNL1        0.0890
     21 C          13.1933   39.7271   10.5330 C.ar    1  UNL1        0.0547
     22 C          14.5898   39.7909   10.4166 C.ar    1  UNL1        0.1402
     23 C          15.1565   40.4674    9.3352 C.ar    1  UNL1        0.0401
     24 C          14.3406   41.0600    8.3701 C.ar    1  UNL1        0.0413
     25 C          12.9414   40.9934    8.4763 C.ar    1  UNL1        0.1523
     26 C          15.3006   37.8356   11.7544 C.3     1  UNL1        0.2525
     27 O          15.4322   39.1940   11.3585 O.3     1  UNL1       -0.4714
     28 C          12.6088   41.8897    6.1899 C.3     1  UNL1        0.2525
     29 O          12.1235   41.5352    7.4779 O.3     1  UNL1       -0.4702
@<TRIPOS>BOND
     1    18    19    1
     2    19    17    1
     3    15    17    1
     4    15     7    1
     5     8    13   ar
     6     9     8    1
     7    10     3    1
     8     1     4   am
     9    21    22   ar
    10    22    27    1
    11    26    27    1
    12    23    24   ar
    13    25    29    1
    14    25    20   ar
    15    28    29    1
    16    11     7   ar
    17    12    11    1
    18    13    10   ar
    19     3     1   am
    20     4    20    1
    21    15    16    2
    22     7     8   ar
    23    10    11   ar
    24     1     2    2
    25    20    21   ar
    26    22    23   ar
    27    24    25   ar
    28    13    14    1
    29     3     5    1
    30     4     6    1
