@<TRIPOS>MOLECULE
MolPort-028-743-856 CSSS00160083590 MCULE-8390611716 PubChem-72939668
 30 33 0 0 0
SMALL
GASTEIGER

@<TRIPOS>ATOM
      1 O          10.0577   40.8487    7.9693 O.2     1  UNL1       -0.2525
      2 C          10.4419   41.0762    9.1487 C.2     1  UNL1        0.3045
      3 N          11.5363   40.3432    9.6979 N.am    1  UNL1       -0.2882
      4 N           9.7934   42.0663    9.9571 N.am    1  UNL1       -0.2682
      5 H          11.8247   40.5349   10.6195 H       1  UNL1        0.1510
      6 H          10.1401   42.1851   10.8708 H       1  UNL1        0.1564
      7 C           8.6923   42.9020    9.5747 C.ar    1  UNL1        0.0546
      8 C           7.4515   42.3061    9.3239 C.ar    1  UNL1        0.0516
      9 C           6.3488   43.0803    8.9483 C.ar    1  UNL1        0.1396
     10 C           6.4929   44.4714    8.8262 C.ar    1  UNL1        0.0370
     11 C           7.7275   45.0749    9.0753 C.ar    1  UNL1        0.0044
     12 C           8.8235   44.2929    9.4482 C.ar    1  UNL1        0.0149
     13 O           5.1257   42.4446    8.7083 O.3     1  UNL1       -0.4791
     14 C           4.0496   42.4464    9.6404 C.3     1  UNL1        0.1659
     15 C           3.0969   41.2988    9.3417 C.3     1  UNL1        0.0435
     16 C           3.3225   40.2664   10.4232 C.3     1  UNL1        0.0038
     17 C           3.8188   41.0476   11.6151 C.3     1  UNL1        0.0038
     18 C           4.5977   42.2088   11.0364 C.3     1  UNL1        0.0435
     19 C          12.2378   39.3226    8.9381 C.3     1  UNL1        0.0990
     20 C          13.7240   39.6213    8.9431 C.3     1  UNL1        0.0905
     21 O          13.8056   42.2831    6.6242 O.2     1  UNL1       -0.3348
     22 C          14.0071   40.8255    8.1139 C.ar    1  UNL1        0.1823
     23 C          14.8920   42.5303    7.3145 C.ar    1  UNL1        0.2635
     24 N          13.2233   41.2226    7.0938 N.ar    1  UNL1       -0.0605
     25 N          15.0823   41.6219    8.2896 N.ar    1  UNL1       -0.1928
     26 O          16.4326   43.5081    5.7963 O.3     1  UNL1       -0.3468
     27 C          15.8207   43.6657    7.0486 C.3     1  UNL1        0.1935
     28 C          16.8971   43.7207    8.1082 C.3     1  UNL1        0.0418
     29 C          18.1437   44.0371    7.3389 C.3     1  UNL1        0.0351
     30 C          17.6695   44.1587    5.9097 C.3     1  UNL1        0.1428
@<TRIPOS>BOND
     1     2     3   am
     2     2     4   am
     3    19     3    1
     4    19    20    1
     5    20    22    1
     6    22    25   ar
     7    23    21   ar
     8    27    23    1
     9    27    28    1
    10    27    26    1
    11    28    29    1
    12    29    30    1
    13    30    26    1
    14     8     9   ar
    15     9    13    1
    16    14    13    1
    17    14    15    1
    18    15    16    1
    19    16    17    1
    20    17    18    1
    21    18    14    1
    22    10    11   ar
    23    12     7   ar
    24    24    21   ar
    25     4     7    1
    26     2     1    2
    27    22    24   ar
    28    23    25   ar
    29     7     8   ar
    30     9    10   ar
    31    11    12   ar
    32     3     5    1
    33     4     6    1
@<TRIPOS>MOLECULE
MolPort-028-743-856 CSSS00160083590 MCULE-8390611716 PubChem-72939668
 30 33 0 0 0
SMALL
GASTEIGER

@<TRIPOS>ATOM
      1 O          10.3038   41.8014    6.6584 O.2     1  UNL1       -0.2525
      2 C           9.7512   41.9665    7.7799 C.2     1  UNL1        0.3045
      3 N           8.3900   42.3891    7.8508 N.am    1  UNL1       -0.2882
      4 N          10.4717   41.7367    8.9975 N.am    1  UNL1       -0.2682
      5 H           7.9734   42.5112    8.7344 H       1  UNL1        0.1510
      6 H           9.9806   41.8934    9.8363 H       1  UNL1        0.1564
      7 C          11.8329   41.3024    9.1223 C.ar    1  UNL1        0.0546
      8 C          12.7758   41.7732    8.2021 C.ar    1  UNL1        0.0516
      9 C          14.1148   41.3774    8.2838 C.ar    1  UNL1        0.1396
     10 C          14.5131   40.5003    9.3049 C.ar    1  UNL1        0.0370
     11 C          13.5790   40.0258   10.2283 C.ar    1  UNL1        0.0044
     12 C          12.2434   40.4254   10.1373 C.ar    1  UNL1        0.0149
     13 O          15.0255   41.8730    7.3443 O.3     1  UNL1       -0.4791
     14 C          15.5498   43.1959    7.3886 C.3     1  UNL1        0.1659
     15 C          16.9351   43.1888    8.0170 C.3     1  UNL1        0.0435
     16 C          17.9153   43.4151    6.8882 C.3     1  UNL1        0.0038
     17 C          17.1453   44.1922    5.8487 C.3     1  UNL1        0.0038
     18 C          15.7143   43.7155    5.9713 C.3     1  UNL1        0.0435
     19 C           7.6003   42.6447    6.6583 C.3     1  UNL1        0.0990
     20 C           6.8708   43.9650    6.8089 C.3     1  UNL1        0.0905
     21 O           4.1145   44.3128    8.9887 O.2     1  UNL1       -0.3348
     22 C           5.7216   43.8114    7.7437 C.ar    1  UNL1        0.1823
     23 C           4.2807   43.0130    9.0143 C.ar    1  UNL1        0.2635
     24 N           4.9983   44.8493    8.2042 N.ar    1  UNL1       -0.0605
     25 N           5.3068   42.6246    8.2341 N.ar    1  UNL1       -0.1928
     26 O           3.0787   42.6714   11.0325 O.3     1  UNL1       -0.3468
     27 C           3.4517   42.0720    9.8204 C.3     1  UNL1        0.1935
     28 C           4.2333   40.8145   10.1243 C.3     1  UNL1        0.0418
     29 C           3.8875   40.5116   11.5507 C.3     1  UNL1        0.0351
     30 C           2.9206   41.6078   11.9324 C.3     1  UNL1        0.1428
@<TRIPOS>BOND
     1     2     3   am
     2     2     4   am
     3    19     3    1
     4    19    20    1
     5    20    22    1
     6    22    25   ar
     7    23    21   ar
     8    27    23    1
     9    27    28    1
    10    27    26    1
    11    28    29    1
    12    29    30    1
    13    30    26    1
    14     8     9   ar
    15     9    13    1
    16    14    13    1
    17    14    15    1
    18    15    16    1
    19    16    17    1
    20    17    18    1
    21    18    14    1
    22    10    11   ar
    23    12     7   ar
    24    24    21   ar
    25     4     7    1
    26     2     1    2
    27    22    24   ar
    28    23    25   ar
    29     7     8   ar
    30     9    10   ar
    31    11    12   ar
    32     3     5    1
    33     4     6    1
@<TRIPOS>MOLECULE
MolPort-028-743-856 CSSS00160083590 MCULE-8390611716 PubChem-72939668
 30 33 0 0 0
SMALL
GASTEIGER

@<TRIPOS>ATOM
      1 O          10.4484   41.2986    7.8829 O.2     1  UNL1       -0.2525
      2 C           9.9303   40.6802    8.8522 C.2     1  UNL1        0.3045
      3 N          10.7036   39.7379    9.5944 N.am    1  UNL1       -0.2882
      4 N           8.5654   40.9070    9.2263 N.am    1  UNL1       -0.2682
      5 H          10.2842   39.2655   10.3495 H       1  UNL1        0.1510
      6 H           8.2243   40.3836    9.9872 H       1  UNL1        0.1564
      7 C           7.6443   41.8164    8.6086 C.ar    1  UNL1        0.0546
      8 C           6.5618   42.2894    9.3582 C.ar    1  UNL1        0.0516
      9 C           5.6375   43.1776    8.7985 C.ar    1  UNL1        0.1396
     10 C           5.8043   43.5992    7.4699 C.ar    1  UNL1        0.0370
     11 C           6.8822   43.1328    6.7143 C.ar    1  UNL1        0.0044
     12 C           7.7991   42.2444    7.2817 C.ar    1  UNL1        0.0149
     13 O           4.5702   43.6273    9.5835 O.3     1  UNL1       -0.4791
     14 C           3.4644   42.8052    9.9414 C.3     1  UNL1        0.1659
     15 C           3.5551   41.4658    9.2260 C.3     1  UNL1        0.0435
     16 C           3.9579   40.4512   10.2722 C.3     1  UNL1        0.0038
     17 C           3.4439   41.0073   11.5775 C.3     1  UNL1        0.0038
     18 C           3.5218   42.5114   11.4300 C.3     1  UNL1        0.0435
     19 C          12.0910   39.4547    9.2692 C.3     1  UNL1        0.0990
     20 C          12.9927   40.4058   10.0312 C.3     1  UNL1        0.0905
     21 O          15.0164   38.5827   12.2785 O.2     1  UNL1       -0.3348
     22 C          14.0471   39.6427   10.7549 C.ar    1  UNL1        0.1823
     23 C          15.8300   38.6954   11.2572 C.ar    1  UNL1        0.2635
     24 N          13.8890   39.1639   12.0032 N.ar    1  UNL1       -0.0605
     25 N          15.2656   39.3745   10.2409 N.ar    1  UNL1       -0.1928
     26 O          18.1376   39.1980   11.0196 O.3     1  UNL1       -0.3468
     27 C          17.2196   38.1570   11.2219 C.3     1  UNL1        0.1935
     28 C          17.3660   37.1590   10.0962 C.3     1  UNL1        0.0418
     29 C          18.7104   37.4701    9.5118 C.3     1  UNL1        0.0351
     30 C          19.2270   38.6028   10.3676 C.3     1  UNL1        0.1428
@<TRIPOS>BOND
     1     2     3   am
     2     2     4   am
     3    19     3    1
     4    19    20    1
     5    20    22    1
     6    22    25   ar
     7    23    21   ar
     8    27    23    1
     9    27    28    1
    10    27    26    1
    11    28    29    1
    12    29    30    1
    13    30    26    1
    14     8     9   ar
    15     9    13    1
    16    14    13    1
    17    14    15    1
    18    15    16    1
    19    16    17    1
    20    17    18    1
    21    18    14    1
    22    10    11   ar
    23    12     7   ar
    24    24    21   ar
    25     4     7    1
    26     2     1    2
    27    22    24   ar
    28    23    25   ar
    29     7     8   ar
    30     9    10   ar
    31    11    12   ar
    32     3     5    1
    33     4     6    1
@<TRIPOS>MOLECULE
MolPort-028-743-856 CSSS00160083590 MCULE-8390611716 PubChem-72939668
 30 33 0 0 0
SMALL
GASTEIGER

@<TRIPOS>ATOM
      1 O           8.7036   40.6322    6.7888 O.2     1  UNL1       -0.2525
      2 C           9.0074   41.5927    6.0302 C.2     1  UNL1        0.3045
      3 N          10.0558   41.4440    5.0734 N.am    1  UNL1       -0.2882
      4 N           8.3137   42.8443    6.1118 N.am    1  UNL1       -0.2682
      5 H          10.2786   42.2032    4.4875 H       1  UNL1        0.1510
      6 H           8.6090   43.5527    5.4952 H       1  UNL1        0.1564
      7 C           7.2346   43.1731    6.9975 C.ar    1  UNL1        0.0546
      8 C           7.1218   42.4784    8.2066 C.ar    1  UNL1        0.0516
      9 C           6.0861   42.7641    9.1022 C.ar    1  UNL1        0.1396
     10 C           5.1534   43.7630    8.7811 C.ar    1  UNL1        0.0370
     11 C           5.2586   44.4621    7.5767 C.ar    1  UNL1        0.0044
     12 C           6.2955   44.1682    6.6879 C.ar    1  UNL1        0.0149
     13 O           6.0109   42.0468   10.3011 O.3     1  UNL1       -0.4791
     14 C           4.9719   41.1174   10.5901 C.3     1  UNL1        0.1659
     15 C           4.0203   41.7011   11.6234 C.3     1  UNL1        0.0435
     16 C           2.7548   42.0632   10.8794 C.3     1  UNL1        0.0038
     17 C           2.7101   41.1239    9.6991 C.3     1  UNL1        0.0038
     18 C           4.1567   40.8728    9.3326 C.3     1  UNL1        0.0435
     19 C          10.8041   40.2060    4.9377 C.3     1  UNL1        0.0990
     20 C          11.2121   39.7094    6.3108 C.3     1  UNL1        0.0905
     21 O          13.9202   41.1633    8.0491 O.2     1  UNL1       -0.3348
     22 C          12.3133   40.5523    6.8538 C.ar    1  UNL1        0.1823
     23 C          13.6359   42.1205    7.2000 C.ar    1  UNL1        0.2635
     24 N          13.1134   40.1637    7.8644 N.ar    1  UNL1       -0.0605
     25 N          12.6033   41.7904    6.4019 N.ar    1  UNL1       -0.1928
     26 O          13.9028   44.1663    6.0263 O.3     1  UNL1       -0.3468
     27 C          14.3508   43.4268    7.1307 C.3     1  UNL1        0.1935
     28 C          15.8389   43.2023    6.9897 C.3     1  UNL1        0.0418
     29 C          16.2653   44.2337    5.9896 C.3     1  UNL1        0.0351
     30 C          14.9897   44.9739    5.6623 C.3     1  UNL1        0.1428
@<TRIPOS>BOND
     1     2     3   am
     2     2     4   am
     3    19     3    1
     4    19    20    1
     5    20    22    1
     6    22    25   ar
     7    23    21   ar
     8    27    23    1
     9    27    28    1
    10    27    26    1
    11    28    29    1
    12    29    30    1
    13    30    26    1
    14     8     9   ar
    15     9    13    1
    16    14    13    1
    17    14    15    1
    18    15    16    1
    19    16    17    1
    20    17    18    1
    21    18    14    1
    22    10    11   ar
    23    12     7   ar
    24    24    21   ar
    25     4     7    1
    26     2     1    2
    27    22    24   ar
    28    23    25   ar
    29     7     8   ar
    30     9    10   ar
    31    11    12   ar
    32     3     5    1
    33     4     6    1
@<TRIPOS>MOLECULE
MolPort-028-743-856 CSSS00160083590 MCULE-8390611716 PubChem-72939668
 30 33 0 0 0
SMALL
GASTEIGER

@<TRIPOS>ATOM
      1 O          11.8441   40.8004    9.9522 O.2     1  UNL1       -0.2525
      2 C          10.7545   40.2884    9.5767 C.2     1  UNL1        0.3045
      3 N           9.6672   41.1269    9.1878 N.am    1  UNL1       -0.2882
      4 N          10.5848   38.8658    9.5335 N.am    1  UNL1       -0.2682
      5 H           8.8243   40.7107    8.8953 H       1  UNL1        0.1510
      6 H           9.7054   38.5358    9.2386 H       1  UNL1        0.1564
      7 C          11.5616   37.8726    9.8747 C.ar    1  UNL1        0.0546
      8 C          12.9174   38.2090    9.7981 C.ar    1  UNL1        0.0516
      9 C          13.9061   37.2737   10.1209 C.ar    1  UNL1        0.1396
     10 C          13.5283   35.9849   10.5294 C.ar    1  UNL1        0.0370
     11 C          12.1773   35.6404   10.6095 C.ar    1  UNL1        0.0044
     12 C          11.1972   36.5810   10.2832 C.ar    1  UNL1        0.0149
     13 O          15.2502   37.6518   10.0322 O.3     1  UNL1       -0.4791
     14 C          15.7874   38.7862   10.7040 C.3     1  UNL1        0.1659
     15 C          17.2205   38.5102   11.1330 C.3     1  UNL1        0.0435
     16 C          18.1042   39.3136   10.2058 C.3     1  UNL1        0.0038
     17 C          17.2561   40.4832    9.7697 C.3     1  UNL1        0.0038
     18 C          15.8366   39.9596    9.7415 C.3     1  UNL1        0.0435
     19 C           9.7665   42.5763    9.2106 C.3     1  UNL1        0.0990
     20 C           9.2943   43.0938   10.5550 C.3     1  UNL1        0.0905
     21 O           6.9025   41.0901   12.2084 O.2     1  UNL1       -0.3348
     22 C           8.1112   42.3158   11.0163 C.ar    1  UNL1        0.1823
     23 C           6.2401   41.4125   11.1244 C.ar    1  UNL1        0.2635
     24 N           8.0795   41.6362   12.1781 N.ar    1  UNL1       -0.0605
     25 N           6.9674   42.1997   10.3097 N.ar    1  UNL1       -0.1928
     26 O           4.6054   41.0691    9.4380 O.3     1  UNL1       -0.3468
     27 C           4.8564   40.9534   10.8131 C.3     1  UNL1        0.1935
     28 C           3.8459   41.7929   11.5606 C.3     1  UNL1        0.0418
     29 C           2.7528   42.0161   10.5599 C.3     1  UNL1        0.0351
     30 C           3.2209   41.2663    9.3349 C.3     1  UNL1        0.1428
@<TRIPOS>BOND
     1     2     3   am
     2     2     4   am
     3    19     3    1
     4    19    20    1
     5    20    22    1
     6    22    25   ar
     7    23    21   ar
     8    27    23    1
     9    27    28    1
    10    27    26    1
    11    28    29    1
    12    29    30    1
    13    30    26    1
    14     8     9   ar
    15     9    13    1
    16    14    13    1
    17    14    15    1
    18    15    16    1
    19    16    17    1
    20    17    18    1
    21    18    14    1
    22    10    11   ar
    23    12     7   ar
    24    24    21   ar
    25     4     7    1
    26     2     1    2
    27    22    24   ar
    28    23    25   ar
    29     7     8   ar
    30     9    10   ar
    31    11    12   ar
    32     3     5    1
    33     4     6    1
@<TRIPOS>MOLECULE
MolPort-028-743-856 CSSS00160083590 MCULE-8390611716 PubChem-72939668
 30 33 0 0 0
SMALL
GASTEIGER

@<TRIPOS>ATOM
      1 O          12.0967   41.6968    9.7899 O.2     1  UNL1       -0.2525
      2 C          11.6839   40.6617   10.3803 C.2     1  UNL1        0.3045
      3 N          10.2878   40.4815   10.6152 N.am    1  UNL1       -0.2882
      4 N          12.5992   39.6526   10.8254 N.am    1  UNL1       -0.2682
      5 H           9.9825   39.6666   11.0755 H       1  UNL1        0.1510
      6 H          12.2082   38.8755   11.2864 H       1  UNL1        0.1564
      7 C          14.0250   39.6560   10.6699 C.ar    1  UNL1        0.0546
      8 C          14.5878   40.4270    9.6470 C.ar    1  UNL1        0.0516
      9 C          15.9731   40.4616    9.4566 C.ar    1  UNL1        0.1396
     10 C          16.8044   39.7152   10.3065 C.ar    1  UNL1        0.0370
     11 C          16.2515   38.9433   11.3307 C.ar    1  UNL1        0.0044
     12 C          14.8665   38.9137   11.5117 C.ar    1  UNL1        0.0149
     13 O          16.4947   41.2469    8.4227 O.3     1  UNL1       -0.4791
     14 C          16.2889   42.6526    8.3310 C.3     1  UNL1        0.1659
     15 C          17.6170   43.3846    8.4505 C.3     1  UNL1        0.0435
     16 C          17.9524   43.8862    7.0641 C.3     1  UNL1        0.0038
     17 C          16.6208   44.0577    6.3751 C.3     1  UNL1        0.0038
     18 C          15.7264   42.9866    6.9607 C.3     1  UNL1        0.0435
     19 C           9.3036   41.4644   10.1955 C.3     1  UNL1        0.0990
     20 C           8.9328   41.2208    8.7458 C.3     1  UNL1        0.0905
     21 O           5.5776   40.7768    7.7385 O.2     1  UNL1       -0.3348
     22 C           7.4556   41.0891    8.6102 C.ar    1  UNL1        0.1823
     23 C           5.4134   41.0648    9.0066 C.ar    1  UNL1        0.2635
     24 N           6.8432   40.7826    7.4511 N.ar    1  UNL1       -0.0605
     25 N           6.5886   41.2826    9.6261 N.ar    1  UNL1       -0.1928
     26 O           3.8017   42.4966    9.9998 O.3     1  UNL1       -0.3468
     27 C           4.0898   41.1603    9.6856 C.3     1  UNL1        0.1935
     28 C           4.0982   40.3549   10.9647 C.3     1  UNL1        0.0418
     29 C           3.3608   41.2211   11.9403 C.3     1  UNL1        0.0351
     30 C           2.9740   42.4359   11.1299 C.3     1  UNL1        0.1428
@<TRIPOS>BOND
     1     2     3   am
     2     2     4   am
     3    19     3    1
     4    19    20    1
     5    20    22    1
     6    22    25   ar
     7    23    21   ar
     8    27    23    1
     9    27    28    1
    10    27    26    1
    11    28    29    1
    12    29    30    1
    13    30    26    1
    14     8     9   ar
    15     9    13    1
    16    14    13    1
    17    14    15    1
    18    15    16    1
    19    16    17    1
    20    17    18    1
    21    18    14    1
    22    10    11   ar
    23    12     7   ar
    24    24    21   ar
    25     4     7    1
    26     2     1    2
    27    22    24   ar
    28    23    25   ar
    29     7     8   ar
    30     9    10   ar
    31    11    12   ar
    32     3     5    1
    33     4     6    1
@<TRIPOS>MOLECULE
MolPort-028-743-856 CSSS00160083590 MCULE-8390611716 PubChem-72939668
 30 33 0 0 0
SMALL
GASTEIGER

@<TRIPOS>ATOM
      1 O          11.2879   41.3230    8.0296 O.2     1  UNL1       -0.2525
      2 C          12.2830   40.5811    8.2523 C.2     1  UNL1        0.3045
      3 N          12.1166   39.3577    8.9679 N.am    1  UNL1       -0.2882
      4 N          13.5918   40.9471    7.7968 N.am    1  UNL1       -0.2682
      5 H          12.9038   38.7893    9.1313 H       1  UNL1        0.1510
      6 H          14.3236   40.3251    8.0133 H       1  UNL1        0.1564
      7 C          13.9474   42.1244    7.0589 C.ar    1  UNL1        0.0546
      8 C          15.0152   42.9058    7.5134 C.ar    1  UNL1        0.0516
      9 C          15.3985   44.0626    6.8268 C.ar    1  UNL1        0.1396
     10 C          14.7028   44.4378    5.6667 C.ar    1  UNL1        0.0370
     11 C          13.6360   43.6635    5.2052 C.ar    1  UNL1        0.0044
     12 C          13.2596   42.5108    5.8989 C.ar    1  UNL1        0.0149
     13 O          16.4728   44.8145    7.3147 O.3     1  UNL1       -0.4791
     14 C          17.7191   44.2397    7.6932 C.3     1  UNL1        0.1659
     15 C          17.6070   43.6097    9.0732 C.3     1  UNL1        0.0435
     16 C          17.5946   42.1132    8.8578 C.3     1  UNL1        0.0038
     17 C          18.3494   41.8951    7.5694 C.3     1  UNL1        0.0038
     18 C          18.0665   43.1205    6.7276 C.3     1  UNL1        0.0435
     19 C          10.8207   38.9255    9.4627 C.3     1  UNL1        0.0990
     20 C          10.2379   37.8932    8.5177 C.3     1  UNL1        0.0905
     21 O           8.0083   38.8779    5.9625 O.2     1  UNL1       -0.3348
     22 C           9.2197   38.5254    7.6337 C.ar    1  UNL1        0.1823
     23 C           7.7686   39.8009    6.8617 C.ar    1  UNL1        0.2635
     24 N           8.9121   38.0601    6.4084 N.ar    1  UNL1       -0.0605
     25 N           8.5228   39.6328    7.9641 N.ar    1  UNL1       -0.1928
     26 O           7.1327   41.6828    5.5624 O.3     1  UNL1       -0.3468
     27 C           6.7949   40.9161    6.6873 C.3     1  UNL1        0.1935
     28 C           6.8036   41.8136    7.9035 C.3     1  UNL1        0.0418
     29 C           6.7218   43.1962    7.3311 C.3     1  UNL1        0.0351
     30 C           6.6497   42.9698    5.8392 C.3     1  UNL1        0.1428
@<TRIPOS>BOND
     1     2     3   am
     2     2     4   am
     3    19     3    1
     4    19    20    1
     5    20    22    1
     6    22    25   ar
     7    23    21   ar
     8    27    23    1
     9    27    28    1
    10    27    26    1
    11    28    29    1
    12    29    30    1
    13    30    26    1
    14     8     9   ar
    15     9    13    1
    16    14    13    1
    17    14    15    1
    18    15    16    1
    19    16    17    1
    20    17    18    1
    21    18    14    1
    22    10    11   ar
    23    12     7   ar
    24    24    21   ar
    25     4     7    1
    26     2     1    2
    27    22    24   ar
    28    23    25   ar
    29     7     8   ar
    30     9    10   ar
    31    11    12   ar
    32     3     5    1
    33     4     6    1
@<TRIPOS>MOLECULE
MolPort-028-743-856 CSSS00160083590 MCULE-8390611716 PubChem-72939668
 30 33 0 0 0
SMALL
GASTEIGER

@<TRIPOS>ATOM
      1 O          11.2791   39.9948    8.0866 O.2     1  UNL1       -0.2525
      2 C          10.8073   39.9630    9.2557 C.2     1  UNL1        0.3045
      3 N          11.5423   39.3365   10.3063 N.am    1  UNL1       -0.2882
      4 N           9.5334   40.5490    9.5525 N.am    1  UNL1       -0.2682
      5 H          11.1603   39.3225   11.2136 H       1  UNL1        0.1510
      6 H           9.2231   40.4800   10.4843 H       1  UNL1        0.1564
      7 C           8.6633   41.2255    8.6348 C.ar    1  UNL1        0.0546
      8 C           7.4215   41.6771    9.0944 C.ar    1  UNL1        0.0516
      9 C           6.5394   42.3419    8.2363 C.ar    1  UNL1        0.1396
     10 C           6.9105   42.5592    6.9000 C.ar    1  UNL1        0.0370
     11 C           8.1484   42.1125    6.4325 C.ar    1  UNL1        0.0044
     12 C           9.0218   41.4479    7.2969 C.ar    1  UNL1        0.0149
     13 O           5.3080   42.7784    8.7370 O.3     1  UNL1       -0.4791
     14 C           4.2511   41.8923    9.0899 C.3     1  UNL1        0.1659
     15 C           4.7467   40.8589   10.0901 C.3     1  UNL1        0.0435
     16 C           4.1509   41.2404   11.4264 C.3     1  UNL1        0.0038
     17 C           2.8759   41.9757   11.0928 C.3     1  UNL1        0.0038
     18 C           3.1505   42.6779    9.7807 C.3     1  UNL1        0.0435
     19 C          12.8373   38.7188   10.0775 C.3     1  UNL1        0.0990
     20 C          13.8884   39.4261   10.9101 C.3     1  UNL1        0.0905
     21 O          16.6038   37.4088   11.9234 O.2     1  UNL1       -0.3348
     22 C          15.0985   38.5682   11.0436 C.ar    1  UNL1        0.1823
     23 C          16.8175   37.4711   10.6318 C.ar    1  UNL1        0.2635
     24 N          15.5362   38.0841   12.2211 N.ar    1  UNL1       -0.0605
     25 N          15.8825   38.2099   10.0054 N.ar    1  UNL1       -0.1928
     26 O          17.5844   35.5620    9.4479 O.3     1  UNL1       -0.3468
     27 C          17.9637   36.8219    9.9338 C.3     1  UNL1        0.1935
     28 C          19.1232   36.6426   10.8868 C.3     1  UNL1        0.0418
     29 C          19.6525   35.2799   10.5572 C.3     1  UNL1        0.0351
     30 C          18.7657   34.8069    9.4293 C.3     1  UNL1        0.1428
@<TRIPOS>BOND
     1     2     3   am
     2     2     4   am
     3    19     3    1
     4    19    20    1
     5    20    22    1
     6    22    25   ar
     7    23    21   ar
     8    27    23    1
     9    27    28    1
    10    27    26    1
    11    28    29    1
    12    29    30    1
    13    30    26    1
    14     8     9   ar
    15     9    13    1
    16    14    13    1
    17    14    15    1
    18    15    16    1
    19    16    17    1
    20    17    18    1
    21    18    14    1
    22    10    11   ar
    23    12     7   ar
    24    24    21   ar
    25     4     7    1
    26     2     1    2
    27    22    24   ar
    28    23    25   ar
    29     7     8   ar
    30     9    10   ar
    31    11    12   ar
    32     3     5    1
    33     4     6    1
@<TRIPOS>MOLECULE
MolPort-028-743-856 CSSS00160083590 MCULE-8390611716 PubChem-72939668
 30 33 0 0 0
SMALL
GASTEIGER

@<TRIPOS>ATOM
      1 O           8.8437   39.8624    7.6524 O.2     1  UNL1       -0.2525
      2 C           9.1525   41.0677    7.4469 C.2     1  UNL1        0.3045
      3 N           9.5438   41.4928    6.1420 N.am    1  UNL1       -0.2882
      4 N           9.1188   42.0287    8.5097 N.am    1  UNL1       -0.2682
      5 H           9.7796   42.4378    5.9985 H       1  UNL1        0.1510
      6 H           9.3804   42.9495    8.2795 H       1  UNL1        0.1564
      7 C           8.7439   41.7899    9.8733 C.ar    1  UNL1        0.0546
      8 C           7.3867   41.6492   10.1826 C.ar    1  UNL1        0.0516
      9 C           6.9732   41.4153   11.4982 C.ar    1  UNL1        0.1396
     10 C           7.9351   41.3180   12.5160 C.ar    1  UNL1        0.0370
     11 C           9.2921   41.4564   12.2164 C.ar    1  UNL1        0.0044
     12 C           9.6952   41.6917   10.8996 C.ar    1  UNL1        0.0149
     13 O           5.6062   41.2791   11.7638 O.3     1  UNL1       -0.4791
     14 C           4.6229   42.1865   11.2774 C.3     1  UNL1        0.1659
     15 C           4.5798   42.1457    9.7574 C.3     1  UNL1        0.0435
     16 C           3.3102   41.4126    9.3875 C.3     1  UNL1        0.0038
     17 C           2.3687   41.6491   10.5429 C.3     1  UNL1        0.0038
     18 C           3.2538   41.7483   11.7664 C.3     1  UNL1        0.0435
     19 C           9.6047   40.5731    5.0188 C.3     1  UNL1        0.0990
     20 C          10.9881   39.9575    4.9445 C.3     1  UNL1        0.0905
     21 O          13.1106   41.1054    7.5226 O.2     1  UNL1       -0.3348
     22 C          11.9200   40.6811    5.8532 C.ar    1  UNL1        0.1823
     23 C          13.1740   42.1152    6.6895 C.ar    1  UNL1        0.2635
     24 N          12.3344   40.1867    7.0349 N.ar    1  UNL1       -0.0605
     25 N          12.4227   41.9060    5.5922 N.ar    1  UNL1       -0.1928
     26 O          13.7757   44.2605    5.8710 O.3     1  UNL1       -0.3468
     27 C          13.9641   43.3568    6.9271 C.3     1  UNL1        0.1935
     28 C          15.4365   43.0296    7.0254 C.3     1  UNL1        0.0418
     29 C          16.1028   44.1372    6.2669 C.3     1  UNL1        0.0351
     30 C          14.9568   45.0144    5.8203 C.3     1  UNL1        0.1428
@<TRIPOS>BOND
     1     2     3   am
     2     2     4   am
     3    19     3    1
     4    19    20    1
     5    20    22    1
     6    22    25   ar
     7    23    21   ar
     8    27    23    1
     9    27    28    1
    10    27    26    1
    11    28    29    1
    12    29    30    1
    13    30    26    1
    14     8     9   ar
    15     9    13    1
    16    14    13    1
    17    14    15    1
    18    15    16    1
    19    16    17    1
    20    17    18    1
    21    18    14    1
    22    10    11   ar
    23    12     7   ar
    24    24    21   ar
    25     4     7    1
    26     2     1    2
    27    22    24   ar
    28    23    25   ar
    29     7     8   ar
    30     9    10   ar
    31    11    12   ar
    32     3     5    1
    33     4     6    1
@<TRIPOS>MOLECULE
MolPort-028-743-856 CSSS00160083590 MCULE-8390611716 PubChem-72939668
 30 33 0 0 0
SMALL
GASTEIGER

@<TRIPOS>ATOM
      1 O           9.7864   42.1072    7.8024 O.2     1  UNL1       -0.2525
      2 C           9.8418   42.1200    6.5426 C.2     1  UNL1        0.3045
      3 N           8.6404   42.1804    5.7748 N.am    1  UNL1       -0.2882
      4 N          11.1011   42.0736    5.8597 N.am    1  UNL1       -0.2682
      5 H           8.7018   42.1918    4.7923 H       1  UNL1        0.1510
      6 H          11.0692   42.0782    4.8758 H       1  UNL1        0.1564
      7 C          12.4029   42.0210    6.4593 C.ar    1  UNL1        0.0546
      8 C          12.6852   40.9922    7.3645 C.ar    1  UNL1        0.0516
      9 C          13.9406   40.9001    7.9744 C.ar    1  UNL1        0.1396
     10 C          14.9266   41.8514    7.6688 C.ar    1  UNL1        0.0370
     11 C          14.6541   42.8814    6.7659 C.ar    1  UNL1        0.0044
     12 C          13.3965   42.9660    6.1633 C.ar    1  UNL1        0.0149
     13 O          14.1816   39.8546    8.8724 O.3     1  UNL1       -0.4791
     14 C          14.5526   40.0632   10.2310 C.3     1  UNL1        0.1659
     15 C          13.5011   39.4712   11.1572 C.3     1  UNL1        0.0435
     16 C          14.1094   38.2181   11.7453 C.3     1  UNL1        0.0038
     17 C          15.5991   38.4584   11.7273 C.3     1  UNL1        0.0038
     18 C          15.8498   39.3261   10.5131 C.3     1  UNL1        0.0435
     19 C           7.3293   42.2256    6.3993 C.3     1  UNL1        0.0990
     20 C           6.9327   43.6693    6.6374 C.3     1  UNL1        0.0905
     21 O           4.2542   44.5170    8.7766 O.2     1  UNL1       -0.3348
     22 C           5.8198   43.7385    7.6245 C.ar    1  UNL1        0.1823
     23 C           4.4336   43.2596    9.1002 C.ar    1  UNL1        0.2635
     24 N           5.1038   44.8550    7.8556 N.ar    1  UNL1       -0.0605
     25 N           5.4343   42.6997    8.3949 N.ar    1  UNL1       -0.1928
     26 O           4.4524   42.2353   11.2413 O.3     1  UNL1       -0.3468
     27 C           3.6435   42.5336   10.1350 C.3     1  UNL1        0.1935
     28 C           3.1034   41.2402    9.5693 C.3     1  UNL1        0.0418
     29 C           3.2889   40.2549   10.6831 C.3     1  UNL1        0.0351
     30 C           3.8971   41.0740   11.7973 C.3     1  UNL1        0.1428
@<TRIPOS>BOND
     1     2     3   am
     2     2     4   am
     3    19     3    1
     4    19    20    1
     5    20    22    1
     6    22    25   ar
     7    23    21   ar
     8    27    23    1
     9    27    28    1
    10    27    26    1
    11    28    29    1
    12    29    30    1
    13    30    26    1
    14     8     9   ar
    15     9    13    1
    16    14    13    1
    17    14    15    1
    18    15    16    1
    19    16    17    1
    20    17    18    1
    21    18    14    1
    22    10    11   ar
    23    12     7   ar
    24    24    21   ar
    25     4     7    1
    26     2     1    2
    27    22    24   ar
    28    23    25   ar
    29     7     8   ar
    30     9    10   ar
    31    11    12   ar
    32     3     5    1
    33     4     6    1
