@<TRIPOS>MOLECULE
MolPort-002-607-856 2401556 PubChem-1635589 ZINC000002401556 ZINC02401556
 27 30 0 0 0
SMALL
GASTEIGER

@<TRIPOS>ATOM
      1 C          13.6084   35.1067    4.0253 C.ar    1  UNL1        0.1572
      2 C          14.8960   34.8404    4.4644 C.ar    1  UNL1        0.0689
      3 C          15.9411   35.6251    4.9394 C.ar    1  UNL1        0.0074
      4 C          17.1453   34.9681    5.2458 C.ar    1  UNL1        0.0176
      5 C          18.2308   35.6934    5.7399 C.ar    1  UNL1        0.0015
      6 C          19.4281   35.0408    6.0427 C.ar    1  UNL1       -0.0002
      7 C          19.5476   33.6609    5.8523 C.ar    1  UNL1       -0.0028
      8 C          18.4732   32.9150    5.3569 C.ar    1  UNL1       -0.0042
      9 C          18.6427   31.4462    5.1659 C.3     1  UNL1        0.0326
     10 C          17.2612   33.5557    5.0483 C.ar    1  UNL1        0.0789
     11 C          15.0470   33.4990    4.2736 C.ar    1  UNL1        0.1620
     12 N          13.9297   32.9819    3.7361 N.ar    1  UNL1       -0.2329
     13 N          13.0444   33.9590    3.5744 N.ar    1  UNL1       -0.1527
     14 N          16.2011   32.8438    4.5537 N.ar    1  UNL1       -0.2271
     15 C          11.5494   36.5966    3.7871 C.2     1  UNL1        0.2853
     16 N          12.9572   36.3800    3.9373 N.am    1  UNL1       -0.2618
     17 O          10.7906   35.6614    3.4181 O.2     1  UNL1       -0.2664
     18 H          13.5300   37.1793    3.9844 H       1  UNL1        0.1567
     19 C          10.9898   37.9336    4.0090 C.ar    1  UNL1        0.1988
     20 C          10.0947   38.5751    3.1794 C.ar    1  UNL1        0.0455
     21 C           9.8588   39.7947    3.7898 C.ar    1  UNL1        0.0440
     22 C          10.6227   39.8138    4.9445 C.ar    1  UNL1        0.1798
     23 O          11.2832   38.6851    5.0394 O.2     1  UNL1       -0.4458
     24 C          13.6830   31.5926    3.3804 C.3     1  UNL1        0.1292
     25 C          14.0770   31.3413    1.9334 C.3     1  UNL1        0.0264
     26 C          12.4960   31.3124    0.0067 C.3     1  UNL1        0.0001
     27 C          13.2343   32.1905    0.9994 C.3     1  UNL1        0.0021
@<TRIPOS>BOND
     1    26    27    1
     2    27    25    1
     3    25    24    1
     4    24    12    1
     5     1    16    1
     6     1     2   ar
     7    15    19    1
     8    19    23   ar
     9    20    21   ar
    10    22    23   ar
    11     3     4   ar
    12     5     6   ar
    13     7     8   ar
    14     9     8    1
    15    10    14   ar
    16    10     4   ar
    17    11    12   ar
    18    11     2   ar
    19    12    13   ar
    20    16    15   am
    21     1    13   ar
    22    15    17    2
    23    19    20   ar
    24    21    22   ar
    25     2     3   ar
    26     4     5   ar
    27     6     7   ar
    28     8    10   ar
    29    11    14   ar
    30    16    18    1
@<TRIPOS>MOLECULE
MolPort-002-607-856 2401556 PubChem-1635589 ZINC000002401556 ZINC02401556
 27 30 0 0 0
SMALL
GASTEIGER

@<TRIPOS>ATOM
      1 C          13.1136   41.0047    8.9707 C.ar    1  UNL1        0.1572
      2 C          13.2258   39.6379    9.1722 C.ar    1  UNL1        0.0689
      3 C          14.1188   38.6634    8.7403 C.ar    1  UNL1        0.0074
      4 C          13.8582   37.3389    9.1324 C.ar    1  UNL1        0.0176
      5 C          14.7217   36.3128    8.7450 C.ar    1  UNL1        0.0015
      6 C          14.4616   34.9964    9.1331 C.ar    1  UNL1       -0.0002
      7 C          13.3373   34.6982    9.9087 C.ar    1  UNL1       -0.0028
      8 C          12.4581   35.7105   10.3065 C.ar    1  UNL1       -0.0042
      9 C          11.2693   35.3499   11.1308 C.3     1  UNL1        0.0326
     10 C          12.7055   37.0403    9.9258 C.ar    1  UNL1        0.0789
     11 C          12.1289   39.3149    9.9145 C.ar    1  UNL1        0.1620
     12 N          11.3849   40.4110   10.1373 N.ar    1  UNL1       -0.2329
     13 N          11.9759   41.4505    9.5586 N.ar    1  UNL1       -0.1527
     14 N          11.8513   38.0438   10.2979 N.ar    1  UNL1       -0.2271
     15 C          13.5898   42.5741    7.0146 C.2     1  UNL1        0.2853
     16 N          13.9684   41.8497    8.1908 N.am    1  UNL1       -0.2618
     17 O          12.5318   42.2862    6.3947 O.2     1  UNL1       -0.2664
     18 H          14.9016   41.9407    8.4908 H       1  UNL1        0.1567
     19 C          14.4686   43.6246    6.4910 C.ar    1  UNL1        0.1988
     20 C          15.8252   43.7209    6.7179 C.ar    1  UNL1        0.0455
     21 C          16.2182   44.8573    6.0327 C.ar    1  UNL1        0.0440
     22 C          15.0799   45.3744    5.4376 C.ar    1  UNL1        0.1798
     23 O          14.0567   44.6102    5.7351 O.2     1  UNL1       -0.4458
     24 C          10.1394   40.4949   10.8850 C.3     1  UNL1        0.1292
     25 C          10.0580   41.8203   11.6259 C.3     1  UNL1        0.0264
     26 C           9.4605   43.9074   10.4011 C.3     1  UNL1        0.0001
     27 C           8.9197   42.6634   11.0806 C.3     1  UNL1        0.0021
@<TRIPOS>BOND
     1    26    27    1
     2    27    25    1
     3    25    24    1
     4    24    12    1
     5     1    16    1
     6     1     2   ar
     7    15    19    1
     8    19    23   ar
     9    20    21   ar
    10    22    23   ar
    11     3     4   ar
    12     5     6   ar
    13     7     8   ar
    14     9     8    1
    15    10    14   ar
    16    10     4   ar
    17    11    12   ar
    18    11     2   ar
    19    12    13   ar
    20    16    15   am
    21     1    13   ar
    22    15    17    2
    23    19    20   ar
    24    21    22   ar
    25     2     3   ar
    26     4     5   ar
    27     6     7   ar
    28     8    10   ar
    29    11    14   ar
    30    16    18    1
@<TRIPOS>MOLECULE
MolPort-002-607-856 2401556 PubChem-1635589 ZINC000002401556 ZINC02401556
 27 30 0 0 0
SMALL
GASTEIGER

@<TRIPOS>ATOM
      1 C          12.2894   40.0872    8.2781 C.ar    1  UNL1        0.1572
      2 C          13.1538   41.0680    7.8175 C.ar    1  UNL1        0.0689
      3 C          13.0807   42.0367    6.8225 C.ar    1  UNL1        0.0074
      4 C          14.2204   42.8348    6.6226 C.ar    1  UNL1        0.0176
      5 C          14.2107   43.8354    5.6494 C.ar    1  UNL1        0.0015
      6 C          15.3439   44.6273    5.4495 C.ar    1  UNL1       -0.0002
      7 C          16.4926   44.4228    6.2197 C.ar    1  UNL1       -0.0028
      8 C          16.5247   43.4249    7.1991 C.ar    1  UNL1       -0.0042
      9 C          17.7702   43.2377    7.9968 C.3     1  UNL1        0.0326
     10 C          15.3930   42.6201    7.4139 C.ar    1  UNL1        0.0789
     11 C          14.2935   40.8809    8.5419 C.ar    1  UNL1        0.1620
     12 N          14.1412   39.8414    9.3791 N.ar    1  UNL1       -0.2329
     13 N          12.9195   39.3443    9.2214 N.ar    1  UNL1       -0.1527
     14 N          15.4084   41.6321    8.3619 N.ar    1  UNL1       -0.2271
     15 C           9.7447   40.2677    8.3667 C.2     1  UNL1        0.2853
     16 N          10.9709   39.7867    7.8044 N.am    1  UNL1       -0.2618
     17 O           9.7192   40.7656    9.5234 O.2     1  UNL1       -0.2664
     18 H          10.9016   39.1953    7.0204 H       1  UNL1        0.1567
     19 C           8.4939   40.1293    7.6142 C.ar    1  UNL1        0.1988
     20 C           8.2584   39.2102    6.6138 C.ar    1  UNL1        0.0455
     21 C           6.9591   39.4568    6.2060 C.ar    1  UNL1        0.0440
     22 C           6.4929   40.5048    6.9816 C.ar    1  UNL1        0.1798
     23 O           7.4385   40.8780    7.8097 O.2     1  UNL1       -0.4458
     24 C          15.1183   39.3168   10.3210 C.3     1  UNL1        0.1292
     25 C          14.4267   38.8493   11.5920 C.3     1  UNL1        0.0264
     26 C          13.6083   36.5481   11.0942 C.3     1  UNL1        0.0001
     27 C          14.6657   37.3665   11.8109 C.3     1  UNL1        0.0021
@<TRIPOS>BOND
     1    26    27    1
     2    27    25    1
     3    25    24    1
     4    24    12    1
     5     1    16    1
     6     1     2   ar
     7    15    19    1
     8    19    23   ar
     9    20    21   ar
    10    22    23   ar
    11     3     4   ar
    12     5     6   ar
    13     7     8   ar
    14     9     8    1
    15    10    14   ar
    16    10     4   ar
    17    11    12   ar
    18    11     2   ar
    19    12    13   ar
    20    16    15   am
    21     1    13   ar
    22    15    17    2
    23    19    20   ar
    24    21    22   ar
    25     2     3   ar
    26     4     5   ar
    27     6     7   ar
    28     8    10   ar
    29    11    14   ar
    30    16    18    1
@<TRIPOS>MOLECULE
MolPort-002-607-856 2401556 PubChem-1635589 ZINC000002401556 ZINC02401556
 27 30 0 0 0
SMALL
GASTEIGER

@<TRIPOS>ATOM
      1 C          11.6672   41.3116    7.8130 C.ar    1  UNL1        0.1572
      2 C          12.8987   41.9123    7.6029 C.ar    1  UNL1        0.0689
      3 C          13.3339   42.9952    6.8470 C.ar    1  UNL1        0.0074
      4 C          14.7126   43.2687    6.8571 C.ar    1  UNL1        0.0176
      5 C          15.2158   44.3494    6.1308 C.ar    1  UNL1        0.0015
      6 C          16.5862   44.6201    6.1394 C.ar    1  UNL1       -0.0002
      7 C          17.4607   43.8120    6.8721 C.ar    1  UNL1       -0.0028
      8 C          16.9782   42.7233    7.6055 C.ar    1  UNL1       -0.0042
      9 C          17.9444   41.8850    8.3712 C.3     1  UNL1        0.0326
     10 C          15.6023   42.4376    7.6087 C.ar    1  UNL1        0.0789
     11 C          13.7771   41.1323    8.2948 C.ar    1  UNL1        0.1620
     12 N          13.1265   40.1106    8.8758 N.ar    1  UNL1       -0.2329
     13 N          11.8346   40.2076    8.5822 N.ar    1  UNL1       -0.1527
     14 N          15.1122   41.3706    8.3133 N.ar    1  UNL1       -0.2271
     15 C           9.1955   41.9256    7.9855 C.2     1  UNL1        0.2853
     16 N          10.4022   41.6844    7.2527 N.am    1  UNL1       -0.2618
     17 O           9.0775   41.5343    9.1769 O.2     1  UNL1       -0.2664
     18 H          10.3585   41.7839    6.2742 H       1  UNL1        0.1567
     19 C           8.0625   42.5840    7.3278 C.ar    1  UNL1        0.1988
     20 C           7.3185   43.6169    7.8577 C.ar    1  UNL1        0.0455
     21 C           6.3721   43.9037    6.8894 C.ar    1  UNL1        0.0440
     22 C           6.6020   43.0300    5.8401 C.ar    1  UNL1        0.1798
     23 O           7.6190   42.2588    6.1403 O.2     1  UNL1       -0.4458
     24 C          13.6971   39.0564    9.7007 C.3     1  UNL1        0.1292
     25 C          13.6441   39.4492   11.1687 C.3     1  UNL1        0.0264
     26 C          16.0659   38.8751   11.3042 C.3     1  UNL1        0.0001
     27 C          14.7065   38.7036   11.9556 C.3     1  UNL1        0.0021
@<TRIPOS>BOND
     1    26    27    1
     2    27    25    1
     3    25    24    1
     4    24    12    1
     5     1    16    1
     6     1     2   ar
     7    15    19    1
     8    19    23   ar
     9    20    21   ar
    10    22    23   ar
    11     3     4   ar
    12     5     6   ar
    13     7     8   ar
    14     9     8    1
    15    10    14   ar
    16    10     4   ar
    17    11    12   ar
    18    11     2   ar
    19    12    13   ar
    20    16    15   am
    21     1    13   ar
    22    15    17    2
    23    19    20   ar
    24    21    22   ar
    25     2     3   ar
    26     4     5   ar
    27     6     7   ar
    28     8    10   ar
    29    11    14   ar
    30    16    18    1
@<TRIPOS>MOLECULE
MolPort-002-607-856 2401556 PubChem-1635589 ZINC000002401556 ZINC02401556
 27 30 0 0 0
SMALL
GASTEIGER

@<TRIPOS>ATOM
      1 C          12.2462   41.4099    7.1215 C.ar    1  UNL1        0.1572
      2 C          11.1847   41.5380    8.0037 C.ar    1  UNL1        0.0689
      3 C          11.0768   41.8614    9.3518 C.ar    1  UNL1        0.0074
      4 C           9.7886   41.8376    9.9136 C.ar    1  UNL1        0.0176
      5 C           9.6067   42.1648   11.2584 C.ar    1  UNL1        0.0015
      6 C           8.3266   42.1393   11.8171 C.ar    1  UNL1       -0.0002
      7 C           7.2224   41.7857   11.0359 C.ar    1  UNL1       -0.0028
      8 C           7.3821   41.4527    9.6870 C.ar    1  UNL1       -0.0042
      9 C           6.1792   41.0787    8.8896 C.3     1  UNL1        0.0326
     10 C           8.6627   41.4744    9.1088 C.ar    1  UNL1        0.0789
     11 C          10.0918   41.1814    7.2709 C.ar    1  UNL1        0.1620
     12 N          10.4638   40.8404    6.0259 N.ar    1  UNL1       -0.2329
     13 N          11.7819   40.9710    5.9255 N.ar    1  UNL1       -0.1527
     14 N           8.8402   41.1427    7.7921 N.ar    1  UNL1       -0.2271
     15 C          14.4856   42.5972    6.8193 C.2     1  UNL1        0.2853
     16 N          13.6408   41.5937    7.3943 N.am    1  UNL1       -0.2618
     17 O          14.1288   43.2237    5.7864 O.2     1  UNL1       -0.2664
     18 H          14.0564   40.9733    8.0358 H       1  UNL1        0.1567
     19 C          15.8047   42.8613    7.4025 C.ar    1  UNL1        0.1988
     20 C          16.5225   44.0303    7.2634 C.ar    1  UNL1        0.0455
     21 C          17.6888   43.8158    7.9771 C.ar    1  UNL1        0.0440
     22 C          17.6033   42.5365    8.5000 C.ar    1  UNL1        0.1798
     23 O          16.4642   42.0000    8.1344 O.2     1  UNL1       -0.4458
     24 C           9.6038   40.4022    4.9370 C.3     1  UNL1        0.1292
     25 C          10.4321   39.7497    3.8414 C.3     1  UNL1        0.0264
     26 C           9.9887   37.3369    3.3999 C.3     1  UNL1        0.0001
     27 C           9.5892   38.7600    3.0579 C.3     1  UNL1        0.0021
@<TRIPOS>BOND
     1    26    27    1
     2    27    25    1
     3    25    24    1
     4    24    12    1
     5     1    16    1
     6     1     2   ar
     7    15    19    1
     8    19    23   ar
     9    20    21   ar
    10    22    23   ar
    11     3     4   ar
    12     5     6   ar
    13     7     8   ar
    14     9     8    1
    15    10    14   ar
    16    10     4   ar
    17    11    12   ar
    18    11     2   ar
    19    12    13   ar
    20    16    15   am
    21     1    13   ar
    22    15    17    2
    23    19    20   ar
    24    21    22   ar
    25     2     3   ar
    26     4     5   ar
    27     6     7   ar
    28     8    10   ar
    29    11    14   ar
    30    16    18    1
@<TRIPOS>MOLECULE
MolPort-002-607-856 2401556 PubChem-1635589 ZINC000002401556 ZINC02401556
 27 30 0 0 0
SMALL
GASTEIGER

@<TRIPOS>ATOM
      1 C          11.8847   41.8988    7.4633 C.ar    1  UNL1        0.1572
      2 C          11.0466   41.8002    8.5629 C.ar    1  UNL1        0.0689
      3 C          11.2531   41.6730    9.9322 C.ar    1  UNL1        0.0074
      4 C          10.1108   41.5499   10.7420 C.ar    1  UNL1        0.0176
      5 C          10.2452   41.4321   12.1264 C.ar    1  UNL1        0.0015
      6 C           9.1101   41.3079   12.9310 C.ar    1  UNL1       -0.0002
      7 C           7.8354   41.2993   12.3567 C.ar    1  UNL1       -0.0028
      8 C           7.6778   41.4145   10.9718 C.ar    1  UNL1       -0.0042
      9 C           6.3014   41.3982   10.3992 C.3     1  UNL1        0.0326
     10 C           8.8091   41.5414   10.1480 C.ar    1  UNL1        0.0789
     11 C           9.7921   41.7724    8.0299 C.ar    1  UNL1        0.1620
     12 N           9.8602   41.8324    6.6896 N.ar    1  UNL1       -0.2329
     13 N          11.1375   41.9041    6.3318 N.ar    1  UNL1       -0.1527
     14 N           8.6754   41.6460    8.7892 N.ar    1  UNL1       -0.2271
     15 C          14.1581   42.9699    7.0157 C.2     1  UNL1        0.2853
     16 N          13.3175   41.8943    7.4489 N.am    1  UNL1       -0.2618
     17 O          13.6907   43.9130    6.3239 O.2     1  UNL1       -0.2664
     18 H          13.7652   41.0768    7.7659 H       1  UNL1        0.1567
     19 C          15.5901   42.9482    7.3302 C.ar    1  UNL1        0.1988
     20 C          16.5132   43.8896    6.9270 C.ar    1  UNL1        0.0455
     21 C          17.7161   43.4537    7.4548 C.ar    1  UNL1        0.0440
     22 C          17.4459   42.2815    8.1405 C.ar    1  UNL1        0.1798
     23 O          16.1662   42.0135    8.0424 O.2     1  UNL1       -0.4458
     24 C           8.7501   41.8287    5.7488 C.3     1  UNL1        0.1292
     25 C           7.4340   42.0191    6.4862 C.3     1  UNL1        0.0264
     26 C           6.0520   43.8664    7.4300 C.3     1  UNL1        0.0001
     27 C           6.8905   43.4162    6.2484 C.3     1  UNL1        0.0021
@<TRIPOS>BOND
     1    26    27    1
     2    27    25    1
     3    25    24    1
     4    24    12    1
     5     1    16    1
     6     1     2   ar
     7    15    19    1
     8    19    23   ar
     9    20    21   ar
    10    22    23   ar
    11     3     4   ar
    12     5     6   ar
    13     7     8   ar
    14     9     8    1
    15    10    14   ar
    16    10     4   ar
    17    11    12   ar
    18    11     2   ar
    19    12    13   ar
    20    16    15   am
    21     1    13   ar
    22    15    17    2
    23    19    20   ar
    24    21    22   ar
    25     2     3   ar
    26     4     5   ar
    27     6     7   ar
    28     8    10   ar
    29    11    14   ar
    30    16    18    1
@<TRIPOS>MOLECULE
MolPort-002-607-856 2401556 PubChem-1635589 ZINC000002401556 ZINC02401556
 27 30 0 0 0
SMALL
GASTEIGER

@<TRIPOS>ATOM
      1 C          11.6394   41.2702    7.9130 C.ar    1  UNL1        0.1572
      2 C          10.3464   41.7395    8.0841 C.ar    1  UNL1        0.0689
      3 C           9.7798   43.0045    8.1944 C.ar    1  UNL1        0.0074
      4 C           8.3930   43.0665    8.4157 C.ar    1  UNL1        0.0176
      5 C           7.7573   44.3046    8.5227 C.ar    1  UNL1        0.0015
      6 C           6.3795   44.3662    8.7445 C.ar    1  UNL1       -0.0002
      7 C           5.6303   43.1917    8.8617 C.ar    1  UNL1       -0.0028
      8 C           6.2471   41.9407    8.7592 C.ar    1  UNL1       -0.0042
      9 C           5.4126   40.7125    8.8928 C.3     1  UNL1        0.0326
     10 C           7.6321   41.8608    8.5351 C.ar    1  UNL1        0.0789
     11 C           9.5929   40.6113    8.2188 C.ar    1  UNL1        0.1620
     12 N          10.3777   39.5231    8.1520 N.ar    1  UNL1       -0.2329
     13 N          11.6337   39.9155    7.9708 N.ar    1  UNL1       -0.1527
     14 N           8.2553   40.6451    8.4410 N.ar    1  UNL1       -0.2271
     15 C          14.1760   41.5484    7.9812 C.2     1  UNL1        0.2853
     16 N          12.8432   42.0384    7.7948 N.am    1  UNL1       -0.2618
     17 O          14.3820   40.4506    8.5636 O.2     1  UNL1       -0.2664
     18 H          12.7451   42.9905    7.5643 H       1  UNL1        0.1567
     19 C          15.3179   42.3564    7.5419 C.ar    1  UNL1        0.1988
     20 C          16.5726   42.3476    8.1135 C.ar    1  UNL1        0.0455
     21 C          17.3050   43.2582    7.3722 C.ar    1  UNL1        0.0440
     22 C          16.4511   43.7583    6.4037 C.ar    1  UNL1        0.1798
     23 O          15.2746   43.1953    6.5385 O.2     1  UNL1       -0.4458
     24 C           9.9657   38.1309    8.2499 C.3     1  UNL1        0.1292
     25 C          10.3616   37.5582    9.6017 C.3     1  UNL1        0.0264
     26 C          11.9650   35.9108   10.5652 C.3     1  UNL1        0.0001
     27 C          11.7842   37.0309    9.5580 C.3     1  UNL1        0.0021
@<TRIPOS>BOND
     1    26    27    1
     2    27    25    1
     3    25    24    1
     4    24    12    1
     5     1    16    1
     6     1     2   ar
     7    15    19    1
     8    19    23   ar
     9    20    21   ar
    10    22    23   ar
    11     3     4   ar
    12     5     6   ar
    13     7     8   ar
    14     9     8    1
    15    10    14   ar
    16    10     4   ar
    17    11    12   ar
    18    11     2   ar
    19    12    13   ar
    20    16    15   am
    21     1    13   ar
    22    15    17    2
    23    19    20   ar
    24    21    22   ar
    25     2     3   ar
    26     4     5   ar
    27     6     7   ar
    28     8    10   ar
    29    11    14   ar
    30    16    18    1
@<TRIPOS>MOLECULE
MolPort-002-607-856 2401556 PubChem-1635589 ZINC000002401556 ZINC02401556
 27 30 0 0 0
SMALL
GASTEIGER

@<TRIPOS>ATOM
      1 C           8.7075   42.3681    9.6685 C.ar    1  UNL1        0.1572
      2 C           9.6877   41.4978    9.2174 C.ar    1  UNL1        0.0689
      3 C          10.0564   41.0159    7.9662 C.ar    1  UNL1        0.0074
      4 C          11.1047   40.0803    7.9253 C.ar    1  UNL1        0.0176
      5 C          11.5345   39.5657    6.7010 C.ar    1  UNL1        0.0015
      6 C          12.5750   38.6346    6.6605 C.ar    1  UNL1       -0.0002
      7 C          13.1902   38.2118    7.8426 C.ar    1  UNL1       -0.0028
      8 C          12.7743   38.7132    9.0802 C.ar    1  UNL1       -0.0042
      9 C          13.4548   38.2345   10.3173 C.3     1  UNL1        0.0326
     10 C          11.7298   39.6514    9.1388 C.ar    1  UNL1        0.0789
     11 C          10.2953   41.0549   10.3546 C.ar    1  UNL1        0.1620
     12 N           9.7123   41.6057   11.4323 N.ar    1  UNL1       -0.2329
     13 N           8.7348   42.4071   11.0236 N.ar    1  UNL1       -0.1527
     14 N          11.3027   40.1468   10.3418 N.ar    1  UNL1       -0.2271
     15 C           6.3449   42.7045    8.7625 C.2     1  UNL1        0.2853
     16 N           7.7257   43.0631    8.8902 N.am    1  UNL1       -0.2618
     17 O           5.9448   41.5578    9.0966 O.2     1  UNL1       -0.2664
     18 H           8.0278   43.8605    8.3980 H       1  UNL1        0.1567
     19 C           5.3942   43.6593    8.1843 C.ar    1  UNL1        0.1988
     20 C           4.1550   43.9696    8.7031 C.ar    1  UNL1        0.0455
     21 C           3.6293   44.9040    7.8278 C.ar    1  UNL1        0.0440
     22 C           4.5792   45.0987    6.8394 C.ar    1  UNL1        0.1798
     23 O           5.6177   44.3378    7.0879 O.2     1  UNL1       -0.4458
     24 C          10.0621   41.3951   12.8289 C.3     1  UNL1        0.1292
     25 C           8.9744   41.9515   13.7342 C.3     1  UNL1        0.0264
     26 C           9.9718   40.4244   15.4330 C.3     1  UNL1        0.0001
     27 C           8.6806   40.9841   14.8663 C.3     1  UNL1        0.0021
@<TRIPOS>BOND
     1    26    27    1
     2    27    25    1
     3    25    24    1
     4    24    12    1
     5     1    16    1
     6     1     2   ar
     7    15    19    1
     8    19    23   ar
     9    20    21   ar
    10    22    23   ar
    11     3     4   ar
    12     5     6   ar
    13     7     8   ar
    14     9     8    1
    15    10    14   ar
    16    10     4   ar
    17    11    12   ar
    18    11     2   ar
    19    12    13   ar
    20    16    15   am
    21     1    13   ar
    22    15    17    2
    23    19    20   ar
    24    21    22   ar
    25     2     3   ar
    26     4     5   ar
    27     6     7   ar
    28     8    10   ar
    29    11    14   ar
    30    16    18    1
@<TRIPOS>MOLECULE
MolPort-002-607-856 2401556 PubChem-1635589 ZINC000002401556 ZINC02401556
 27 30 0 0 0
SMALL
GASTEIGER

@<TRIPOS>ATOM
      1 C          14.1499   40.7055    8.9996 C.ar    1  UNL1        0.1572
      2 C          12.8871   41.0241    9.4744 C.ar    1  UNL1        0.0689
      3 C          12.1625   40.6811   10.6106 C.ar    1  UNL1        0.0074
      4 C          10.8538   41.1843   10.7099 C.ar    1  UNL1        0.0176
      5 C          10.0753   40.8900   11.8306 C.ar    1  UNL1        0.0015
      6 C           8.7741   41.3886   11.9284 C.ar    1  UNL1       -0.0002
      7 C           8.2437   42.1823   10.9070 C.ar    1  UNL1       -0.0028
      8 C           9.0055   42.4882    9.7748 C.ar    1  UNL1       -0.0042
      9 C           8.4017   43.3356    8.7070 C.3     1  UNL1        0.0326
     10 C          10.3167   41.9957    9.6609 C.ar    1  UNL1        0.0789
     11 C          12.3377   41.7868    8.4870 C.ar    1  UNL1        0.1620
     12 N          13.2027   41.9117    7.4667 N.ar    1  UNL1       -0.2329
     13 N          14.3135   41.2483    7.7678 N.ar    1  UNL1       -0.1527
     14 N          11.0749   42.2769    8.5557 N.ar    1  UNL1       -0.2271
     15 C          15.2798   38.4514    9.3973 C.2     1  UNL1        0.2853
     16 N          15.1302   39.8594    9.6129 N.am    1  UNL1       -0.2618
     17 O          14.3560   37.7804    8.8655 O.2     1  UNL1       -0.2664
     18 H          15.7585   40.2849   10.2401 H       1  UNL1        0.1567
     19 C          16.4963   37.7698    9.8506 C.ar    1  UNL1        0.1988
     20 C          17.0684   37.8974   11.0985 C.ar    1  UNL1        0.0455
     21 C          18.1834   37.0783   11.0616 C.ar    1  UNL1        0.0440
     22 C          18.2153   36.5098    9.7995 C.ar    1  UNL1        0.1798
     23 O          17.1917   36.9477    9.1068 O.2     1  UNL1       -0.4458
     24 C          13.0030   42.6443    6.2254 C.3     1  UNL1        0.1292
     25 C          13.8590   43.9010    6.2119 C.3     1  UNL1        0.0264
     26 C          16.3166   44.0297    5.8157 C.3     1  UNL1        0.0001
     27 C          14.9632   43.7791    5.1776 C.3     1  UNL1        0.0021
@<TRIPOS>BOND
     1    26    27    1
     2    27    25    1
     3    25    24    1
     4    24    12    1
     5     1    16    1
     6     1     2   ar
     7    15    19    1
     8    19    23   ar
     9    20    21   ar
    10    22    23   ar
    11     3     4   ar
    12     5     6   ar
    13     7     8   ar
    14     9     8    1
    15    10    14   ar
    16    10     4   ar
    17    11    12   ar
    18    11     2   ar
    19    12    13   ar
    20    16    15   am
    21     1    13   ar
    22    15    17    2
    23    19    20   ar
    24    21    22   ar
    25     2     3   ar
    26     4     5   ar
    27     6     7   ar
    28     8    10   ar
    29    11    14   ar
    30    16    18    1
@<TRIPOS>MOLECULE
MolPort-002-607-856 2401556 PubChem-1635589 ZINC000002401556 ZINC02401556
 27 30 0 0 0
SMALL
GASTEIGER

@<TRIPOS>ATOM
      1 C          11.6353   41.8751    8.2645 C.ar    1  UNL1        0.1572
      2 C          12.5730   41.1536    8.9870 C.ar    1  UNL1        0.0689
      3 C          12.5206   40.3703   10.1347 C.ar    1  UNL1        0.0074
      4 C          13.7337   39.8300   10.5956 C.ar    1  UNL1        0.0176
      5 C          13.7512   39.0232   11.7345 C.ar    1  UNL1        0.0015
      6 C          14.9570   38.4879   12.1935 C.ar    1  UNL1       -0.0002
      7 C          16.1512   38.7568   11.5181 C.ar    1  UNL1       -0.0028
      8 C          16.1568   39.5639   10.3759 C.ar    1  UNL1       -0.0042
      9 C          17.4520   39.8284    9.6866 C.3     1  UNL1        0.0326
     10 C          14.9524   40.1095    9.9000 C.ar    1  UNL1        0.0789
     11 C          13.7549   41.4119    8.3586 C.ar    1  UNL1        0.1620
     12 N          13.5550   42.2512    7.3289 N.ar    1  UNL1       -0.2329
     13 N          12.2612   42.5458    7.2660 N.ar    1  UNL1       -0.1527
     14 N          14.9391   40.9094    8.7886 N.ar    1  UNL1       -0.2271
     15 C           9.1718   41.3603    7.8383 C.2     1  UNL1        0.2853
     16 N          10.2359   42.0158    8.5378 N.am    1  UNL1       -0.2618
     17 O           9.3733   40.8258    6.7157 O.2     1  UNL1       -0.2664
     18 H           9.9825   42.6183    9.2740 H       1  UNL1        0.1567
     19 C           7.8194   41.3584    8.4048 C.ar    1  UNL1        0.1988
     20 C           6.6701   40.9986    7.7334 C.ar    1  UNL1        0.0455
     21 C           5.6552   41.1546    8.6613 C.ar    1  UNL1        0.0440
     22 C           6.2517   41.5971    9.8299 C.ar    1  UNL1        0.1798
     23 O           7.5439   41.7062    9.6360 O.2     1  UNL1       -0.4458
     24 C          14.5542   42.7714    6.4079 C.3     1  UNL1        0.1292
     25 C          14.0753   44.0774    5.7937 C.3     1  UNL1        0.0264
     26 C          16.4542   44.5175    6.3938 C.3     1  UNL1        0.0001
     27 C          15.1759   45.1214    5.8434 C.3     1  UNL1        0.0021
@<TRIPOS>BOND
     1    26    27    1
     2    27    25    1
     3    25    24    1
     4    24    12    1
     5     1    16    1
     6     1     2   ar
     7    15    19    1
     8    19    23   ar
     9    20    21   ar
    10    22    23   ar
    11     3     4   ar
    12     5     6   ar
    13     7     8   ar
    14     9     8    1
    15    10    14   ar
    16    10     4   ar
    17    11    12   ar
    18    11     2   ar
    19    12    13   ar
    20    16    15   am
    21     1    13   ar
    22    15    17    2
    23    19    20   ar
    24    21    22   ar
    25     2     3   ar
    26     4     5   ar
    27     6     7   ar
    28     8    10   ar
    29    11    14   ar
    30    16    18    1
