@<TRIPOS>MOLECULE
MolPort-006-579-749 ChemDiv-V021-4514 MCULE-1845203336 PubChem-46040713 ZINC000037544475 ZINC37544475
 31 34 0 0 0
SMALL
GASTEIGER

@<TRIPOS>ATOM
      1 C          12.2563   40.4543   10.3583 C.3     1  UNL1        0.0971
      2 C          11.0364   40.6572   11.2503 C.3     1  UNL1        0.0435
      3 C          10.5398   42.0845   11.0856 C.3     1  UNL1        0.1015
      4 C          10.9686   41.8035    8.6556 C.2     1  UNL1        0.3112
      5 N          11.9738   40.8213    8.9695 N.am    1  UNL1       -0.2596
      6 N          10.1142   42.3055    9.7041 N.am    1  UNL1       -0.2430
      7 O          10.8376   42.2132    7.4696 O.2     1  UNL1       -0.2520
      8 C           8.8546   42.9644    9.4466 C.ar    1  UNL1        0.0565
      9 C           8.8272   44.3183    9.0733 C.ar    1  UNL1        0.0150
     10 C           7.6137   44.9680    8.8369 C.ar    1  UNL1        0.0026
     11 C           6.4116   44.2720    8.9755 C.ar    1  UNL1        0.0148
     12 C           6.4148   42.9225    9.3540 C.ar    1  UNL1        0.0515
     13 C           7.6351   42.2810    9.5882 C.ar    1  UNL1        0.0296
     14 C           3.8705   42.6255    9.2197 C.2     1  UNL1        0.2256
     15 N           5.2018   42.1733    9.5067 N.am    1  UNL1       -0.2839
     16 O           3.6551   43.8055    8.8321 O.2     1  UNL1       -0.2748
     17 H           5.2916   41.2526    9.8437 H       1  UNL1        0.1549
     18 C           2.7174   41.6997    9.4338 C.3     1  UNL1        0.0768
     19 C           2.3987   41.6026   10.9148 C.3     1  UNL1        0.0096
     20 C           3.1658   40.4912   10.2360 C.3     1  UNL1        0.0096
     21 C          12.8678   40.3222    7.9313 C.3     1  UNL1        0.1217
     22 C          15.1293   43.1274    6.7391 C.ar    1  UNL1        0.0712
     23 C          16.2537   42.9268    7.5539 C.ar    1  UNL1        0.0038
     24 C          16.2763   41.8808    8.4808 C.ar    1  UNL1       -0.0003
     25 C          15.1758   41.0279    8.5990 C.ar    1  UNL1       -0.0026
     26 C          14.0531   41.2169    7.7869 C.ar    1  UNL1       -0.0023
     27 C          14.0297   42.2670    6.8632 C.ar    1  UNL1        0.0012
     28 F          13.7920   44.7239    5.6359 F       1  UNL1       -0.1659
     29 F          15.9124   45.2742    6.1631 F       1  UNL1       -0.1659
     30 F          15.5074   43.8210    4.4934 F       1  UNL1       -0.1659
     31 C          15.0863   44.2483    5.7414 C.3     1  UNL1        0.4186
@<TRIPOS>BOND
     1    31    28    1
     2    31    29    1
     3    31    30    1
     4    31    22    1
     5    23    24   ar
     6    25    26   ar
     7    21    26    1
     8    21     5    1
     9     1     5    1
    10     1     2    1
    11     2     3    1
    12     3     6    1
    13     4     5   am
    14     9    10   ar
    15    11    12   ar
    16    12    15    1
    17    18    14    1
    18    18    19    1
    19    19    20    1
    20    20    18    1
    21    13     8   ar
    22    27    22   ar
    23     6     4   am
    24     6     8    1
    25    15    14   am
    26    22    23   ar
    27    24    25   ar
    28    26    27   ar
    29     4     7    2
    30     8     9   ar
    31    10    11   ar
    32    12    13   ar
    33    14    16    2
    34    15    17    1
@<TRIPOS>MOLECULE
MolPort-006-579-749 ChemDiv-V021-4514 MCULE-1845203336 PubChem-46040713 ZINC000037544475 ZINC37544475
 31 34 0 0 0
SMALL
GASTEIGER

@<TRIPOS>ATOM
      1 C          11.4051   41.8290    9.4463 C.3     1  UNL1        0.0971
      2 C          11.2309   40.9604   10.6874 C.3     1  UNL1        0.0435
      3 C          10.7518   39.5828   10.2590 C.3     1  UNL1        0.1015
      4 C          12.3809   39.7519    8.3922 C.2     1  UNL1        0.3112
      5 N          12.2731   41.1863    8.4579 N.am    1  UNL1       -0.2596
      6 N          11.7631   38.9455    9.4166 N.am    1  UNL1       -0.2430
      7 O          13.0172   39.2112    7.4464 O.2     1  UNL1       -0.2520
      8 C          12.1324   37.5715    9.6676 C.ar    1  UNL1        0.0565
      9 C          11.3765   36.7858   10.5533 C.ar    1  UNL1        0.0150
     10 C          11.7345   35.4612   10.8139 C.ar    1  UNL1        0.0026
     11 C          12.8562   34.9073   10.1946 C.ar    1  UNL1        0.0148
     12 C          13.6292   35.6750    9.3127 C.ar    1  UNL1        0.0515
     13 C          13.2623   37.0003    9.0584 C.ar    1  UNL1        0.0296
     14 C          16.1584   35.4538    8.9472 C.2     1  UNL1        0.2256
     15 N          14.7879   35.1426    8.6571 N.am    1  UNL1       -0.2839
     16 O          16.4586   36.3077    9.8245 O.2     1  UNL1       -0.2748
     17 H          14.6264   34.4962    7.9323 H       1  UNL1        0.1549
     18 C          17.2444   34.7941    8.1610 C.3     1  UNL1        0.0768
     19 C          18.1098   33.9503    9.0793 C.3     1  UNL1        0.0096
     20 C          18.5987   35.3046    8.6197 C.3     1  UNL1        0.0096
     21 C          12.8644   42.0195    7.4175 C.3     1  UNL1        0.1217
     22 C          16.4486   43.2251    7.0933 C.ar    1  UNL1        0.0712
     23 C          17.0901   42.4081    8.0362 C.ar    1  UNL1        0.0038
     24 C          16.3602   41.4669    8.7678 C.ar    1  UNL1       -0.0003
     25 C          14.9845   41.3355    8.5613 C.ar    1  UNL1       -0.0026
     26 C          14.3377   42.1418    7.6193 C.ar    1  UNL1       -0.0023
     27 C          15.0684   43.0867    6.8915 C.ar    1  UNL1        0.0012
     28 F          16.4106   45.3408    6.0555 F       1  UNL1       -0.1659
     29 F          18.3246   44.6497    7.0229 F       1  UNL1       -0.1659
     30 F          17.6387   43.7201    5.0918 F       1  UNL1       -0.1659
     31 C          17.2163   44.2441    6.3020 C.3     1  UNL1        0.4186
@<TRIPOS>BOND
     1    31    28    1
     2    31    29    1
     3    31    30    1
     4    31    22    1
     5    23    24   ar
     6    25    26   ar
     7    21    26    1
     8    21     5    1
     9     1     5    1
    10     1     2    1
    11     2     3    1
    12     3     6    1
    13     4     5   am
    14     9    10   ar
    15    11    12   ar
    16    12    15    1
    17    18    14    1
    18    18    19    1
    19    19    20    1
    20    20    18    1
    21    13     8   ar
    22    27    22   ar
    23     6     4   am
    24     6     8    1
    25    15    14   am
    26    22    23   ar
    27    24    25   ar
    28    26    27   ar
    29     4     7    2
    30     8     9   ar
    31    10    11   ar
    32    12    13   ar
    33    14    16    2
    34    15    17    1
@<TRIPOS>MOLECULE
MolPort-006-579-749 ChemDiv-V021-4514 MCULE-1845203336 PubChem-46040713 ZINC000037544475 ZINC37544475
 31 34 0 0 0
SMALL
GASTEIGER

@<TRIPOS>ATOM
      1 C          12.7290   40.8138    7.1711 C.3     1  UNL1        0.0971
      2 C          11.3568   41.4745    7.0959 C.3     1  UNL1        0.0435
      3 C          10.3981   40.7194    8.0022 C.3     1  UNL1        0.1015
      4 C          12.2583   40.6113    9.6440 C.2     1  UNL1        0.3112
      5 N          13.1953   40.6993    8.5542 N.am    1  UNL1       -0.2596
      6 N          10.8521   40.8091    9.3894 N.am    1  UNL1       -0.2430
      7 O          12.6713   40.3685   10.8112 O.2     1  UNL1       -0.2520
      8 C           9.9011   41.1327   10.4277 C.ar    1  UNL1        0.0565
      9 C          10.2576   41.0018   11.7801 C.ar    1  UNL1        0.0150
     10 C           9.3402   41.2977   12.7907 C.ar    1  UNL1        0.0026
     11 C           8.0527   41.7244   12.4607 C.ar    1  UNL1        0.0148
     12 C           7.6730   41.8554   11.1179 C.ar    1  UNL1        0.0515
     13 C           8.5989   41.5567   10.1134 C.ar    1  UNL1        0.0296
     14 C           5.1134   41.6879   11.1131 C.2     1  UNL1        0.2256
     15 N           6.3606   42.2907   10.7383 N.am    1  UNL1       -0.2839
     16 O           5.0833   40.6377   11.8096 O.2     1  UNL1       -0.2748
     17 H           6.3098   43.0859   10.1602 H       1  UNL1        0.1549
     18 C           3.8329   42.2847   10.6266 C.3     1  UNL1        0.0768
     19 C           3.3948   41.5983    9.3456 C.3     1  UNL1        0.0096
     20 C           4.0527   42.9576    9.2835 C.3     1  UNL1        0.0096
     21 C          14.6176   40.4737    8.7834 C.3     1  UNL1        0.1217
     22 C          15.6210   43.5146    6.7459 C.ar    1  UNL1        0.0712
     23 C          16.9083   43.7579    7.2480 C.ar    1  UNL1        0.0038
     24 C          17.4472   42.9327    8.2392 C.ar    1  UNL1       -0.0003
     25 C          16.7035   41.8585    8.7345 C.ar    1  UNL1       -0.0026
     26 C          15.4218   41.6050    8.2359 C.ar    1  UNL1       -0.0023
     27 C          14.8817   42.4345    7.2476 C.ar    1  UNL1        0.0012
     28 F          15.4377   45.6988    5.8799 F       1  UNL1       -0.1659
     29 F          15.4491   43.9662    4.4394 F       1  UNL1       -0.1659
     30 F          13.6415   44.3525    5.7228 F       1  UNL1       -0.1659
     31 C          15.0251   44.3933    5.6845 C.3     1  UNL1        0.4186
@<TRIPOS>BOND
     1    31    28    1
     2    31    29    1
     3    31    30    1
     4    31    22    1
     5    23    24   ar
     6    25    26   ar
     7    21    26    1
     8    21     5    1
     9     1     5    1
    10     1     2    1
    11     2     3    1
    12     3     6    1
    13     4     5   am
    14     9    10   ar
    15    11    12   ar
    16    12    15    1
    17    18    14    1
    18    18    19    1
    19    19    20    1
    20    20    18    1
    21    13     8   ar
    22    27    22   ar
    23     6     4   am
    24     6     8    1
    25    15    14   am
    26    22    23   ar
    27    24    25   ar
    28    26    27   ar
    29     4     7    2
    30     8     9   ar
    31    10    11   ar
    32    12    13   ar
    33    14    16    2
    34    15    17    1
@<TRIPOS>MOLECULE
MolPort-006-579-749 ChemDiv-V021-4514 MCULE-1845203336 PubChem-46040713 ZINC000037544475 ZINC37544475
 31 34 0 0 0
SMALL
GASTEIGER

@<TRIPOS>ATOM
      1 C           7.7261   41.4059    7.5204 C.3     1  UNL1        0.0971
      2 C           8.3982   40.0421    7.6358 C.3     1  UNL1        0.0435
      3 C           9.8878   40.2058    7.3802 C.3     1  UNL1        0.1015
      4 C           9.7531   42.2703    8.7539 C.2     1  UNL1        0.3112
      5 N           8.3659   42.3957    8.3890 N.am    1  UNL1       -0.2596
      6 N          10.4745   41.0713    8.4026 N.am    1  UNL1       -0.2430
      7 O          10.3257   43.2032    9.3814 O.2     1  UNL1       -0.2520
      8 C          11.7076   40.6770    9.0437 C.ar    1  UNL1        0.0565
      9 C          11.6869   39.7929   10.1350 C.ar    1  UNL1        0.0150
     10 C          12.8725   39.4178   10.7708 C.ar    1  UNL1        0.0026
     11 C          14.0938   39.9263   10.3253 C.ar    1  UNL1        0.0148
     12 C          14.1375   40.8154    9.2426 C.ar    1  UNL1        0.0515
     13 C          12.9448   41.1847    8.6127 C.ar    1  UNL1        0.0296
     14 C          15.5358   42.2670    7.6561 C.2     1  UNL1        0.2256
     15 N          15.3715   41.3592    8.7553 N.am    1  UNL1       -0.2839
     16 O          14.5475   42.6381    6.9672 O.2     1  UNL1       -0.2748
     17 H          16.1915   41.0808    9.2236 H       1  UNL1        0.1549
     18 C          16.9057   42.7382    7.2902 C.3     1  UNL1        0.0768
     19 C          17.9255   42.1712    8.2613 C.3     1  UNL1        0.0096
     20 C          17.4691   43.6052    8.4020 C.3     1  UNL1        0.0096
     21 C           7.6255   43.6108    8.7079 C.3     1  UNL1        0.1217
     22 C           4.5283   42.0029   10.2002 C.ar    1  UNL1        0.0712
     23 C           3.5154   42.7340    9.5616 C.ar    1  UNL1        0.0038
     24 C           3.8401   43.7397    8.6467 C.ar    1  UNL1       -0.0003
     25 C           5.1792   44.0207    8.3634 C.ar    1  UNL1       -0.0026
     26 C           6.1953   43.2931    8.9909 C.ar    1  UNL1       -0.0023
     27 C           5.8691   42.2904    9.9100 C.ar    1  UNL1        0.0012
     28 F           3.3642   41.4313   12.1680 F       1  UNL1       -0.1659
     29 F           3.5530   39.8847   10.5404 F       1  UNL1       -0.1659
     30 F           5.3434   40.4296   11.7900 F       1  UNL1       -0.1659
     31 C           4.1975   40.9224   11.1886 C.3     1  UNL1        0.4186
@<TRIPOS>BOND
     1    31    28    1
     2    31    29    1
     3    31    30    1
     4    31    22    1
     5    23    24   ar
     6    25    26   ar
     7    21    26    1
     8    21     5    1
     9     1     5    1
    10     1     2    1
    11     2     3    1
    12     3     6    1
    13     4     5   am
    14     9    10   ar
    15    11    12   ar
    16    12    15    1
    17    18    14    1
    18    18    19    1
    19    19    20    1
    20    20    18    1
    21    13     8   ar
    22    27    22   ar
    23     6     4   am
    24     6     8    1
    25    15    14   am
    26    22    23   ar
    27    24    25   ar
    28    26    27   ar
    29     4     7    2
    30     8     9   ar
    31    10    11   ar
    32    12    13   ar
    33    14    16    2
    34    15    17    1
@<TRIPOS>MOLECULE
MolPort-006-579-749 ChemDiv-V021-4514 MCULE-1845203336 PubChem-46040713 ZINC000037544475 ZINC37544475
 31 34 0 0 0
SMALL
GASTEIGER

@<TRIPOS>ATOM
      1 C          11.6012   40.0814    5.7366 C.3     1  UNL1        0.0971
      2 C          10.4052   40.4824    4.8799 C.3     1  UNL1        0.0435
      3 C           9.1335   40.2837    5.6887 C.3     1  UNL1        0.1015
      4 C          10.3749   41.2452    7.6127 C.2     1  UNL1        0.3112
      5 N          11.6044   40.7874    7.0192 N.am    1  UNL1       -0.2596
      6 N           9.1477   41.1604    6.8590 N.am    1  UNL1       -0.2430
      7 O          10.3790   41.7212    8.7811 O.2     1  UNL1       -0.2520
      8 C           7.9689   41.9302    7.1833 C.ar    1  UNL1        0.0565
      9 C           7.7754   43.2011    6.6171 C.ar    1  UNL1        0.0150
     10 C           6.6466   43.9590    6.9362 C.ar    1  UNL1        0.0026
     11 C           5.6990   43.4565    7.8296 C.ar    1  UNL1        0.0148
     12 C           5.8751   42.1938    8.4120 C.ar    1  UNL1        0.0515
     13 C           7.0087   41.4427    8.0858 C.ar    1  UNL1        0.0296
     14 C           3.5897   42.1107    9.5736 C.2     1  UNL1        0.2256
     15 N           4.9249   41.6428    9.3336 N.am    1  UNL1       -0.2839
     16 O           3.1450   43.1340    8.9869 O.2     1  UNL1       -0.2748
     17 H           5.2192   40.8621    9.8562 H       1  UNL1        0.1549
     18 C           2.7319   41.4049   10.5729 C.3     1  UNL1        0.0768
     19 C           2.4303   42.3271   11.7403 C.3     1  UNL1        0.0096
     20 C           3.4829   41.2519   11.8835 C.3     1  UNL1        0.0096
     21 C          12.8513   40.8362    7.7736 C.3     1  UNL1        0.1217
     22 C          15.8849   43.0516    7.2304 C.ar    1  UNL1        0.0712
     23 C          15.3946   43.9409    6.2624 C.ar    1  UNL1        0.0038
     24 C          14.0826   43.8226    5.7949 C.ar    1  UNL1       -0.0003
     25 C          13.2518   42.8152    6.2924 C.ar    1  UNL1       -0.0026
     26 C          13.7302   41.9280    7.2616 C.ar    1  UNL1       -0.0023
     27 C          15.0449   42.0442    7.7248 C.ar    1  UNL1        0.0012
     28 F          18.1405   43.4739    6.6935 F       1  UNL1       -0.1659
     29 F          17.3621   44.1616    8.6930 F       1  UNL1       -0.1659
     30 F          17.7097   41.9712    8.3121 F       1  UNL1       -0.1659
     31 C          17.2925   43.1615    7.7404 C.3     1  UNL1        0.4186
@<TRIPOS>BOND
     1    31    28    1
     2    31    29    1
     3    31    30    1
     4    31    22    1
     5    23    24   ar
     6    25    26   ar
     7    21    26    1
     8    21     5    1
     9     1     5    1
    10     1     2    1
    11     2     3    1
    12     3     6    1
    13     4     5   am
    14     9    10   ar
    15    11    12   ar
    16    12    15    1
    17    18    14    1
    18    18    19    1
    19    19    20    1
    20    20    18    1
    21    13     8   ar
    22    27    22   ar
    23     6     4   am
    24     6     8    1
    25    15    14   am
    26    22    23   ar
    27    24    25   ar
    28    26    27   ar
    29     4     7    2
    30     8     9   ar
    31    10    11   ar
    32    12    13   ar
    33    14    16    2
    34    15    17    1
@<TRIPOS>MOLECULE
MolPort-006-579-749 ChemDiv-V021-4514 MCULE-1845203336 PubChem-46040713 ZINC000037544475 ZINC37544475
 31 34 0 0 0
SMALL
GASTEIGER

@<TRIPOS>ATOM
      1 C          11.5296   40.0642    6.4663 C.3     1  UNL1        0.0971
      2 C          10.2801   39.3725    7.0006 C.3     1  UNL1        0.0435
      3 C          10.3434   39.3492    8.5193 C.3     1  UNL1        0.1015
      4 C          11.1928   41.6787    8.3788 C.2     1  UNL1        0.3112
      5 N          11.7101   41.3871    7.0670 N.am    1  UNL1       -0.2596
      6 N          10.3424   40.7169    9.0370 N.am    1  UNL1       -0.2430
      7 O          11.4801   42.7715    8.9401 O.2     1  UNL1       -0.2520
      8 C           9.4711   41.0583   10.1376 C.ar    1  UNL1        0.0565
      9 C           9.9402   40.9885   11.4598 C.ar    1  UNL1        0.0150
     10 C           9.1009   41.3019   12.5312 C.ar    1  UNL1        0.0026
     11 C           7.7798   41.6851   12.2932 C.ar    1  UNL1        0.0148
     12 C           7.2884   41.7548   10.9824 C.ar    1  UNL1        0.0515
     13 C           8.1368   41.4390    9.9165 C.ar    1  UNL1        0.0296
     14 C           5.2930   42.1306    9.4150 C.2     1  UNL1        0.2256
     15 N           5.9382   42.1440   10.6967 N.am    1  UNL1       -0.2839
     16 O           5.9225   41.7984    8.3746 O.2     1  UNL1       -0.2748
     17 H           5.3976   42.4527   11.4594 H       1  UNL1        0.1549
     18 C           3.8683   42.5673    9.3045 C.3     1  UNL1        0.0768
     19 C           3.1252   42.2414   10.5875 C.3     1  UNL1        0.0096
     20 C           2.9501   41.3601    9.3721 C.3     1  UNL1        0.0096
     21 C          12.5952   42.3316    6.3957 C.3     1  UNL1        0.1217
     22 C          16.2409   43.1182    7.0999 C.ar    1  UNL1        0.0712
     23 C          16.5216   42.1908    8.1146 C.ar    1  UNL1        0.0038
     24 C          15.5311   41.3116    8.5613 C.ar    1  UNL1       -0.0003
     25 C          14.2537   41.3528    7.9964 C.ar    1  UNL1       -0.0026
     26 C          13.9666   42.2700    6.9807 C.ar    1  UNL1       -0.0023
     27 C          14.9572   43.1528    6.5380 C.ar    1  UNL1        0.0012
     28 F          18.0015   43.4891    5.5778 F       1  UNL1       -0.1659
     29 F          16.6874   45.2279    6.1493 F       1  UNL1       -0.1659
     30 F          18.1731   44.4055    7.6258 F       1  UNL1       -0.1659
     31 C          17.2915   44.0727    6.6112 C.3     1  UNL1        0.4186
@<TRIPOS>BOND
     1    31    28    1
     2    31    29    1
     3    31    30    1
     4    31    22    1
     5    23    24   ar
     6    25    26   ar
     7    21    26    1
     8    21     5    1
     9     1     5    1
    10     1     2    1
    11     2     3    1
    12     3     6    1
    13     4     5   am
    14     9    10   ar
    15    11    12   ar
    16    12    15    1
    17    18    14    1
    18    18    19    1
    19    19    20    1
    20    20    18    1
    21    13     8   ar
    22    27    22   ar
    23     6     4   am
    24     6     8    1
    25    15    14   am
    26    22    23   ar
    27    24    25   ar
    28    26    27   ar
    29     4     7    2
    30     8     9   ar
    31    10    11   ar
    32    12    13   ar
    33    14    16    2
    34    15    17    1
@<TRIPOS>MOLECULE
MolPort-006-579-749 ChemDiv-V021-4514 MCULE-1845203336 PubChem-46040713 ZINC000037544475 ZINC37544475
 31 34 0 0 0
SMALL
GASTEIGER

@<TRIPOS>ATOM
      1 C           9.9383   40.6712    9.1747 C.3     1  UNL1        0.0971
      2 C          10.7289   41.2455   10.3452 C.3     1  UNL1        0.0435
      3 C          11.6206   40.1554   10.9173 C.3     1  UNL1        0.1015
      4 C          12.0955   39.5069    8.5675 C.2     1  UNL1        0.3112
      5 N          10.8198   40.0525    8.1828 N.am    1  UNL1       -0.2596
      6 N          12.5855   39.7227    9.9072 N.am    1  UNL1       -0.2430
      7 O          12.7773   38.8511    7.7327 O.2     1  UNL1       -0.2520
      8 C          13.9758   39.5755   10.2712 C.ar    1  UNL1        0.0565
      9 C          14.3451   38.7268   11.3278 C.ar    1  UNL1        0.0150
     10 C          15.6850   38.5897   11.6968 C.ar    1  UNL1        0.0026
     11 C          16.6724   39.3037   11.0157 C.ar    1  UNL1        0.0148
     12 C          16.3262   40.1618    9.9629 C.ar    1  UNL1        0.0515
     13 C          14.9817   40.2920    9.6011 C.ar    1  UNL1        0.0296
     14 C          17.0657   41.9618    8.2918 C.2     1  UNL1        0.2256
     15 N          17.3106   40.9120    9.2390 N.am    1  UNL1       -0.2839
     16 O          15.8903   42.2881    7.9738 O.2     1  UNL1       -0.2748
     17 H          18.2528   40.6830    9.4095 H       1  UNL1        0.1549
     18 C          18.2214   42.6426    7.6335 C.3     1  UNL1        0.0768
     19 C          18.1037   44.1462    7.8052 C.3     1  UNL1        0.0096
     20 C          17.7283   43.5078    6.4876 C.3     1  UNL1        0.0096
     21 C          10.2918   39.8216    6.8433 C.3     1  UNL1        0.1217
     22 C           7.2179   42.0472    6.7854 C.ar    1  UNL1        0.0712
     23 C           6.2097   41.1017    6.5444 C.ar    1  UNL1        0.0038
     24 C           6.5295   39.7478    6.4080 C.ar    1  UNL1       -0.0003
     25 C           7.8588   39.3299    6.5122 C.ar    1  UNL1       -0.0026
     26 C           8.8694   40.2646    6.7580 C.ar    1  UNL1       -0.0023
     27 C           8.5488   41.6197    6.8893 C.ar    1  UNL1        0.0012
     28 F           5.5749   43.6486    7.3241 F       1  UNL1       -0.1659
     29 F           7.7152   44.0694    7.8886 F       1  UNL1       -0.1659
     30 F           7.0761   44.1782    5.7338 F       1  UNL1       -0.1659
     31 C           6.8928   43.5056    6.9303 C.3     1  UNL1        0.4186
@<TRIPOS>BOND
     1    31    28    1
     2    31    29    1
     3    31    30    1
     4    31    22    1
     5    23    24   ar
     6    25    26   ar
     7    21    26    1
     8    21     5    1
     9     1     5    1
    10     1     2    1
    11     2     3    1
    12     3     6    1
    13     4     5   am
    14     9    10   ar
    15    11    12   ar
    16    12    15    1
    17    18    14    1
    18    18    19    1
    19    19    20    1
    20    20    18    1
    21    13     8   ar
    22    27    22   ar
    23     6     4   am
    24     6     8    1
    25    15    14   am
    26    22    23   ar
    27    24    25   ar
    28    26    27   ar
    29     4     7    2
    30     8     9   ar
    31    10    11   ar
    32    12    13   ar
    33    14    16    2
    34    15    17    1
@<TRIPOS>MOLECULE
MolPort-006-579-749 ChemDiv-V021-4514 MCULE-1845203336 PubChem-46040713 ZINC000037544475 ZINC37544475
 31 34 0 0 0
SMALL
GASTEIGER

@<TRIPOS>ATOM
      1 C          11.4559   42.1521    8.8696 C.3     1  UNL1        0.0971
      2 C          11.6227   41.4622   10.2191 C.3     1  UNL1        0.0435
      3 C          11.0505   40.0569   10.1261 C.3     1  UNL1        0.1015
      4 C          12.1201   39.9217    7.8889 C.2     1  UNL1        0.3112
      5 N          12.0297   41.3549    7.7839 N.am    1  UNL1       -0.2596
      6 N          11.8014   39.2796    9.1409 N.am    1  UNL1       -0.2430
      7 O          12.4817   39.2390    6.8913 O.2     1  UNL1       -0.2520
      8 C          12.2283   37.9394    9.4705 C.ar    1  UNL1        0.0565
      9 C          11.3785   37.0823   10.1891 C.ar    1  UNL1        0.0150
     10 C          11.7883   35.7902   10.5254 C.ar    1  UNL1        0.0026
     11 C          13.0557   35.3409   10.1508 C.ar    1  UNL1        0.0148
     12 C          13.9229   36.1815    9.4396 C.ar    1  UNL1        0.0515
     13 C          13.5032   37.4734    9.1075 C.ar    1  UNL1        0.0296
     14 C          15.6002   34.4629    8.5379 C.2     1  UNL1        0.2256
     15 N          15.2320   35.7571    9.0366 N.am    1  UNL1       -0.2839
     16 O          14.7530   33.5330    8.4576 O.2     1  UNL1       -0.2748
     17 H          15.9533   36.4231    9.1097 H       1  UNL1        0.1549
     18 C          17.0208   34.1985    8.1576 C.3     1  UNL1        0.0768
     19 C          17.1342   32.8403    7.4892 C.3     1  UNL1        0.0096
     20 C          17.5507   33.0054    8.9327 C.3     1  UNL1        0.0096
     21 C          12.3185   42.0222    6.5199 C.3     1  UNL1        0.1217
     22 C          15.9066   42.8428    7.4456 C.ar    1  UNL1        0.0712
     23 C          16.1279   43.9866    6.6638 C.ar    1  UNL1        0.0038
     24 C          15.1124   44.4898    5.8456 C.ar    1  UNL1       -0.0003
     25 C          13.8689   43.8537    5.8040 C.ar    1  UNL1       -0.0026
     26 C          13.6377   42.7165    6.5842 C.ar    1  UNL1       -0.0023
     27 C          14.6563   42.2110    7.3987 C.ar    1  UNL1        0.0012
     28 F          18.0906   41.9641    7.5574 F       1  UNL1       -0.1659
     29 F          17.3516   43.2340    9.2657 F       1  UNL1       -0.1659
     30 F          16.5557   41.1478    8.9860 F       1  UNL1       -0.1659
     31 C          16.9874   42.2864    8.3266 C.3     1  UNL1        0.4186
@<TRIPOS>BOND
     1    31    28    1
     2    31    29    1
     3    31    30    1
     4    31    22    1
     5    23    24   ar
     6    25    26   ar
     7    21    26    1
     8    21     5    1
     9     1     5    1
    10     1     2    1
    11     2     3    1
    12     3     6    1
    13     4     5   am
    14     9    10   ar
    15    11    12   ar
    16    12    15    1
    17    18    14    1
    18    18    19    1
    19    19    20    1
    20    20    18    1
    21    13     8   ar
    22    27    22   ar
    23     6     4   am
    24     6     8    1
    25    15    14   am
    26    22    23   ar
    27    24    25   ar
    28    26    27   ar
    29     4     7    2
    30     8     9   ar
    31    10    11   ar
    32    12    13   ar
    33    14    16    2
    34    15    17    1
@<TRIPOS>MOLECULE
MolPort-006-579-749 ChemDiv-V021-4514 MCULE-1845203336 PubChem-46040713 ZINC000037544475 ZINC37544475
 31 34 0 0 0
SMALL
GASTEIGER

@<TRIPOS>ATOM
      1 C          11.9160   40.0607    6.2094 C.3     1  UNL1        0.0971
      2 C          10.9125   40.6138    5.2034 C.3     1  UNL1        0.0435
      3 C           9.5067   40.3726    5.7291 C.3     1  UNL1        0.1015
      4 C          10.3779   41.0385    7.9574 C.2     1  UNL1        0.3112
      5 N          11.6888   40.6043    7.5496 N.am    1  UNL1       -0.2596
      6 N           9.3148   41.0988    6.9839 N.am    1  UNL1       -0.2430
      7 O          10.1688   41.3681    9.1572 O.2     1  UNL1       -0.2520
      8 C           8.1107   41.8729    7.1787 C.ar    1  UNL1        0.0565
      9 C           7.9450   43.1022    6.5195 C.ar    1  UNL1        0.0150
     10 C           6.7912   43.8649    6.7132 C.ar    1  UNL1        0.0026
     11 C           5.7901   43.4090    7.5727 C.ar    1  UNL1        0.0148
     12 C           5.9374   42.1888    8.2464 C.ar    1  UNL1        0.0515
     13 C           7.0964   41.4325    8.0456 C.ar    1  UNL1        0.0296
     14 C           3.6923   42.3222    9.4799 C.2     1  UNL1        0.2256
     15 N           4.9323   41.6863    9.1371 N.am    1  UNL1       -0.2839
     16 O           3.4013   43.4629    9.0293 O.2     1  UNL1       -0.2748
     17 H           5.1115   40.8142    9.5572 H       1  UNL1        0.1549
     18 C           2.7559   41.6447   10.4268 C.3     1  UNL1        0.0768
     19 C           3.0943   42.0303   11.8554 C.3     1  UNL1        0.0096
     20 C           3.5247   40.6850   11.3174 C.3     1  UNL1        0.0096
     21 C          12.7704   40.5076    8.5229 C.3     1  UNL1        0.1217
     22 C          14.8567   43.1240    6.7322 C.ar    1  UNL1        0.0712
     23 C          16.1110   42.9150    7.3249 C.ar    1  UNL1        0.0038
     24 C          16.2764   41.9241    8.2967 C.ar    1  UNL1       -0.0003
     25 C          15.1894   41.1351    8.6821 C.ar    1  UNL1       -0.0026
     26 C          13.9368   41.3326    8.0925 C.ar    1  UNL1       -0.0023
     27 C          13.7715   42.3279    7.1237 C.ar    1  UNL1        0.0012
     28 F          15.2183   45.3734    6.1290 F       1  UNL1       -0.1659
     29 F          15.2808   43.8021    4.5154 F       1  UNL1       -0.1659
     30 F          13.3147   44.3934    5.4367 F       1  UNL1       -0.1659
     31 C          14.6603   44.1866    5.6900 C.3     1  UNL1        0.4186
@<TRIPOS>BOND
     1    31    28    1
     2    31    29    1
     3    31    30    1
     4    31    22    1
     5    23    24   ar
     6    25    26   ar
     7    21    26    1
     8    21     5    1
     9     1     5    1
    10     1     2    1
    11     2     3    1
    12     3     6    1
    13     4     5   am
    14     9    10   ar
    15    11    12   ar
    16    12    15    1
    17    18    14    1
    18    18    19    1
    19    19    20    1
    20    20    18    1
    21    13     8   ar
    22    27    22   ar
    23     6     4   am
    24     6     8    1
    25    15    14   am
    26    22    23   ar
    27    24    25   ar
    28    26    27   ar
    29     4     7    2
    30     8     9   ar
    31    10    11   ar
    32    12    13   ar
    33    14    16    2
    34    15    17    1
@<TRIPOS>MOLECULE
MolPort-006-579-749 ChemDiv-V021-4514 MCULE-1845203336 PubChem-46040713 ZINC000037544475 ZINC37544475
 31 34 0 0 0
SMALL
GASTEIGER

@<TRIPOS>ATOM
      1 C          12.6360   41.0832    9.6481 C.3     1  UNL1        0.0971
      2 C          11.3203   40.9572   10.4084 C.3     1  UNL1        0.0435
      3 C          10.3858   42.0692    9.9599 C.3     1  UNL1        0.1015
      4 C          11.1838   41.6167    7.6521 C.2     1  UNL1        0.3112
      5 N          12.4190   41.1200    8.2007 N.am    1  UNL1       -0.2596
      6 N          10.0852   41.9208    8.5365 N.am    1  UNL1       -0.2430
      7 O          11.0678   41.7767    6.4060 O.2     1  UNL1       -0.2520
      8 C           8.7180   42.0359    8.0842 C.ar    1  UNL1        0.0565
      9 C           8.4316   42.6094    6.8343 C.ar    1  UNL1        0.0150
     10 C           7.1122   42.7386    6.3951 C.ar    1  UNL1        0.0026
     11 C           6.0621   42.2996    7.2032 C.ar    1  UNL1        0.0148
     12 C           6.3241   41.7308    8.4571 C.ar    1  UNL1        0.0515
     13 C           7.6487   41.6057    8.8877 C.ar    1  UNL1        0.0296
     14 C           5.3042   41.1951   10.7489 C.2     1  UNL1        0.2256
     15 N           5.2734   41.2679    9.3161 N.am    1  UNL1       -0.2839
     16 O           6.3412   41.5095   11.3929 O.2     1  UNL1       -0.2748
     17 H           4.4445   40.9687    8.8771 H       1  UNL1        0.1549
     18 C           4.1065   40.6891   11.4852 C.3     1  UNL1        0.0768
     19 C           2.8533   40.9274   10.6624 C.3     1  UNL1        0.0096
     20 C           3.1787   41.8434   11.8198 C.3     1  UNL1        0.0096
     21 C          13.5521   40.8343    7.3285 C.3     1  UNL1        0.1217
     22 C          16.3653   43.3742    7.5267 C.ar    1  UNL1        0.0712
     23 C          15.9034   44.3527    6.6336 C.ar    1  UNL1        0.0038
     24 C          14.6808   44.1880    5.9764 C.ar    1  UNL1       -0.0003
     25 C          13.9114   43.0448    6.2081 C.ar    1  UNL1       -0.0026
     26 C          14.3613   42.0671    7.1010 C.ar    1  UNL1       -0.0023
     27 C          15.5873   42.2307    7.7541 C.ar    1  UNL1        0.0012
     28 F          18.4414   44.4878    7.5912 F       1  UNL1       -0.1659
     29 F          17.4519   43.9398    9.5399 F       1  UNL1       -0.1659
     30 F          18.3806   42.3398    8.2588 F       1  UNL1       -0.1659
     31 C          17.6780   43.5329    8.2377 C.3     1  UNL1        0.4186
@<TRIPOS>BOND
     1    31    28    1
     2    31    29    1
     3    31    30    1
     4    31    22    1
     5    23    24   ar
     6    25    26   ar
     7    21    26    1
     8    21     5    1
     9     1     5    1
    10     1     2    1
    11     2     3    1
    12     3     6    1
    13     4     5   am
    14     9    10   ar
    15    11    12   ar
    16    12    15    1
    17    18    14    1
    18    18    19    1
    19    19    20    1
    20    20    18    1
    21    13     8   ar
    22    27    22   ar
    23     6     4   am
    24     6     8    1
    25    15    14   am
    26    22    23   ar
    27    24    25   ar
    28    26    27   ar
    29     4     7    2
    30     8     9   ar
    31    10    11   ar
    32    12    13   ar
    33    14    16    2
    34    15    17    1
