@<TRIPOS>MOLECULE
MolPort-019-899-714 67934156 CSSS00160035898 MCULE-6205844426 PubChem-56757329 ZINC000067934156
 26 28 0 0 0
SMALL
GASTEIGER

@<TRIPOS>ATOM
      1 C          10.0301   40.7990    5.2268 C.ar    1  UNL1        0.1230
      2 C          11.4113   40.9360    5.1411 C.ar    1  UNL1        0.0565
      3 C          11.7752   41.3125    6.4204 C.ar    1  UNL1        0.1328
      4 N          10.6871   41.3906    7.1983 N.ar    1  UNL1       -0.2394
      5 N           9.6214   41.0797    6.4823 N.ar    1  UNL1       -0.1666
      6 C          12.4924   40.6431   10.0137 C.3     1  UNL1        0.0741
      7 C          12.0964   41.8578    9.1728 C.3     1  UNL1        0.0418
      8 C          10.6693   41.7549    8.6125 C.3     1  UNL1        0.1093
      9 C           9.7628   40.8125    9.4176 C.3     1  UNL1        0.0418
     10 C          10.4340   39.4821    9.8087 C.3     1  UNL1        0.0741
     11 N          11.8606   39.4413    9.4803 N.3     1  UNL1       -0.2725
     12 C          12.4230   38.3042   10.1906 C.3     1  UNL1        0.0750
     13 C          11.6859   37.0275    9.8119 C.3     1  UNL1        0.0554
     14 F          11.0157   35.3138   11.3202 F       1  UNL1       -0.2343
     15 C          12.1174   35.8693   10.6957 C.3     1  UNL1        0.1947
     16 C          13.8457   42.7903    6.6464 C.2     1  UNL1        0.2514
     17 N          13.1035   41.5856    6.8862 N.am    1  UNL1       -0.2660
     18 O          13.3280   43.7217    5.9746 O.2     1  UNL1       -0.2697
     19 H          13.5455   40.8845    7.4176 H       1  UNL1        0.1566
     20 C          15.2185   42.9200    7.1978 C.ar    1  UNL1        0.0643
     21 C          16.0821   44.0116    6.9174 C.ar    1  UNL1        0.0620
     22 C          17.3617   44.0489    7.4824 C.ar    1  UNL1        0.0115
     23 C          17.8009   43.0241    8.3204 C.ar    1  UNL1        0.0009
     24 C          16.9608   41.9486    8.6016 C.ar    1  UNL1        0.0002
     25 C          15.6822   41.8993    8.0443 C.ar    1  UNL1        0.0054
     26 CL         15.6422   45.3605    5.8776 Cl      1  UNL1       -0.0821
@<TRIPOS>BOND
     1    15    14    1
     2    15    13    1
     3    13    12    1
     4    12    11    1
     5     6    11    1
     6     6     7    1
     7     7     8    1
     8     8     9    1
     9     8     4    1
    10     9    10    1
    11    10    11    1
    12     1     2   ar
    13     3    17    1
    14     3     4   ar
    15    16    20    1
    16    21    26    1
    17    21    22   ar
    18    23    24   ar
    19    25    20   ar
    20     4     5   ar
    21    17    16   am
    22     1     5   ar
    23     2     3   ar
    24    16    18    2
    25    20    21   ar
    26    22    23   ar
    27    24    25   ar
    28    17    19    1
@<TRIPOS>MOLECULE
MolPort-019-899-714 67934156 CSSS00160035898 MCULE-6205844426 PubChem-56757329 ZINC000067934156
 26 28 0 0 0
SMALL
GASTEIGER

@<TRIPOS>ATOM
      1 C          10.2193   40.3318    6.0460 C.ar    1  UNL1        0.1230
      2 C          11.4835   40.8270    5.7455 C.ar    1  UNL1        0.0565
      3 C          12.1075   40.8795    6.9778 C.ar    1  UNL1        0.1328
      4 N          11.2701   40.4473    7.9303 N.ar    1  UNL1       -0.2394
      5 N          10.1200   40.1114    7.3740 N.ar    1  UNL1       -0.1666
      6 C          13.5002   38.7819    9.9298 C.3     1  UNL1        0.0741
      7 C          13.0819   40.2142    9.5935 C.3     1  UNL1        0.0418
      8 C          11.5700   40.3533    9.3565 C.3     1  UNL1        0.1093
      9 C          10.7418   39.2475   10.0268 C.3     1  UNL1        0.0418
     10 C          11.3273   37.8335    9.8500 C.3     1  UNL1        0.0741
     11 N          12.6486   37.8349    9.2184 N.3     1  UNL1       -0.2725
     12 C          13.2119   36.5096    9.4196 C.3     1  UNL1        0.0750
     13 C          14.7302   36.5614    9.3273 C.3     1  UNL1        0.0554
     14 F          16.5901   36.0844    7.9221 F       1  UNL1       -0.2343
     15 C          15.2080   36.0798    7.9677 C.3     1  UNL1        0.1947
     16 C          13.9604   42.6369    6.9878 C.2     1  UNL1        0.2514
     17 N          13.4461   41.3211    7.2404 N.am    1  UNL1       -0.2660
     18 O          13.2087   43.5192    6.4945 O.2     1  UNL1       -0.2697
     19 H          14.0674   40.6634    7.6285 H       1  UNL1        0.1566
     20 C          15.3774   42.9384    7.3147 C.ar    1  UNL1        0.0643
     21 C          16.0726   44.0797    6.8350 C.ar    1  UNL1        0.0620
     22 C          17.4095   44.2819    7.1956 C.ar    1  UNL1        0.0115
     23 C          18.0697   43.3737    8.0230 C.ar    1  UNL1        0.0009
     24 C          17.3959   42.2506    8.4989 C.ar    1  UNL1        0.0002
     25 C          16.0625   42.0373    8.1465 C.ar    1  UNL1        0.0054
     26 CL         15.3488   45.2931    5.7873 Cl      1  UNL1       -0.0821
@<TRIPOS>BOND
     1    15    14    1
     2    15    13    1
     3    13    12    1
     4    12    11    1
     5     6    11    1
     6     6     7    1
     7     7     8    1
     8     8     9    1
     9     8     4    1
    10     9    10    1
    11    10    11    1
    12     1     2   ar
    13     3    17    1
    14     3     4   ar
    15    16    20    1
    16    21    26    1
    17    21    22   ar
    18    23    24   ar
    19    25    20   ar
    20     4     5   ar
    21    17    16   am
    22     1     5   ar
    23     2     3   ar
    24    16    18    2
    25    20    21   ar
    26    22    23   ar
    27    24    25   ar
    28    17    19    1
@<TRIPOS>MOLECULE
MolPort-019-899-714 67934156 CSSS00160035898 MCULE-6205844426 PubChem-56757329 ZINC000067934156
 26 28 0 0 0
SMALL
GASTEIGER

@<TRIPOS>ATOM
      1 C           9.9578   40.5680    5.2605 C.ar    1  UNL1        0.1230
      2 C          11.3374   40.7204    5.1749 C.ar    1  UNL1        0.0565
      3 C          11.6864   41.1831    6.4298 C.ar    1  UNL1        0.1328
      4 N          10.5916   41.2939    7.1943 N.ar    1  UNL1       -0.2394
      5 N           9.5359   40.9218    6.4929 N.ar    1  UNL1       -0.1666
      6 C          12.5141   40.9322   10.0081 C.3     1  UNL1        0.0741
      7 C          11.9748   42.0392    9.1007 C.3     1  UNL1        0.0418
      8 C          10.5581   41.7472    8.5822 C.3     1  UNL1        0.1093
      9 C           9.7726   40.7686    9.4675 C.3     1  UNL1        0.0418
     10 C          10.5905   39.5466    9.9269 C.3     1  UNL1        0.0741
     11 N          12.0074   39.6371    9.5680 N.3     1  UNL1       -0.2725
     12 C          12.7015   38.6163   10.3362 C.3     1  UNL1        0.0750
     13 C          13.5232   39.2574   11.4455 C.3     1  UNL1        0.0554
     14 F          14.2793   37.0365   11.8418 F       1  UNL1       -0.2343
     15 C          14.6800   38.3599   11.8518 C.3     1  UNL1        0.1947
     16 C          13.7241   42.7137    6.5928 C.2     1  UNL1        0.2514
     17 N          13.0070   41.5056    6.8856 N.am    1  UNL1       -0.2660
     18 O          13.1888   43.6023    5.8781 O.2     1  UNL1       -0.2697
     19 H          13.4622   40.8391    7.4494 H       1  UNL1        0.1566
     20 C          15.0920   42.8979    7.1408 C.ar    1  UNL1        0.0643
     21 C          15.9115   44.0222    6.8571 C.ar    1  UNL1        0.0620
     22 C          17.1900   44.1104    7.4190 C.ar    1  UNL1        0.0115
     23 C          17.6710   43.1047    8.2571 C.ar    1  UNL1        0.0009
     24 C          16.8743   41.9973    8.5416 C.ar    1  UNL1        0.0002
     25 C          15.5974   41.8973    7.9874 C.ar    1  UNL1        0.0054
     26 CL         15.4166   45.3515    5.8168 Cl      1  UNL1       -0.0821
@<TRIPOS>BOND
     1    15    14    1
     2    15    13    1
     3    13    12    1
     4    12    11    1
     5     6    11    1
     6     6     7    1
     7     7     8    1
     8     8     9    1
     9     8     4    1
    10     9    10    1
    11    10    11    1
    12     1     2   ar
    13     3    17    1
    14     3     4   ar
    15    16    20    1
    16    21    26    1
    17    21    22   ar
    18    23    24   ar
    19    25    20   ar
    20     4     5   ar
    21    17    16   am
    22     1     5   ar
    23     2     3   ar
    24    16    18    2
    25    20    21   ar
    26    22    23   ar
    27    24    25   ar
    28    17    19    1
@<TRIPOS>MOLECULE
MolPort-019-899-714 67934156 CSSS00160035898 MCULE-6205844426 PubChem-56757329 ZINC000067934156
 26 28 0 0 0
SMALL
GASTEIGER

@<TRIPOS>ATOM
      1 C           9.6821   41.4391    6.5815 C.ar    1  UNL1        0.1230
      2 C          11.0195   41.4611    6.2011 C.ar    1  UNL1        0.0565
      3 C          11.6771   41.8129    7.3650 C.ar    1  UNL1        0.1328
      4 N          10.7900   41.9848    8.3544 N.ar    1  UNL1       -0.2394
      5 N           9.5747   41.7592    7.8884 N.ar    1  UNL1       -0.1666
      6 C           9.6814   41.1784   11.4952 C.3     1  UNL1        0.0741
      7 C          10.9703   41.1493   10.6722 C.3     1  UNL1        0.0418
      8 C          11.1038   42.3568    9.7313 C.3     1  UNL1        0.1093
      9 C          10.2821   43.5745   10.1788 C.3     1  UNL1        0.0418
     10 C           8.8529   43.2294   10.6387 C.3     1  UNL1        0.0741
     11 N           8.6082   41.7877   10.7175 N.3     1  UNL1       -0.2725
     12 C           7.3752   41.6111   11.4677 C.3     1  UNL1        0.0750
     13 C           6.1963   41.4565   10.5175 C.3     1  UNL1        0.0554
     14 F           4.3246   40.0895   11.0550 F       1  UNL1       -0.2343
     15 C           4.8923   41.3288   11.2870 C.3     1  UNL1        0.1947
     16 C          13.8971   42.9909    6.9115 C.2     1  UNL1        0.2514
     17 N          13.0916   41.9778    7.5315 N.am    1  UNL1       -0.2660
     18 O          13.3613   43.8358    6.1460 O.2     1  UNL1       -0.2697
     19 H          13.5510   41.3395    8.1237 H       1  UNL1        0.1566
     20 C          15.3564   43.0273    7.1847 C.ar    1  UNL1        0.0643
     21 C          16.0178   42.1290    8.0632 C.ar    1  UNL1        0.0620
     22 C          17.3988   42.2392    8.2601 C.ar    1  UNL1        0.0115
     23 C          18.1362   43.2234    7.6021 C.ar    1  UNL1        0.0009
     24 C          17.4962   44.1096    6.7379 C.ar    1  UNL1        0.0002
     25 C          16.1193   44.0104    6.5330 C.ar    1  UNL1        0.0054
     26 CL         15.1972   40.8493    8.9481 Cl      1  UNL1       -0.0821
@<TRIPOS>BOND
     1    15    14    1
     2    15    13    1
     3    13    12    1
     4    12    11    1
     5     6    11    1
     6     6     7    1
     7     7     8    1
     8     8     9    1
     9     8     4    1
    10     9    10    1
    11    10    11    1
    12     1     2   ar
    13     3    17    1
    14     3     4   ar
    15    16    20    1
    16    21    26    1
    17    21    22   ar
    18    23    24   ar
    19    25    20   ar
    20     4     5   ar
    21    17    16   am
    22     1     5   ar
    23     2     3   ar
    24    16    18    2
    25    20    21   ar
    26    22    23   ar
    27    24    25   ar
    28    17    19    1
@<TRIPOS>MOLECULE
MolPort-019-899-714 67934156 CSSS00160035898 MCULE-6205844426 PubChem-56757329 ZINC000067934156
 26 28 0 0 0
SMALL
GASTEIGER

@<TRIPOS>ATOM
      1 C           9.7848   40.6957    6.6664 C.ar    1  UNL1        0.1230
      2 C          10.9675   41.1642    6.1047 C.ar    1  UNL1        0.0565
      3 C          11.6352   41.7178    7.1811 C.ar    1  UNL1        0.1328
      4 N          10.8976   41.5837    8.2917 N.ar    1  UNL1       -0.2394
      5 N           9.7713   40.9632    7.9894 N.ar    1  UNL1       -0.1666
      6 C           9.7967   41.1314   11.5053 C.3     1  UNL1        0.0741
      7 C          11.0612   40.9304   10.6685 C.3     1  UNL1        0.0418
      8 C          11.2697   42.0414    9.6277 C.3     1  UNL1        0.1093
      9 C          10.5572   43.3543    9.9837 C.3     1  UNL1        0.0418
     10 C           9.1153   43.1652   10.4922 C.3     1  UNL1        0.0741
     11 N           8.7587   41.7594   10.6954 N.3     1  UNL1       -0.2725
     12 C           7.5322   41.7456   11.4761 C.3     1  UNL1        0.0750
     13 C           6.3354   41.4768   10.5749 C.3     1  UNL1        0.0554
     14 F           4.5205   40.1549   11.3622 F       1  UNL1       -0.2343
     15 C           5.0481   41.4329   11.3811 C.3     1  UNL1        0.1947
     16 C          14.1542   41.7578    7.5990 C.2     1  UNL1        0.2514
     17 N          12.9230   42.3477    7.1565 N.am    1  UNL1       -0.2660
     18 O          14.1577   40.5838    8.0557 O.2     1  UNL1       -0.2697
     19 H          12.9665   43.2662    6.8049 H       1  UNL1        0.1566
     20 C          15.4105   42.5448    7.5097 C.ar    1  UNL1        0.0643
     21 C          15.5727   43.6807    6.6733 C.ar    1  UNL1        0.0620
     22 C          16.7954   44.3609    6.6539 C.ar    1  UNL1        0.0115
     23 C          17.8601   43.9361    7.4484 C.ar    1  UNL1        0.0009
     24 C          17.7106   42.8224    8.2726 C.ar    1  UNL1        0.0002
     25 C          16.4963   42.1351    8.3011 C.ar    1  UNL1        0.0054
     26 CL         14.3059   44.3108    5.6282 Cl      1  UNL1       -0.0821
@<TRIPOS>BOND
     1    15    14    1
     2    15    13    1
     3    13    12    1
     4    12    11    1
     5     6    11    1
     6     6     7    1
     7     7     8    1
     8     8     9    1
     9     8     4    1
    10     9    10    1
    11    10    11    1
    12     1     2   ar
    13     3    17    1
    14     3     4   ar
    15    16    20    1
    16    21    26    1
    17    21    22   ar
    18    23    24   ar
    19    25    20   ar
    20     4     5   ar
    21    17    16   am
    22     1     5   ar
    23     2     3   ar
    24    16    18    2
    25    20    21   ar
    26    22    23   ar
    27    24    25   ar
    28    17    19    1
@<TRIPOS>MOLECULE
MolPort-019-899-714 67934156 CSSS00160035898 MCULE-6205844426 PubChem-56757329 ZINC000067934156
 26 28 0 0 0
SMALL
GASTEIGER

@<TRIPOS>ATOM
      1 C          11.1054   39.4171   10.2671 C.ar    1  UNL1        0.1230
      2 C          12.4123   39.8866   10.1933 C.ar    1  UNL1        0.0565
      3 C          12.3435   40.8728    9.2271 C.ar    1  UNL1        0.1328
      4 N          11.0886   40.9733    8.7683 N.ar    1  UNL1       -0.2394
      5 N          10.3283   40.0932    9.3946 N.ar    1  UNL1       -0.1666
      6 C           8.6615   41.0490    6.3501 C.3     1  UNL1        0.0741
      7 C           9.0957   41.8339    7.5891 C.3     1  UNL1        0.0418
      8 C          10.6228   41.9048    7.7446 C.3     1  UNL1        0.1093
      9 C          11.3817   41.7048    6.4246 C.3     1  UNL1        0.0418
     10 C          10.8421   40.5478    5.5624 C.3     1  UNL1        0.0741
     11 N           9.6054   39.9676    6.0902 N.3     1  UNL1       -0.2725
     12 C           9.0418   39.1455    5.0317 C.3     1  UNL1        0.0750
     13 C           9.9553   39.1522    3.8143 C.3     1  UNL1        0.0554
     14 F           9.8913   36.8562    3.1934 F       1  UNL1       -0.2343
     15 C           9.5050   38.1219    2.7922 C.3     1  UNL1        0.1947
     16 C          14.7523   41.2306    8.4580 C.2     1  UNL1        0.2514
     17 N          13.4259   41.6884    8.7592 N.am    1  UNL1       -0.2660
     18 O          15.0415   40.0126    8.5985 O.2     1  UNL1       -0.2697
     19 H          13.2430   42.6476    8.6333 H       1  UNL1        0.1566
     20 C          15.7670   42.2052    7.9823 C.ar    1  UNL1        0.0643
     21 C          15.5665   43.0799    6.8820 C.ar    1  UNL1        0.0620
     22 C          16.5815   43.9660    6.5042 C.ar    1  UNL1        0.0115
     23 C          17.7913   44.0011    7.1972 C.ar    1  UNL1        0.0009
     24 C          17.9976   43.1466    8.2785 C.ar    1  UNL1        0.0002
     25 C          16.9934   42.2580    8.6653 C.ar    1  UNL1        0.0054
     26 CL         14.0869   43.1282    5.9319 Cl      1  UNL1       -0.0821
@<TRIPOS>BOND
     1    15    14    1
     2    15    13    1
     3    13    12    1
     4    12    11    1
     5     6    11    1
     6     6     7    1
     7     7     8    1
     8     8     9    1
     9     8     4    1
    10     9    10    1
    11    10    11    1
    12     1     2   ar
    13     3    17    1
    14     3     4   ar
    15    16    20    1
    16    21    26    1
    17    21    22   ar
    18    23    24   ar
    19    25    20   ar
    20     4     5   ar
    21    17    16   am
    22     1     5   ar
    23     2     3   ar
    24    16    18    2
    25    20    21   ar
    26    22    23   ar
    27    24    25   ar
    28    17    19    1
@<TRIPOS>MOLECULE
MolPort-019-899-714 67934156 CSSS00160035898 MCULE-6205844426 PubChem-56757329 ZINC000067934156
 26 28 0 0 0
SMALL
GASTEIGER

@<TRIPOS>ATOM
      1 C          10.3141   39.3231    7.0865 C.ar    1  UNL1        0.1230
      2 C          11.6315   39.6401    6.7738 C.ar    1  UNL1        0.0565
      3 C          12.0176   40.4640    7.8144 C.ar    1  UNL1        0.1328
      4 N          11.0010   40.6186    8.6734 N.ar    1  UNL1       -0.2394
      5 N           9.9612   39.9286    8.2401 N.ar    1  UNL1       -0.1666
      6 C           8.7312   41.8341   10.9350 C.3     1  UNL1        0.0741
      7 C           9.9632   40.9287   10.8937 C.3     1  UNL1        0.0418
      8 C          11.0270   41.4150    9.8972 C.3     1  UNL1        0.1093
      9 C          10.9321   42.9158    9.5856 C.3     1  UNL1        0.0418
     10 C           9.4953   43.4134    9.3384 C.3     1  UNL1        0.0741
     11 N           8.4803   42.3936    9.6113 N.3     1  UNL1       -0.2725
     12 C           7.1995   43.0795    9.6663 C.3     1  UNL1        0.0750
     13 C           7.1643   44.2147    8.6530 C.3     1  UNL1        0.0554
     14 F           6.9993   43.9440    6.2949 F       1  UNL1       -0.2343
     15 C           6.2774   43.8599    7.4713 C.3     1  UNL1        0.1947
     16 C          13.9090   42.0192    7.0894 C.2     1  UNL1        0.2514
     17 N          13.3013   41.0788    7.9872 N.am    1  UNL1       -0.2660
     18 O          13.3005   42.3701    6.0437 O.2     1  UNL1       -0.2697
     19 H          13.8111   40.8342    8.7932 H       1  UNL1        0.1566
     20 C          15.2518   42.5668    7.4102 C.ar    1  UNL1        0.0643
     21 C          15.7641   43.7725    6.8626 C.ar    1  UNL1        0.0620
     22 C          17.0431   44.2114    7.2227 C.ar    1  UNL1        0.0115
     23 C          17.8234   43.4773    8.1157 C.ar    1  UNL1        0.0009
     24 C          17.3293   42.2927    8.6585 C.ar    1  UNL1        0.0002
     25 C          16.0554   41.8439    8.3074 C.ar    1  UNL1        0.0054
     26 CL         14.8765   44.7828    5.7288 Cl      1  UNL1       -0.0821
@<TRIPOS>BOND
     1    15    14    1
     2    15    13    1
     3    13    12    1
     4    12    11    1
     5     6    11    1
     6     6     7    1
     7     7     8    1
     8     8     9    1
     9     8     4    1
    10     9    10    1
    11    10    11    1
    12     1     2   ar
    13     3    17    1
    14     3     4   ar
    15    16    20    1
    16    21    26    1
    17    21    22   ar
    18    23    24   ar
    19    25    20   ar
    20     4     5   ar
    21    17    16   am
    22     1     5   ar
    23     2     3   ar
    24    16    18    2
    25    20    21   ar
    26    22    23   ar
    27    24    25   ar
    28    17    19    1
@<TRIPOS>MOLECULE
MolPort-019-899-714 67934156 CSSS00160035898 MCULE-6205844426 PubChem-56757329 ZINC000067934156
 26 28 0 0 0
SMALL
GASTEIGER

@<TRIPOS>ATOM
      1 C          12.0039   37.8192    9.5000 C.ar    1  UNL1        0.1230
      2 C          13.0650   38.3849    8.8016 C.ar    1  UNL1        0.0565
      3 C          12.9231   39.7381    9.0454 C.ar    1  UNL1        0.1328
      4 N          11.8569   39.9496    9.8289 N.ar    1  UNL1       -0.2394
      5 N          11.2917   38.7895   10.1112 N.ar    1  UNL1       -0.1666
      6 C           8.8468   41.5070   10.3372 C.3     1  UNL1        0.0741
      7 C          10.0950   41.1009   11.1224 C.3     1  UNL1        0.0418
      8 C          11.3875   41.2481   10.3047 C.3     1  UNL1        0.1093
      9 C          11.2692   42.2534    9.1499 C.3     1  UNL1        0.0418
     10 C           9.9661   42.1231    8.3386 C.3     1  UNL1        0.0741
     11 N           9.0167   41.1758    8.9267 N.3     1  UNL1       -0.2725
     12 C           7.7383   41.4007    8.2717 C.3     1  UNL1        0.0750
     13 C           7.5340   42.8857    8.0077 C.3     1  UNL1        0.0554
     14 F           5.8487   44.0046    6.7551 F       1  UNL1       -0.2343
     15 C           6.8995   43.1125    6.6457 C.3     1  UNL1        0.1947
     16 C          15.1904   40.8676    8.7213 C.2     1  UNL1        0.2514
     17 N          13.7671   40.7884    8.5554 N.am    1  UNL1       -0.2660
     18 O          15.8002   39.9573    9.3430 O.2     1  UNL1       -0.2697
     19 H          13.3317   41.5202    8.0613 H       1  UNL1        0.1566
     20 C          15.9250   42.0267    8.1536 C.ar    1  UNL1        0.0643
     21 C          15.4256   42.8394    7.1017 C.ar    1  UNL1        0.0620
     22 C          16.1896   43.9123    6.6293 C.ar    1  UNL1        0.0115
     23 C          17.4393   44.1946    7.1806 C.ar    1  UNL1        0.0009
     24 C          17.9380   43.4029    8.2132 C.ar    1  UNL1        0.0002
     25 C          17.1860   42.3297    8.6933 C.ar    1  UNL1        0.0054
     26 CL         13.8670   42.5832    6.3276 Cl      1  UNL1       -0.0821
@<TRIPOS>BOND
     1    15    14    1
     2    15    13    1
     3    13    12    1
     4    12    11    1
     5     6    11    1
     6     6     7    1
     7     7     8    1
     8     8     9    1
     9     8     4    1
    10     9    10    1
    11    10    11    1
    12     1     2   ar
    13     3    17    1
    14     3     4   ar
    15    16    20    1
    16    21    26    1
    17    21    22   ar
    18    23    24   ar
    19    25    20   ar
    20     4     5   ar
    21    17    16   am
    22     1     5   ar
    23     2     3   ar
    24    16    18    2
    25    20    21   ar
    26    22    23   ar
    27    24    25   ar
    28    17    19    1
@<TRIPOS>MOLECULE
MolPort-019-899-714 67934156 CSSS00160035898 MCULE-6205844426 PubChem-56757329 ZINC000067934156
 26 28 0 0 0
SMALL
GASTEIGER

@<TRIPOS>ATOM
      1 C          13.6455   42.2136    6.3183 C.ar    1  UNL1        0.1230
      2 C          12.2684   42.2314    6.5110 C.ar    1  UNL1        0.0565
      3 C          12.1192   41.7450    7.7963 C.ar    1  UNL1        0.1328
      4 N          13.3206   41.4627    8.3181 N.ar    1  UNL1       -0.2394
      5 N          14.2549   41.7447    7.4278 N.ar    1  UNL1       -0.1666
      6 C          15.0126   38.8253    9.7057 C.3     1  UNL1        0.0741
      7 C          14.9899   40.3536    9.7626 C.3     1  UNL1        0.0418
      8 C          13.5706   40.9328    9.6558 C.3     1  UNL1        0.1093
      9 C          12.4734   39.9437   10.0756 C.3     1  UNL1        0.0418
     10 C          12.6676   38.5209    9.5178 C.3     1  UNL1        0.0741
     11 N          13.9490   38.3441    8.8311 N.3     1  UNL1       -0.2725
     12 C          14.1411   36.9128    8.6620 C.3     1  UNL1        0.0750
     13 C          12.9310   36.1519    9.1846 C.3     1  UNL1        0.0554
     14 F          12.1999   34.7197   10.9383 F       1  UNL1       -0.2343
     15 C          13.3288   35.1999   10.3000 C.3     1  UNL1        0.1947
     16 C          10.3225   42.4614    9.4637 C.2     1  UNL1        0.2514
     17 N          10.8851   41.5572    8.5017 N.am    1  UNL1       -0.2660
     18 O          10.9264   43.5301    9.7470 O.2     1  UNL1       -0.2697
     19 H          10.3788   40.7352    8.3090 H       1  UNL1        0.1566
     20 C           9.0304   42.1211   10.1120 C.ar    1  UNL1        0.0643
     21 C           8.9212   41.5924   11.4252 C.ar    1  UNL1        0.0620
     22 C           7.6591   41.3004   11.9545 C.ar    1  UNL1        0.0115
     23 C           6.5035   41.5233   11.2061 C.ar    1  UNL1        0.0009
     24 C           6.6004   42.0419    9.9164 C.ar    1  UNL1        0.0002
     25 C           7.8531   42.3371    9.3768 C.ar    1  UNL1        0.0054
     26 CL         10.3033   41.2685   12.4639 Cl      1  UNL1       -0.0821
@<TRIPOS>BOND
     1    15    14    1
     2    15    13    1
     3    13    12    1
     4    12    11    1
     5     6    11    1
     6     6     7    1
     7     7     8    1
     8     8     9    1
     9     8     4    1
    10     9    10    1
    11    10    11    1
    12     1     2   ar
    13     3    17    1
    14     3     4   ar
    15    16    20    1
    16    21    26    1
    17    21    22   ar
    18    23    24   ar
    19    25    20   ar
    20     4     5   ar
    21    17    16   am
    22     1     5   ar
    23     2     3   ar
    24    16    18    2
    25    20    21   ar
    26    22    23   ar
    27    24    25   ar
    28    17    19    1
@<TRIPOS>MOLECULE
MolPort-019-899-714 67934156 CSSS00160035898 MCULE-6205844426 PubChem-56757329 ZINC000067934156
 26 28 0 0 0
SMALL
GASTEIGER

@<TRIPOS>ATOM
      1 C           8.9358   39.4596    5.0787 C.ar    1  UNL1        0.1230
      2 C          10.2131   39.9026    4.7527 C.ar    1  UNL1        0.0565
      3 C          10.4187   40.9549    5.6252 C.ar    1  UNL1        0.1328
      4 N           9.3410   41.1167    6.4047 N.ar    1  UNL1       -0.2394
      5 N           8.4343   40.2122    6.0808 N.ar    1  UNL1       -0.1666
      6 C           7.6650   41.4169    9.3788 C.3     1  UNL1        0.0741
      7 C           9.0947   41.4682    8.8376 C.3     1  UNL1        0.0418
      8 C           9.1836   42.1237    7.4507 C.3     1  UNL1        0.1093
      9 C           8.0102   43.0654    7.1431 C.3     1  UNL1        0.0418
     10 C           6.6332   42.4975    7.5365 C.3     1  UNL1        0.0741
     11 N           6.7229   41.2387    8.2794 N.3     1  UNL1       -0.2725
     12 C           5.4133   41.0021    8.8650 C.3     1  UNL1        0.0750
     13 C           4.9656   42.2163    9.6661 C.3     1  UNL1        0.0554
     14 F           3.5089   43.9651    8.9727 F       1  UNL1       -0.2343
     15 C           3.5492   42.6205    9.2929 C.3     1  UNL1        0.1947
     16 C          12.6696   41.5949    6.6478 C.2     1  UNL1        0.2514
     17 N          11.5925   41.7733    5.7163 N.am    1  UNL1       -0.2660
     18 O          12.6292   40.6487    7.4784 O.2     1  UNL1       -0.2697
     19 H          11.6661   42.5241    5.0838 H       1  UNL1        0.1566
     20 C          13.8205   42.5331    6.6163 C.ar    1  UNL1        0.0643
     21 C          14.9848   42.3813    7.4147 C.ar    1  UNL1        0.0620
     22 C          16.0207   43.3171    7.3185 C.ar    1  UNL1        0.0115
     23 C          15.9237   44.4004    6.4454 C.ar    1  UNL1        0.0009
     24 C          14.7850   44.5580    5.6578 C.ar    1  UNL1        0.0002
     25 C          13.7447   43.6318    5.7444 C.ar    1  UNL1        0.0054
     26 CL         15.2226   41.0594    8.5505 Cl      1  UNL1       -0.0821
@<TRIPOS>BOND
     1    15    14    1
     2    15    13    1
     3    13    12    1
     4    12    11    1
     5     6    11    1
     6     6     7    1
     7     7     8    1
     8     8     9    1
     9     8     4    1
    10     9    10    1
    11    10    11    1
    12     1     2   ar
    13     3    17    1
    14     3     4   ar
    15    16    20    1
    16    21    26    1
    17    21    22   ar
    18    23    24   ar
    19    25    20   ar
    20     4     5   ar
    21    17    16   am
    22     1     5   ar
    23     2     3   ar
    24    16    18    2
    25    20    21   ar
    26    22    23   ar
    27    24    25   ar
    28    17    19    1
