@<TRIPOS>MOLECULE
MolPort-010-852-371 41076405 ChemDiv-G952-3364 MCULE-9272492653 PubChem-52095937 ZINC000041076405 ZINC41076405
 23 25 0 0 0
SMALL
GASTEIGER

@<TRIPOS>ATOM
      1 C          12.2101   40.1701    9.0109 C.2     1  UNL1        0.2279
      2 N          12.9597   40.3001    7.7980 N.am    1  UNL1       -0.2627
      3 O          11.9461   41.1714    9.7276 O.2     1  UNL1       -0.2747
      4 H          13.1846   39.4673    7.3237 H       1  UNL1        0.1568
      5 C          15.8504   43.9065    6.3726 C.ar    1  UNL1        0.1643
      6 C          13.7975   43.5733    6.0803 C.ar    1  UNL1        0.2195
      7 C          13.4144   41.5229    7.2070 C.ar    1  UNL1        0.1879
      8 N          15.3670   44.9280    5.6145 N.ar    1  UNL1       -0.1310
      9 N          14.0577   44.7180    5.4262 N.ar    1  UNL1       -0.1202
     10 N          14.7157   41.9194    7.2957 N.ar    1  UNL1       -0.1400
     11 N          14.8544   43.0672    6.6531 N.ar    1  UNL1       -0.1881
     12 S          12.4355   42.6237    6.2942 S.2     1  UNL1       -0.0111
     13 C          17.2734   43.7302    6.7902 C.3     1  UNL1        0.0677
     14 C          17.5947   42.4148    8.8870 C.3     1  UNL1        0.0005
     15 C          17.4129   43.8026    8.3021 C.3     1  UNL1        0.0080
     16 C          11.7280   38.8219    9.4265 C.3     1  UNL1        0.0901
     17 C          12.8138   37.7664    9.2493 C.3     1  UNL1        0.0359
     18 C          14.0429   38.0969   10.0319 C.ar    1  UNL1       -0.0217
     19 C          13.9418   38.3319   11.4074 C.ar    1  UNL1       -0.0043
     20 C          15.0870   38.6202   12.1564 C.ar    1  UNL1       -0.0003
     21 C          16.3374   38.6668   11.5323 C.ar    1  UNL1       -0.0000
     22 C          16.4435   38.4215   10.1600 C.ar    1  UNL1       -0.0003
     23 C          15.2987   38.1329    9.4115 C.ar    1  UNL1       -0.0043
@<TRIPOS>BOND
     1    14    15    1
     2    15    13    1
     3    13     5    1
     4     6    12   ar
     5     7    12   ar
     6     7     2    1
     7    16     1    1
     8    16    17    1
     9    17    18    1
    10    19    20   ar
    11    21    22   ar
    12    23    18   ar
    13     8     9   ar
    14     2     1   am
    15    11    10   ar
    16    11     5   ar
    17    11     6   ar
    18     5     8   ar
    19     6     9   ar
    20     7    10   ar
    21     1     3    2
    22    18    19   ar
    23    20    21   ar
    24    22    23   ar
    25     2     4    1
@<TRIPOS>MOLECULE
MolPort-010-852-371 41076405 ChemDiv-G952-3364 MCULE-9272492653 PubChem-52095937 ZINC000041076405 ZINC41076405
 23 25 0 0 0
SMALL
GASTEIGER

@<TRIPOS>ATOM
      1 C          12.4264   40.6154    8.6535 C.2     1  UNL1        0.2279
      2 N          13.1800   40.7593    7.4446 N.am    1  UNL1       -0.2627
      3 O          12.2957   41.5729    9.4611 O.2     1  UNL1       -0.2747
      4 H          13.2947   39.9512    6.8941 H       1  UNL1        0.1568
      5 C          16.4299   44.2370    6.5862 C.ar    1  UNL1        0.1643
      6 C          14.4449   44.0011    5.9423 C.ar    1  UNL1        0.2195
      7 C          13.7833   41.9634    6.9576 C.ar    1  UNL1        0.1879
      8 N          16.1297   45.2847    5.7711 N.ar    1  UNL1       -0.1310
      9 N          14.8640   45.1366    5.3587 N.ar    1  UNL1       -0.1202
     10 N          15.0664   42.2987    7.2732 N.ar    1  UNL1       -0.1400
     11 N          15.3642   43.4429    6.6802 N.ar    1  UNL1       -0.1881
     12 S          13.0255   43.1142    5.9065 S.2     1  UNL1       -0.0111
     13 C          17.7509   43.9924    7.2385 C.3     1  UNL1        0.0677
     14 C          17.6555   42.0639    8.8202 C.3     1  UNL1        0.0005
     15 C          17.5756   43.5731    8.6890 C.3     1  UNL1        0.0080
     16 C          11.7791   39.3067    8.9551 C.3     1  UNL1        0.0901
     17 C          10.3310   39.4931    9.3940 C.3     1  UNL1        0.0359
     18 C           9.4386   39.8202    8.2412 C.ar    1  UNL1       -0.0217
     19 C           9.3742   38.9470    7.1499 C.ar    1  UNL1       -0.0043
     20 C           8.5266   39.2293    6.0741 C.ar    1  UNL1       -0.0003
     21 C           7.7357   40.3822    6.0907 C.ar    1  UNL1       -0.0000
     22 C           7.7893   41.2512    7.1846 C.ar    1  UNL1       -0.0003
     23 C           8.6363   40.9688    8.2601 C.ar    1  UNL1       -0.0043
@<TRIPOS>BOND
     1    14    15    1
     2    15    13    1
     3    13     5    1
     4     6    12   ar
     5     7    12   ar
     6     7     2    1
     7    16     1    1
     8    16    17    1
     9    17    18    1
    10    19    20   ar
    11    21    22   ar
    12    23    18   ar
    13     8     9   ar
    14     2     1   am
    15    11    10   ar
    16    11     5   ar
    17    11     6   ar
    18     5     8   ar
    19     6     9   ar
    20     7    10   ar
    21     1     3    2
    22    18    19   ar
    23    20    21   ar
    24    22    23   ar
    25     2     4    1
@<TRIPOS>MOLECULE
MolPort-010-852-371 41076405 ChemDiv-G952-3364 MCULE-9272492653 PubChem-52095937 ZINC000041076405 ZINC41076405
 23 25 0 0 0
SMALL
GASTEIGER

@<TRIPOS>ATOM
      1 C           9.7601   41.6321   10.1451 C.2     1  UNL1        0.2279
      2 N           8.6088   41.2871    9.3668 N.am    1  UNL1       -0.2627
      3 O           9.8853   42.7760   10.6567 O.2     1  UNL1       -0.2747
      4 H           8.6092   40.3983    8.9434 H       1  UNL1        0.1568
      5 C           4.0292   42.8417    9.3042 C.ar    1  UNL1        0.1643
      6 C           5.8117   43.7446    8.6577 C.ar    1  UNL1        0.2195
      7 C           7.4568   42.1082    9.1439 C.ar    1  UNL1        0.1879
      8 N           3.7213   44.0821    8.8368 N.ar    1  UNL1       -0.1310
      9 N           4.8566   44.6606    8.4239 N.ar    1  UNL1       -0.1202
     10 N           6.2050   41.6930    9.4894 N.ar    1  UNL1       -0.1400
     11 N           5.3421   42.6485    9.1861 N.ar    1  UNL1       -0.1881
     12 S           7.4741   43.7028    8.4655 S.2     1  UNL1       -0.0111
     13 C           3.0612   41.8681    9.8922 C.3     1  UNL1        0.0677
     14 C           3.8645   40.3208   11.6783 C.3     1  UNL1        0.0005
     15 C           3.2963   41.6962   11.3840 C.3     1  UNL1        0.0080
     16 C          10.8260   40.6117   10.3577 C.3     1  UNL1        0.0901
     17 C          12.1026   40.9801    9.6099 C.3     1  UNL1        0.0359
     18 C          13.2941   40.2651   10.1589 C.ar    1  UNL1       -0.0217
     19 C          13.1685   39.5188   11.3357 C.ar    1  UNL1       -0.0043
     20 C          14.2698   38.8264   11.8487 C.ar    1  UNL1       -0.0003
     21 C          15.4977   38.8728   11.1817 C.ar    1  UNL1       -0.0000
     22 C          15.6239   39.6085    9.9995 C.ar    1  UNL1       -0.0003
     23 C          14.5229   40.3003    9.4865 C.ar    1  UNL1       -0.0043
@<TRIPOS>BOND
     1    14    15    1
     2    15    13    1
     3    13     5    1
     4     6    12   ar
     5     7    12   ar
     6     7     2    1
     7    16     1    1
     8    16    17    1
     9    17    18    1
    10    19    20   ar
    11    21    22   ar
    12    23    18   ar
    13     8     9   ar
    14     2     1   am
    15    11    10   ar
    16    11     5   ar
    17    11     6   ar
    18     5     8   ar
    19     6     9   ar
    20     7    10   ar
    21     1     3    2
    22    18    19   ar
    23    20    21   ar
    24    22    23   ar
    25     2     4    1
@<TRIPOS>MOLECULE
MolPort-010-852-371 41076405 ChemDiv-G952-3364 MCULE-9272492653 PubChem-52095937 ZINC000041076405 ZINC41076405
 23 25 0 0 0
SMALL
GASTEIGER

@<TRIPOS>ATOM
      1 C           9.8980   42.3369   10.1743 C.2     1  UNL1        0.2279
      2 N           8.7147   41.8066    9.5670 N.am    1  UNL1       -0.2627
      3 O          10.0151   43.5677   10.4143 O.2     1  UNL1       -0.2747
      4 H           8.7197   40.8466    9.3491 H       1  UNL1        0.1568
      5 C           4.0553   43.0598    9.2318 C.ar    1  UNL1        0.1643
      6 C           5.8040   44.0273    8.5863 C.ar    1  UNL1        0.2195
      7 C           7.5247   42.5357    9.2456 C.ar    1  UNL1        0.1879
      8 N           3.6915   44.2432    8.6667 N.ar    1  UNL1       -0.1310
      9 N           4.8051   44.8627    8.2542 N.ar    1  UNL1       -0.1202
     10 N           6.2878   42.0669    9.5752 N.ar    1  UNL1       -0.1400
     11 N           5.3812   42.9426    9.1743 N.ar    1  UNL1       -0.1881
     12 S           7.4722   44.0778    8.4565 S.2     1  UNL1       -0.0111
     13 C           3.1256   42.0697    9.8529 C.3     1  UNL1        0.0677
     14 C           3.8786   40.5245   11.6627 C.3     1  UNL1        0.0005
     15 C           3.3946   41.9260   11.3420 C.3     1  UNL1        0.0080
     16 C          11.0081   41.4095   10.5349 C.3     1  UNL1        0.0901
     17 C          11.4467   40.5775    9.3350 C.3     1  UNL1        0.0359
     18 C          12.6738   41.1354    8.6906 C.ar    1  UNL1       -0.0217
     19 C          13.9343   40.7167    9.1303 C.ar    1  UNL1       -0.0043
     20 C          15.0909   41.2136    8.5213 C.ar    1  UNL1       -0.0003
     21 C          14.9892   42.1251    7.4659 C.ar    1  UNL1       -0.0000
     22 C          13.7309   42.5371    7.0167 C.ar    1  UNL1       -0.0003
     23 C          12.5749   42.0400    7.6252 C.ar    1  UNL1       -0.0043
@<TRIPOS>BOND
     1    14    15    1
     2    15    13    1
     3    13     5    1
     4     6    12   ar
     5     7    12   ar
     6     7     2    1
     7    16     1    1
     8    16    17    1
     9    17    18    1
    10    19    20   ar
    11    21    22   ar
    12    23    18   ar
    13     8     9   ar
    14     2     1   am
    15    11    10   ar
    16    11     5   ar
    17    11     6   ar
    18     5     8   ar
    19     6     9   ar
    20     7    10   ar
    21     1     3    2
    22    18    19   ar
    23    20    21   ar
    24    22    23   ar
    25     2     4    1
@<TRIPOS>MOLECULE
MolPort-010-852-371 41076405 ChemDiv-G952-3364 MCULE-9272492653 PubChem-52095937 ZINC000041076405 ZINC41076405
 23 25 0 0 0
SMALL
GASTEIGER

@<TRIPOS>ATOM
      1 C           9.8147   42.5969    9.1824 C.2     1  UNL1        0.2279
      2 N           8.7876   42.3412    8.2182 N.am    1  UNL1       -0.2627
      3 O           9.6383   43.4123   10.1258 O.2     1  UNL1       -0.2747
      4 H           9.0186   41.7423    7.4717 H       1  UNL1        0.1568
      5 C           4.2103   43.2039    9.5210 C.ar    1  UNL1        0.1643
      6 C           5.3828   43.9871    7.9646 C.ar    1  UNL1        0.2195
      7 C           7.4571   42.8711    8.2331 C.ar    1  UNL1        0.1879
      8 N           3.4577   44.1212    8.8545 N.ar    1  UNL1       -0.1310
      9 N           4.2033   44.6226    7.8611 N.ar    1  UNL1       -0.1202
     10 N           6.5417   42.4793    9.1642 N.ar    1  UNL1       -0.1400
     11 N           5.4127   43.1347    8.9514 N.ar    1  UNL1       -0.1881
     12 S           6.8391   44.0683    7.1431 S.2     1  UNL1       -0.0111
     13 C           3.7760   42.4286   10.7214 C.3     1  UNL1        0.0677
     14 C           3.9561   40.0457   11.4421 C.3     1  UNL1        0.0005
     15 C           3.4649   40.9859   10.3576 C.3     1  UNL1        0.0080
     16 C          11.1146   41.8761    9.0681 C.3     1  UNL1        0.0901
     17 C          11.2953   40.8760   10.2046 C.3     1  UNL1        0.0359
     18 C          12.6929   40.3512   10.2661 C.ar    1  UNL1       -0.0217
     19 C          13.5966   40.6762    9.2487 C.ar    1  UNL1       -0.0043
     20 C          14.9139   40.2104    9.3047 C.ar    1  UNL1       -0.0003
     21 C          15.3326   39.4244   10.3827 C.ar    1  UNL1       -0.0000
     22 C          14.4351   39.1070   11.4067 C.ar    1  UNL1       -0.0003
     23 C          13.1184   39.5730   11.3508 C.ar    1  UNL1       -0.0043
@<TRIPOS>BOND
     1    14    15    1
     2    15    13    1
     3    13     5    1
     4     6    12   ar
     5     7    12   ar
     6     7     2    1
     7    16     1    1
     8    16    17    1
     9    17    18    1
    10    19    20   ar
    11    21    22   ar
    12    23    18   ar
    13     8     9   ar
    14     2     1   am
    15    11    10   ar
    16    11     5   ar
    17    11     6   ar
    18     5     8   ar
    19     6     9   ar
    20     7    10   ar
    21     1     3    2
    22    18    19   ar
    23    20    21   ar
    24    22    23   ar
    25     2     4    1
@<TRIPOS>MOLECULE
MolPort-010-852-371 41076405 ChemDiv-G952-3364 MCULE-9272492653 PubChem-52095937 ZINC000041076405 ZINC41076405
 23 25 0 0 0
SMALL
GASTEIGER

@<TRIPOS>ATOM
      1 C           9.0352   41.7340   10.6463 C.2     1  UNL1        0.2279
      2 N           7.7840   41.2107   11.1053 N.am    1  UNL1       -0.2627
      3 O           9.0868   42.6015    9.7348 O.2     1  UNL1       -0.2747
      4 H           7.8230   40.4885   11.7732 H       1  UNL1        0.1568
      5 C           4.2529   43.5562    8.7764 C.ar    1  UNL1        0.1643
      6 C           4.1911   42.0383   10.2265 C.ar    1  UNL1        0.2195
      7 C           6.4812   41.6347   10.6881 C.ar    1  UNL1        0.1879
      8 N           2.9469   43.2410    8.9932 N.ar    1  UNL1       -0.1310
      9 N           2.9044   42.2728    9.9177 N.ar    1  UNL1       -0.1202
     10 N           6.3127   42.6173    9.7582 N.ar    1  UNL1       -0.1400
     11 N           5.0173   42.7921    9.5555 N.ar    1  UNL1       -0.1881
     12 S           4.9808   40.9702   11.2453 S.2     1  UNL1       -0.0111
     13 C           4.7536   44.5654    7.7959 C.3     1  UNL1        0.0677
     14 C           7.1219   44.9949    8.4568 C.3     1  UNL1        0.0005
     15 C           6.2126   44.3155    7.4504 C.3     1  UNL1        0.0080
     16 C          10.2992   41.2450   11.2673 C.3     1  UNL1        0.0901
     17 C          10.8123   39.9921   10.5663 C.3     1  UNL1        0.0359
     18 C          12.2450   40.1273   10.1646 C.ar    1  UNL1       -0.0217
     19 C          13.2406   39.5427   10.9548 C.ar    1  UNL1       -0.0043
     20 C          14.5839   39.6422   10.5789 C.ar    1  UNL1       -0.0003
     21 C          14.9338   40.3207    9.4074 C.ar    1  UNL1       -0.0000
     22 C          13.9405   40.8966    8.6097 C.ar    1  UNL1       -0.0003
     23 C          12.5978   40.7966    8.9853 C.ar    1  UNL1       -0.0043
@<TRIPOS>BOND
     1    14    15    1
     2    15    13    1
     3    13     5    1
     4     6    12   ar
     5     7    12   ar
     6     7     2    1
     7    16     1    1
     8    16    17    1
     9    17    18    1
    10    19    20   ar
    11    21    22   ar
    12    23    18   ar
    13     8     9   ar
    14     2     1   am
    15    11    10   ar
    16    11     5   ar
    17    11     6   ar
    18     5     8   ar
    19     6     9   ar
    20     7    10   ar
    21     1     3    2
    22    18    19   ar
    23    20    21   ar
    24    22    23   ar
    25     2     4    1
@<TRIPOS>MOLECULE
MolPort-010-852-371 41076405 ChemDiv-G952-3364 MCULE-9272492653 PubChem-52095937 ZINC000041076405 ZINC41076405
 23 25 0 0 0
SMALL
GASTEIGER

@<TRIPOS>ATOM
      1 C          12.6808   41.6470    7.2075 C.2     1  UNL1        0.2279
      2 N          12.5122   40.2546    6.9197 N.am    1  UNL1       -0.2627
      3 O          12.4443   42.1115    8.3540 O.2     1  UNL1       -0.2747
      4 H          12.6520   39.9741    5.9864 H       1  UNL1        0.1568
      5 C          12.8750   36.7621   10.2460 C.ar    1  UNL1        0.1643
      6 C          11.2009   37.6457    9.3364 C.ar    1  UNL1        0.2195
      7 C          12.1602   39.2298    7.8561 C.ar    1  UNL1        0.1879
      8 N          11.7612   36.1970   10.7866 N.ar    1  UNL1       -0.1310
      9 N          10.6917   36.7590   10.2083 N.ar    1  UNL1       -0.1202
     10 N          13.1089   38.5329    8.5437 N.ar    1  UNL1       -0.1400
     11 N          12.5050   37.6679    9.3417 N.ar    1  UNL1       -0.1881
     12 S          10.5450   38.7603    8.2734 S.2     1  UNL1       -0.0111
     13 C          14.2838   36.4493   10.6305 C.3     1  UNL1        0.0677
     14 C          14.3484   38.5492   11.9782 C.3     1  UNL1        0.0005
     15 C          15.0641   37.7190   10.9295 C.3     1  UNL1        0.0080
     16 C          13.1528   42.5604    6.1280 C.3     1  UNL1        0.0901
     17 C          13.9151   43.7493    6.7024 C.3     1  UNL1        0.0359
     18 C          15.3582   43.4305    6.9219 C.ar    1  UNL1       -0.0217
     19 C          16.3329   44.0923    6.1671 C.ar    1  UNL1       -0.0043
     20 C          17.6883   43.8201    6.3776 C.ar    1  UNL1       -0.0003
     21 C          18.0724   42.8905    7.3489 C.ar    1  UNL1       -0.0000
     22 C          17.1015   42.2356    8.1125 C.ar    1  UNL1       -0.0003
     23 C          15.7467   42.5080    7.9023 C.ar    1  UNL1       -0.0043
@<TRIPOS>BOND
     1    14    15    1
     2    15    13    1
     3    13     5    1
     4     6    12   ar
     5     7    12   ar
     6     7     2    1
     7    16     1    1
     8    16    17    1
     9    17    18    1
    10    19    20   ar
    11    21    22   ar
    12    23    18   ar
    13     8     9   ar
    14     2     1   am
    15    11    10   ar
    16    11     5   ar
    17    11     6   ar
    18     5     8   ar
    19     6     9   ar
    20     7    10   ar
    21     1     3    2
    22    18    19   ar
    23    20    21   ar
    24    22    23   ar
    25     2     4    1
@<TRIPOS>MOLECULE
MolPort-010-852-371 41076405 ChemDiv-G952-3364 MCULE-9272492653 PubChem-52095937 ZINC000041076405 ZINC41076405
 23 25 0 0 0
SMALL
GASTEIGER

@<TRIPOS>ATOM
      1 C          12.3396   39.6729   10.0212 C.2     1  UNL1        0.2279
      2 N          13.0778   39.9166    8.8188 N.am    1  UNL1       -0.2627
      3 O          12.8199   39.9508   11.1517 O.2     1  UNL1       -0.2747
      4 H          12.6671   39.6141    7.9767 H       1  UNL1        0.1568
      5 C          16.5236   43.1298    7.7253 C.ar    1  UNL1        0.1643
      6 C          16.5950   41.3291    8.8039 C.ar    1  UNL1        0.2195
      7 C          14.3549   40.5573    8.7209 C.ar    1  UNL1        0.1879
      8 N          17.7994   42.9601    8.1674 N.ar    1  UNL1       -0.1310
      9 N          17.8479   41.8122    8.8560 N.ar    1  UNL1       -0.1202
     10 N          14.5150   41.7344    8.0521 N.ar    1  UNL1       -0.1400
     11 N          15.7834   42.1004    8.1347 N.ar    1  UNL1       -0.1881
     12 S          15.8253   39.9840    9.4368 S.2     1  UNL1       -0.0111
     13 C          16.0218   44.2987    6.9428 C.3     1  UNL1        0.0677
     14 C          14.0321   44.0023    5.4653 C.3     1  UNL1        0.0005
     15 C          15.5398   43.8695    5.5666 C.3     1  UNL1        0.0080
     16 C          10.9726   39.0851    9.9283 C.3     1  UNL1        0.0901
     17 C          10.6904   38.5581    8.5258 C.3     1  UNL1        0.0359
     18 C           9.5473   39.2738    7.8829 C.ar    1  UNL1       -0.0217
     19 C           8.7956   38.6261    6.8965 C.ar    1  UNL1       -0.0043
     20 C           7.7092   39.2757    6.3021 C.ar    1  UNL1       -0.0003
     21 C           7.3676   40.5724    6.6983 C.ar    1  UNL1       -0.0000
     22 C           8.1099   41.2184    7.6915 C.ar    1  UNL1       -0.0003
     23 C           9.1955   40.5688    8.2859 C.ar    1  UNL1       -0.0043
@<TRIPOS>BOND
     1    14    15    1
     2    15    13    1
     3    13     5    1
     4     6    12   ar
     5     7    12   ar
     6     7     2    1
     7    16     1    1
     8    16    17    1
     9    17    18    1
    10    19    20   ar
    11    21    22   ar
    12    23    18   ar
    13     8     9   ar
    14     2     1   am
    15    11    10   ar
    16    11     5   ar
    17    11     6   ar
    18     5     8   ar
    19     6     9   ar
    20     7    10   ar
    21     1     3    2
    22    18    19   ar
    23    20    21   ar
    24    22    23   ar
    25     2     4    1
@<TRIPOS>MOLECULE
MolPort-010-852-371 41076405 ChemDiv-G952-3364 MCULE-9272492653 PubChem-52095937 ZINC000041076405 ZINC41076405
 23 25 0 0 0
SMALL
GASTEIGER

@<TRIPOS>ATOM
      1 C           9.9397   43.0408    9.6094 C.2     1  UNL1        0.2279
      2 N          10.4786   41.8281    9.0720 N.am    1  UNL1       -0.2627
      3 O          10.6469   43.8222   10.2988 O.2     1  UNL1       -0.2747
      4 H           9.8513   41.2346    8.5993 H       1  UNL1        0.1568
      5 C          14.4983   39.6054   10.5872 C.ar    1  UNL1        0.1643
      6 C          14.1404   40.8584    8.9402 C.ar    1  UNL1        0.2195
      7 C          11.8408   41.3936    9.1547 C.ar    1  UNL1        0.1879
      8 N          15.6591   39.7110    9.8849 N.ar    1  UNL1       -0.1310
      9 N          15.4337   40.5096    8.8335 N.ar    1  UNL1       -0.1202
     10 N          12.2720   40.5797   10.1598 N.ar    1  UNL1       -0.1400
     11 N          13.5582   40.3285    9.9802 N.ar    1  UNL1       -0.1881
     12 S          13.0917   41.7843    8.0207 S.2     1  UNL1       -0.0111
     13 C          14.2964   38.7813   11.8163 C.3     1  UNL1        0.0677
     14 C          14.2726   36.8611   10.2219 C.3     1  UNL1        0.0005
     15 C          13.6566   37.4443   11.4795 C.3     1  UNL1        0.0080
     16 C           8.5146   43.3855    9.3390 C.3     1  UNL1        0.0901
     17 C           7.7579   42.1964    8.7577 C.3     1  UNL1        0.0359
     18 C           6.2858   42.3085    8.9874 C.ar    1  UNL1       -0.0217
     19 C           5.6396   43.5238    8.7365 C.ar    1  UNL1       -0.0043
     20 C           4.2587   43.6367    8.9257 C.ar    1  UNL1       -0.0003
     21 C           3.5195   42.5319    9.3594 C.ar    1  UNL1       -0.0000
     22 C           4.1604   41.3130    9.6004 C.ar    1  UNL1       -0.0003
     23 C           5.5407   41.2001    9.4108 C.ar    1  UNL1       -0.0043
@<TRIPOS>BOND
     1    14    15    1
     2    15    13    1
     3    13     5    1
     4     6    12   ar
     5     7    12   ar
     6     7     2    1
     7    16     1    1
     8    16    17    1
     9    17    18    1
    10    19    20   ar
    11    21    22   ar
    12    23    18   ar
    13     8     9   ar
    14     2     1   am
    15    11    10   ar
    16    11     5   ar
    17    11     6   ar
    18     5     8   ar
    19     6     9   ar
    20     7    10   ar
    21     1     3    2
    22    18    19   ar
    23    20    21   ar
    24    22    23   ar
    25     2     4    1
@<TRIPOS>MOLECULE
MolPort-010-852-371 41076405 ChemDiv-G952-3364 MCULE-9272492653 PubChem-52095937 ZINC000041076405 ZINC41076405
 23 25 0 0 0
SMALL
GASTEIGER

@<TRIPOS>ATOM
      1 C          10.8852   40.4025   10.4413 C.2     1  UNL1        0.2279
      2 N          10.1331   41.5322   10.8976 N.am    1  UNL1       -0.2627
      3 O          10.4695   39.6766    9.4999 O.2     1  UNL1       -0.2747
      4 H          10.4867   42.0143   11.6798 H       1  UNL1        0.1568
      5 C           5.4295   42.3671   10.1411 C.ar    1  UNL1        0.1643
      6 C           7.1425   43.0758    9.1542 C.ar    1  UNL1        0.2195
      7 C           8.9171   42.0298   10.3277 C.ar    1  UNL1        0.1879
      8 N           5.0224   43.2208    9.1626 N.ar    1  UNL1       -0.1310
      9 N           6.1132   43.6746    8.5315 N.ar    1  UNL1       -0.1202
     10 N           7.6976   41.6772   10.8250 N.ar    1  UNL1       -0.1400
     11 N           6.7594   42.2901   10.1223 N.ar    1  UNL1       -0.1881
     12 S           8.8082   43.1386    9.0004 S.2     1  UNL1       -0.0111
     13 C           4.5359   41.6610   11.1073 C.3     1  UNL1        0.0677
     14 C           2.6989   41.0642    9.5263 C.3     1  UNL1        0.0005
     15 C           3.7897   40.5225   10.4308 C.3     1  UNL1        0.0080
     16 C          12.1892   40.0869   11.0914 C.3     1  UNL1        0.0901
     17 C          12.9508   39.0184   10.3151 C.3     1  UNL1        0.0359
     18 C          14.4276   39.2385   10.3696 C.ar    1  UNL1       -0.0217
     19 C          15.0379   40.0590    9.4147 C.ar    1  UNL1       -0.0043
     20 C          16.4158   40.2919    9.4669 C.ar    1  UNL1       -0.0003
     21 C          17.1855   39.7103   10.4791 C.ar    1  UNL1       -0.0000
     22 C          16.5771   38.8989   11.4414 C.ar    1  UNL1       -0.0003
     23 C          15.1997   38.6665   11.3894 C.ar    1  UNL1       -0.0043
@<TRIPOS>BOND
     1    14    15    1
     2    15    13    1
     3    13     5    1
     4     6    12   ar
     5     7    12   ar
     6     7     2    1
     7    16     1    1
     8    16    17    1
     9    17    18    1
    10    19    20   ar
    11    21    22   ar
    12    23    18   ar
    13     8     9   ar
    14     2     1   am
    15    11    10   ar
    16    11     5   ar
    17    11     6   ar
    18     5     8   ar
    19     6     9   ar
    20     7    10   ar
    21     1     3    2
    22    18    19   ar
    23    20    21   ar
    24    22    23   ar
    25     2     4    1
