@<TRIPOS>MOLECULE
MolPort-001-807-984 CSSS03437709741 MCULE-8779169149 PubChem-2812781 ZINC000001033253 ZINC01033253
 30 33 0 0 0
SMALL
GASTEIGER

@<TRIPOS>ATOM
      1 C          10.5234   40.9307    9.7482 C.2     1  UNL1        0.3082
      2 O          11.0905   42.0550    9.8037 O.2     1  UNL1       -0.2522
      3 N           9.1223   40.8320    9.4632 N.am    1  UNL1       -0.2680
      4 N          11.2666   39.7253    9.9685 N.am    1  UNL1       -0.2680
      5 H           8.7418   39.9244    9.4346 H       1  UNL1        0.1564
      6 H          10.7636   38.8810    9.9089 H       1  UNL1        0.1564
      7 C          12.6656   39.6185   10.2665 C.ar    1  UNL1        0.0548
      8 C          13.0556   38.9446   11.4312 C.ar    1  UNL1        0.0180
      9 C          14.4097   38.8105   11.7559 C.ar    1  UNL1        0.0413
     10 C          15.3816   39.3530   10.9128 C.ar    1  UNL1        0.1725
     11 C          17.7342   39.5034   10.2162 C.3     1  UNL1        0.2526
     12 C          17.3341   40.7452    9.4160 C.3     1  UNL1        0.2526
     13 C          15.0000   40.0522    9.7600 C.ar    1  UNL1        0.1736
     14 C          13.6480   40.1742    9.4310 C.ar    1  UNL1        0.0547
     15 O          16.7414   39.2093   11.2018 O.3     1  UNL1       -0.4684
     16 O          15.9875   40.6224    8.9519 O.3     1  UNL1       -0.4683
     17 C           6.3696   43.9889    8.7279 C.ar    1  UNL1        0.1725
     18 C           7.7286   44.2732    8.9417 C.ar    1  UNL1        0.0413
     19 C           8.6424   43.2474    9.1811 C.ar    1  UNL1        0.0180
     20 C           8.2156   41.9154    9.2152 C.ar    1  UNL1        0.0548
     21 C           6.8663   41.6262    8.9996 C.ar    1  UNL1        0.0547
     22 C           5.9355   42.6406    8.7484 C.ar    1  UNL1        0.1733
     23 C           4.5656   45.0591    7.4058 C.3     1  UNL1        0.2526
     24 O           5.4575   45.0284    8.5121 O.3     1  UNL1       -0.4684
     25 O           4.6034   42.2502    8.5394 O.3     1  UNL1       -0.4761
     26 C           3.6449   42.0350    9.5680 C.3     1  UNL1        0.1660
     27 C           3.2884   40.5579    9.6521 C.3     1  UNL1        0.0435
     28 C           3.7384   40.0768   11.0159 C.3     1  UNL1        0.0038
     29 C           3.8530   41.3189   11.8664 C.3     1  UNL1        0.0038
     30 C           4.2466   42.4168   10.9060 C.3     1  UNL1        0.0435
@<TRIPOS>BOND
     1    23    24    1
     2    17    24    1
     3    18    19   ar
     4    20     3    1
     5    20    21   ar
     6     1     4   am
     7     8     9   ar
     8    10    15    1
     9    11    15    1
    10    11    12    1
    11    12    16    1
    12    13    16    1
    13    13    10   ar
    14    14     7   ar
    15    22    25    1
    16    22    17   ar
    17    26    25    1
    18    26    27    1
    19    27    28    1
    20    28    29    1
    21    29    30    1
    22    30    26    1
    23     3     1   am
    24     4     7    1
    25    17    18   ar
    26    19    20   ar
    27     1     2    2
    28     7     8   ar
    29     9    10   ar
    30    13    14   ar
    31    21    22   ar
    32     3     5    1
    33     4     6    1
@<TRIPOS>MOLECULE
MolPort-001-807-984 CSSS03437709741 MCULE-8779169149 PubChem-2812781 ZINC000001033253 ZINC01033253
 30 33 0 0 0
SMALL
GASTEIGER

@<TRIPOS>ATOM
      1 C          11.2183   41.3462    8.9164 C.2     1  UNL1        0.3082
      2 O          11.4406   42.2598    9.7559 O.2     1  UNL1       -0.2522
      3 N           9.9302   40.7225    8.8386 N.am    1  UNL1       -0.2680
      4 N          12.2483   40.9104    8.0202 N.am    1  UNL1       -0.2680
      5 H           9.8235   40.0161    8.1613 H       1  UNL1        0.1564
      6 H          12.0080   40.1947    7.3884 H       1  UNL1        0.1564
      7 C          13.5920   41.4066    7.9462 C.ar    1  UNL1        0.0548
      8 C          14.5542   40.8748    8.8146 C.ar    1  UNL1        0.0180
      9 C          15.8781   41.3244    8.7708 C.ar    1  UNL1        0.0413
     10 C          16.2447   42.3121    7.8543 C.ar    1  UNL1        0.1725
     11 C          18.0062   43.5464    6.6643 C.3     1  UNL1        0.2526
     12 C          16.9212   44.5488    6.2637 C.3     1  UNL1        0.2526
     13 C          15.2834   42.8692    7.0005 C.ar    1  UNL1        0.1736
     14 C          13.9647   42.4101    7.0372 C.ar    1  UNL1        0.0547
     15 O          17.5664   42.7588    7.7733 O.3     1  UNL1       -0.4684
     16 O          15.6632   43.8854    6.1194 O.3     1  UNL1       -0.4683
     17 C           6.4776   41.6196   11.1533 C.ar    1  UNL1        0.1725
     18 C           7.6281   41.1043   11.7730 C.ar    1  UNL1        0.0413
     19 C           8.7681   40.8084   11.0263 C.ar    1  UNL1        0.0180
     20 C           8.7802   41.0185    9.6431 C.ar    1  UNL1        0.0548
     21 C           7.6406   41.5342    9.0219 C.ar    1  UNL1        0.0547
     22 C           6.4901   41.8464    9.7550 C.ar    1  UNL1        0.1733
     23 C           4.1130   41.1754   11.7525 C.3     1  UNL1        0.2526
     24 O           5.3312   41.8906   11.9092 O.3     1  UNL1       -0.4684
     25 O           5.3972   42.3641    9.0422 O.3     1  UNL1       -0.4761
     26 C           4.9595   43.7167    9.0882 C.3     1  UNL1        0.1660
     27 C           5.7321   44.5526    8.0781 C.3     1  UNL1        0.0435
     28 C           4.7246   45.0557    7.0654 C.3     1  UNL1        0.0038
     29 C           3.3821   44.9660    7.7502 C.3     1  UNL1        0.0038
     30 C           3.4988   43.7879    8.6889 C.3     1  UNL1        0.0435
@<TRIPOS>BOND
     1    23    24    1
     2    17    24    1
     3    18    19   ar
     4    20     3    1
     5    20    21   ar
     6     1     4   am
     7     8     9   ar
     8    10    15    1
     9    11    15    1
    10    11    12    1
    11    12    16    1
    12    13    16    1
    13    13    10   ar
    14    14     7   ar
    15    22    25    1
    16    22    17   ar
    17    26    25    1
    18    26    27    1
    19    27    28    1
    20    28    29    1
    21    29    30    1
    22    30    26    1
    23     3     1   am
    24     4     7    1
    25    17    18   ar
    26    19    20   ar
    27     1     2    2
    28     7     8   ar
    29     9    10   ar
    30    13    14   ar
    31    21    22   ar
    32     3     5    1
    33     4     6    1
@<TRIPOS>MOLECULE
MolPort-001-807-984 CSSS03437709741 MCULE-8779169149 PubChem-2812781 ZINC000001033253 ZINC01033253
 30 33 0 0 0
SMALL
GASTEIGER

@<TRIPOS>ATOM
      1 C          10.9538   41.9743    6.5824 C.2     1  UNL1        0.3082
      2 O          10.9658   42.3050    7.7986 O.2     1  UNL1       -0.2522
      3 N           9.7623   41.4560    5.9776 N.am    1  UNL1       -0.2680
      4 N          12.1310   42.1094    5.7763 N.am    1  UNL1       -0.2680
      5 H           9.8208   41.2170    5.0243 H       1  UNL1        0.1564
      6 H          12.0532   41.8348    4.8341 H       1  UNL1        0.1564
      7 C          13.4108   42.6021    6.1969 C.ar    1  UNL1        0.0548
      8 C          13.8816   43.8032    5.6508 C.ar    1  UNL1        0.0180
      9 C          15.1207   44.3238    6.0388 C.ar    1  UNL1        0.0413
     10 C          15.8958   43.6408    6.9782 C.ar    1  UNL1        0.1725
     11 C          17.7820   43.6222    8.5545 C.3     1  UNL1        0.2526
     12 C          17.6265   42.1003    8.5976 C.3     1  UNL1        0.2526
     13 C          15.4454   42.4250    7.5095 C.ar    1  UNL1        0.1736
     14 C          14.2023   41.9132    7.1301 C.ar    1  UNL1        0.0547
     15 O          17.1250   44.1538    7.4016 O.3     1  UNL1       -0.4684
     16 O          16.2555   41.7374    8.4174 O.3     1  UNL1       -0.4683
     17 C           6.0130   40.9122    7.9091 C.ar    1  UNL1        0.1725
     18 C           6.4137   40.0361    6.8868 C.ar    1  UNL1        0.0413
     19 C           7.6417   40.2012    6.2469 C.ar    1  UNL1        0.0180
     20 C           8.4937   41.2486    6.6139 C.ar    1  UNL1        0.0548
     21 C           8.1025   42.1207    7.6323 C.ar    1  UNL1        0.0547
     22 C           6.8784   41.9660    8.2929 C.ar    1  UNL1        0.1733
     23 C           4.6098   40.6565    9.9372 C.3     1  UNL1        0.2526
     24 O           4.7680   40.7509    8.5278 O.3     1  UNL1       -0.4684
     25 O           6.5760   42.8896    9.3059 O.3     1  UNL1       -0.4761
     26 C           5.8811   44.1154    9.1120 C.3     1  UNL1        0.1660
     27 C           6.1922   44.6826    7.7345 C.3     1  UNL1        0.0435
     28 C           4.8884   44.6986    6.9639 C.3     1  UNL1        0.0038
     29 C           3.7995   44.6525    8.0086 C.3     1  UNL1        0.0038
     30 C           4.3873   43.8603    9.1530 C.3     1  UNL1        0.0435
@<TRIPOS>BOND
     1    23    24    1
     2    17    24    1
     3    18    19   ar
     4    20     3    1
     5    20    21   ar
     6     1     4   am
     7     8     9   ar
     8    10    15    1
     9    11    15    1
    10    11    12    1
    11    12    16    1
    12    13    16    1
    13    13    10   ar
    14    14     7   ar
    15    22    25    1
    16    22    17   ar
    17    26    25    1
    18    26    27    1
    19    27    28    1
    20    28    29    1
    21    29    30    1
    22    30    26    1
    23     3     1   am
    24     4     7    1
    25    17    18   ar
    26    19    20   ar
    27     1     2    2
    28     7     8   ar
    29     9    10   ar
    30    13    14   ar
    31    21    22   ar
    32     3     5    1
    33     4     6    1
@<TRIPOS>MOLECULE
MolPort-001-807-984 CSSS03437709741 MCULE-8779169149 PubChem-2812781 ZINC000001033253 ZINC01033253
 30 33 0 0 0
SMALL
GASTEIGER

@<TRIPOS>ATOM
      1 C          10.7791   41.8953    7.8624 C.2     1  UNL1        0.3082
      2 O          10.9648   42.7960    8.7244 O.2     1  UNL1       -0.2522
      3 N           9.4622   41.6128    7.3724 N.am    1  UNL1       -0.2680
      4 N          11.8805   41.1334    7.3522 N.am    1  UNL1       -0.2680
      5 H           9.3868   40.8973    6.7004 H       1  UNL1        0.1564
      6 H          11.6667   40.4468    6.6798 H       1  UNL1        0.1564
      7 C          13.2613   41.2652    7.7174 C.ar    1  UNL1        0.0548
      8 C          13.7854   40.4027    8.6890 C.ar    1  UNL1        0.0180
      9 C          15.1287   40.4915    9.0691 C.ar    1  UNL1        0.0413
     10 C          15.9550   41.4481    8.4760 C.ar    1  UNL1        0.1725
     11 C          18.2137   42.3072    8.0255 C.3     1  UNL1        0.2526
     12 C          17.5412   43.5984    7.5534 C.3     1  UNL1        0.2526
     13 C          15.4330   42.3329    7.5231 C.ar    1  UNL1        0.1736
     14 C          14.0946   42.2344    7.1358 C.ar    1  UNL1        0.0547
     15 O          17.3066   41.5391    8.8196 O.3     1  UNL1       -0.4684
     16 O          16.2675   43.3093    6.9720 O.3     1  UNL1       -0.4683
     17 C           5.8495   43.4975    8.5887 C.ar    1  UNL1        0.1725
     18 C           6.4387   43.8295    7.3574 C.ar    1  UNL1        0.0413
     19 C           7.6217   43.2171    6.9451 C.ar    1  UNL1        0.0180
     20 C           8.2425   42.2619    7.7574 C.ar    1  UNL1        0.0548
     21 C           7.6595   41.9249    8.9810 C.ar    1  UNL1        0.0547
     22 C           6.4676   42.5213    9.4082 C.ar    1  UNL1        0.1733
     23 C           3.7589   44.7365    8.0969 C.3     1  UNL1        0.2526
     24 O           4.6748   44.1360    9.0028 O.3     1  UNL1       -0.4684
     25 O           5.9569   42.1138   10.6506 O.3     1  UNL1       -0.4761
     26 C           4.8564   41.2308   10.8309 C.3     1  UNL1        0.1660
     27 C           3.7640   41.9131   11.6416 C.3     1  UNL1        0.0435
     28 C           2.5527   42.0210   10.7389 C.3     1  UNL1        0.0038
     29 C           2.7564   40.9833    9.6614 C.3     1  UNL1        0.0038
     30 C           4.2538   40.8938    9.4813 C.3     1  UNL1        0.0435
@<TRIPOS>BOND
     1    23    24    1
     2    17    24    1
     3    18    19   ar
     4    20     3    1
     5    20    21   ar
     6     1     4   am
     7     8     9   ar
     8    10    15    1
     9    11    15    1
    10    11    12    1
    11    12    16    1
    12    13    16    1
    13    13    10   ar
    14    14     7   ar
    15    22    25    1
    16    22    17   ar
    17    26    25    1
    18    26    27    1
    19    27    28    1
    20    28    29    1
    21    29    30    1
    22    30    26    1
    23     3     1   am
    24     4     7    1
    25    17    18   ar
    26    19    20   ar
    27     1     2    2
    28     7     8   ar
    29     9    10   ar
    30    13    14   ar
    31    21    22   ar
    32     3     5    1
    33     4     6    1
@<TRIPOS>MOLECULE
MolPort-001-807-984 CSSS03437709741 MCULE-8779169149 PubChem-2812781 ZINC000001033253 ZINC01033253
 30 33 0 0 0
SMALL
GASTEIGER

@<TRIPOS>ATOM
      1 C          10.8094   41.1419    9.8892 C.2     1  UNL1        0.3082
      2 O          11.3130   42.1340    9.2968 O.2     1  UNL1       -0.2522
      3 N          11.6409   40.0780   10.3696 N.am    1  UNL1       -0.2680
      4 N           9.3940   41.0552   10.0963 N.am    1  UNL1       -0.2680
      5 H          11.1843   39.3330   10.8232 H       1  UNL1        0.1564
      6 H           9.0663   40.2552   10.5674 H       1  UNL1        0.1564
      7 C           8.4041   42.0104    9.6901 C.ar    1  UNL1        0.0548
      8 C           8.8115   43.3188    9.3989 C.ar    1  UNL1        0.0180
      9 C           7.8803   44.2799    8.9916 C.ar    1  UNL1        0.0413
     10 C           6.5328   43.9333    8.8744 C.ar    1  UNL1        0.1725
     11 C           4.2769   44.4562    8.0498 C.3     1  UNL1        0.2526
     12 C           3.7688   43.3496    8.9770 C.3     1  UNL1        0.2526
     13 C           6.1119   42.6345    9.1897 C.ar    1  UNL1        0.1736
     14 C           7.0451   41.6730    9.5842 C.ar    1  UNL1        0.0547
     15 O           5.5876   44.8685    8.4441 O.3     1  UNL1       -0.4684
     16 O           4.7527   42.3203    9.1049 O.3     1  UNL1       -0.4683
     17 C          15.8695   39.8536    9.9792 C.ar    1  UNL1        0.1725
     18 C          15.2192   39.1654   11.0169 C.ar    1  UNL1        0.0413
     19 C          13.8330   39.2281   11.1548 C.ar    1  UNL1        0.0180
     20 C          13.0679   39.9835   10.2595 C.ar    1  UNL1        0.0548
     21 C          13.7084   40.6668    9.2234 C.ar    1  UNL1        0.0547
     22 C          15.0974   40.6088    9.0625 C.ar    1  UNL1        0.1733
     23 C          18.0803   38.9942   10.7013 C.3     1  UNL1        0.2526
     24 O          17.2635   39.8026    9.8648 O.3     1  UNL1       -0.4684
     25 O          15.6483   41.3255    7.9886 O.3     1  UNL1       -0.4761
     26 C          16.0291   42.6953    8.0309 C.3     1  UNL1        0.1660
     27 C          17.5389   42.8247    7.8903 C.3     1  UNL1        0.0435
     28 C          17.7948   43.5782    6.6017 C.3     1  UNL1        0.0038
     29 C          16.5090   44.3083    6.2969 C.3     1  UNL1        0.0038
     30 C          15.4158   43.4259    6.8527 C.3     1  UNL1        0.0435
@<TRIPOS>BOND
     1    23    24    1
     2    17    24    1
     3    18    19   ar
     4    20     3    1
     5    20    21   ar
     6     1     4   am
     7     8     9   ar
     8    10    15    1
     9    11    15    1
    10    11    12    1
    11    12    16    1
    12    13    16    1
    13    13    10   ar
    14    14     7   ar
    15    22    25    1
    16    22    17   ar
    17    26    25    1
    18    26    27    1
    19    27    28    1
    20    28    29    1
    21    29    30    1
    22    30    26    1
    23     3     1   am
    24     4     7    1
    25    17    18   ar
    26    19    20   ar
    27     1     2    2
    28     7     8   ar
    29     9    10   ar
    30    13    14   ar
    31    21    22   ar
    32     3     5    1
    33     4     6    1
@<TRIPOS>MOLECULE
MolPort-001-807-984 CSSS03437709741 MCULE-8779169149 PubChem-2812781 ZINC000001033253 ZINC01033253
 30 33 0 0 0
SMALL
GASTEIGER

@<TRIPOS>ATOM
      1 C          11.0890   42.1599    6.6393 C.2     1  UNL1        0.3082
      2 O          11.1980   42.3273    7.8838 O.2     1  UNL1       -0.2522
      3 N           9.8481   41.7300    6.0654 N.am    1  UNL1       -0.2680
      4 N          12.2033   42.3961    5.7695 N.am    1  UNL1       -0.2680
      5 H           9.8307   41.6186    5.0873 H       1  UNL1        0.1564
      6 H          12.0504   42.2485    4.8083 H       1  UNL1        0.1564
      7 C          13.5179   42.8247    6.1512 C.ar    1  UNL1        0.0548
      8 C          14.0148   44.0228    5.6219 C.ar    1  UNL1        0.0180
      9 C          15.2886   44.4818    5.9736 C.ar    1  UNL1        0.0413
     10 C          16.0725   43.7397    6.8594 C.ar    1  UNL1        0.1725
     11 C          18.0182   43.5977    8.3549 C.3     1  UNL1        0.2526
     12 C          17.8029   42.0824    8.3593 C.3     1  UNL1        0.2526
     13 C          15.5947   42.5266    7.3726 C.ar    1  UNL1        0.1736
     14 C          14.3177   42.0763    7.0300 C.ar    1  UNL1        0.0547
     15 O          17.3374   44.1905    7.2465 O.3     1  UNL1       -0.4684
     16 O          16.4121   41.7796    8.2254 O.3     1  UNL1       -0.4683
     17 C           6.2600   40.9327    8.2040 C.ar    1  UNL1        0.1725
     18 C           6.4232   40.4501    6.8949 C.ar    1  UNL1        0.0413
     19 C           7.5958   40.7018    6.1833 C.ar    1  UNL1        0.0180
     20 C           8.6288   41.4449    6.7649 C.ar    1  UNL1        0.0548
     21 C           8.4740   41.9241    8.0676 C.ar    1  UNL1        0.0547
     22 C           7.3088   41.6741    8.8015 C.ar    1  UNL1        0.1733
     23 C           4.0979   41.7031    9.1419 C.3     1  UNL1        0.2526
     24 O           5.0693   40.6941    8.8998 O.3     1  UNL1       -0.4684
     25 O           7.2487   42.1934   10.1043 O.3     1  UNL1       -0.4761
     26 C           8.3757   42.4561   10.9313 C.3     1  UNL1        0.1660
     27 C           8.0019   42.2867   12.3967 C.3     1  UNL1        0.0435
     28 C           8.8325   41.1378   12.9295 C.3     1  UNL1        0.0038
     29 C          10.0001   41.0079   11.9814 C.3     1  UNL1        0.0038
     30 C           9.4641   41.4426   10.6374 C.3     1  UNL1        0.0435
@<TRIPOS>BOND
     1    23    24    1
     2    17    24    1
     3    18    19   ar
     4    20     3    1
     5    20    21   ar
     6     1     4   am
     7     8     9   ar
     8    10    15    1
     9    11    15    1
    10    11    12    1
    11    12    16    1
    12    13    16    1
    13    13    10   ar
    14    14     7   ar
    15    22    25    1
    16    22    17   ar
    17    26    25    1
    18    26    27    1
    19    27    28    1
    20    28    29    1
    21    29    30    1
    22    30    26    1
    23     3     1   am
    24     4     7    1
    25    17    18   ar
    26    19    20   ar
    27     1     2    2
    28     7     8   ar
    29     9    10   ar
    30    13    14   ar
    31    21    22   ar
    32     3     5    1
    33     4     6    1
@<TRIPOS>MOLECULE
MolPort-001-807-984 CSSS03437709741 MCULE-8779169149 PubChem-2812781 ZINC000001033253 ZINC01033253
 30 33 0 0 0
SMALL
GASTEIGER

@<TRIPOS>ATOM
      1 C           9.8705   41.1380   10.3885 C.2     1  UNL1        0.3082
      2 O          10.0230   41.5670    9.2132 O.2     1  UNL1       -0.2522
      3 N          10.9641   40.5403   11.0962 N.am    1  UNL1       -0.2680
      4 N           8.6002   41.2384   11.0444 N.am    1  UNL1       -0.2680
      5 H          10.7776   40.2260   12.0103 H       1  UNL1        0.1564
      6 H           8.5497   40.8860   11.9622 H       1  UNL1        0.1564
      7 C           7.3945   41.7980   10.5052 C.ar    1  UNL1        0.0548
      8 C           6.1635   41.3247   10.9774 C.ar    1  UNL1        0.0180
      9 C           4.9635   41.8483   10.4846 C.ar    1  UNL1        0.0413
     10 C           4.9920   42.8510    9.5132 C.ar    1  UNL1        0.1725
     11 C           3.8281   44.6140    8.2564 C.3     1  UNL1        0.2526
     12 C           5.0262   44.6143    7.3041 C.3     1  UNL1        0.2526
     13 C           6.2182   43.3115    9.0154 C.ar    1  UNL1        0.1736
     14 C           7.4153   42.7963    9.5177 C.ar    1  UNL1        0.0547
     15 O           3.8074   43.4086    9.0245 O.3     1  UNL1       -0.4684
     16 O           6.2230   44.2865    8.0140 O.3     1  UNL1       -0.4683
     17 C          14.9124   40.0323    9.6007 C.ar    1  UNL1        0.1725
     18 C          14.5407   39.4497   10.8236 C.ar    1  UNL1        0.0413
     19 C          13.2486   39.6060   11.3243 C.ar    1  UNL1        0.0180
     20 C          12.3016   40.3515   10.6137 C.ar    1  UNL1        0.0548
     21 C          12.6641   40.9300    9.3953 C.ar    1  UNL1        0.0547
     22 C          13.9528   40.7768    8.8715 C.ar    1  UNL1        0.1733
     23 C          17.2891   40.7341    9.5197 C.3     1  UNL1        0.2526
     24 O          16.2189   39.8886    9.1196 O.3     1  UNL1       -0.4684
     25 O          14.2203   41.3918    7.6383 O.3     1  UNL1       -0.4761
     26 C          14.2706   42.7965    7.4205 C.3     1  UNL1        0.1660
     27 C          15.7153   43.2544    7.2822 C.3     1  UNL1        0.0435
     28 C          15.8693   43.7961    5.8763 C.3     1  UNL1        0.0038
     29 C          14.4710   44.1289    5.4146 C.3     1  UNL1        0.0038
     30 C          13.5792   43.1291    6.1130 C.3     1  UNL1        0.0435
@<TRIPOS>BOND
     1    23    24    1
     2    17    24    1
     3    18    19   ar
     4    20     3    1
     5    20    21   ar
     6     1     4   am
     7     8     9   ar
     8    10    15    1
     9    11    15    1
    10    11    12    1
    11    12    16    1
    12    13    16    1
    13    13    10   ar
    14    14     7   ar
    15    22    25    1
    16    22    17   ar
    17    26    25    1
    18    26    27    1
    19    27    28    1
    20    28    29    1
    21    29    30    1
    22    30    26    1
    23     3     1   am
    24     4     7    1
    25    17    18   ar
    26    19    20   ar
    27     1     2    2
    28     7     8   ar
    29     9    10   ar
    30    13    14   ar
    31    21    22   ar
    32     3     5    1
    33     4     6    1
@<TRIPOS>MOLECULE
MolPort-001-807-984 CSSS03437709741 MCULE-8779169149 PubChem-2812781 ZINC000001033253 ZINC01033253
 30 33 0 0 0
SMALL
GASTEIGER

@<TRIPOS>ATOM
      1 C          10.6544   42.1219    7.0754 C.2     1  UNL1        0.3082
      2 O          10.7406   42.3213    8.3170 O.2     1  UNL1       -0.2522
      3 N          11.8307   42.0863    6.2573 N.am    1  UNL1       -0.2680
      4 N           9.3782   41.9261    6.4533 N.am    1  UNL1       -0.2680
      5 H          11.6932   41.9265    5.2957 H       1  UNL1        0.1564
      6 H           9.3816   41.7735    5.4807 H       1  UNL1        0.1564
      7 C           8.0967   41.9288    7.0975 C.ar    1  UNL1        0.0548
      8 C           7.5764   40.7150    7.5652 C.ar    1  UNL1        0.0180
      9 C           6.3338   40.6735    8.2063 C.ar    1  UNL1        0.0413
     10 C           5.6047   41.8515    8.3816 C.ar    1  UNL1        0.1725
     11 C           3.7636   43.0581    9.4757 C.3     1  UNL1        0.2526
     12 C           3.9644   44.1532    8.4256 C.3     1  UNL1        0.2526
     13 C           6.1047   43.0659    7.8931 C.ar    1  UNL1        0.1736
     14 C           7.3513   43.1071    7.2643 C.ar    1  UNL1        0.0547
     15 O           4.3732   41.8399    9.0423 O.3     1  UNL1       -0.4684
     16 O           5.3400   44.2261    8.0430 O.3     1  UNL1       -0.4683
     17 C          15.8472   42.5227    7.5842 C.ar    1  UNL1        0.1725
     18 C          15.2840   43.4722    6.7154 C.ar    1  UNL1        0.0413
     19 C          13.9672   43.3427    6.2748 C.ar    1  UNL1        0.0180
     20 C          13.1869   42.2586    6.6913 C.ar    1  UNL1        0.0548
     21 C          13.7400   41.3135    7.5581 C.ar    1  UNL1        0.0547
     22 C          15.0563   41.4308    8.0189 C.ar    1  UNL1        0.1733
     23 C          17.8856   43.8821    7.9649 C.3     1  UNL1        0.2526
     24 O          17.1772   42.6503    8.0010 O.3     1  UNL1       -0.4684
     25 O          15.5210   40.4336    8.8907 O.3     1  UNL1       -0.4761
     26 C          14.7136   39.4182    9.4740 C.3     1  UNL1        0.1660
     27 C          15.5820   38.4394   10.2512 C.3     1  UNL1        0.0435
     28 C          15.1670   38.5453   11.7039 C.3     1  UNL1        0.0038
     29 C          13.7823   39.1465   11.6871 C.3     1  UNL1        0.0038
     30 C          13.7592   40.0439   10.4719 C.3     1  UNL1        0.0435
@<TRIPOS>BOND
     1    23    24    1
     2    17    24    1
     3    18    19   ar
     4    20     3    1
     5    20    21   ar
     6     1     4   am
     7     8     9   ar
     8    10    15    1
     9    11    15    1
    10    11    12    1
    11    12    16    1
    12    13    16    1
    13    13    10   ar
    14    14     7   ar
    15    22    25    1
    16    22    17   ar
    17    26    25    1
    18    26    27    1
    19    27    28    1
    20    28    29    1
    21    29    30    1
    22    30    26    1
    23     3     1   am
    24     4     7    1
    25    17    18   ar
    26    19    20   ar
    27     1     2    2
    28     7     8   ar
    29     9    10   ar
    30    13    14   ar
    31    21    22   ar
    32     3     5    1
    33     4     6    1
@<TRIPOS>MOLECULE
MolPort-001-807-984 CSSS03437709741 MCULE-8779169149 PubChem-2812781 ZINC000001033253 ZINC01033253
 30 33 0 0 0
SMALL
GASTEIGER

@<TRIPOS>ATOM
      1 C          11.7132   42.2414    8.3593 C.2     1  UNL1        0.3082
      2 O          12.5047   42.4943    9.3071 O.2     1  UNL1       -0.2522
      3 N          10.3835   41.7756    8.6218 N.am    1  UNL1       -0.2680
      4 N          12.1247   42.4141    6.9974 N.am    1  UNL1       -0.2680
      5 H           9.8168   41.5967    7.8369 H       1  UNL1        0.1564
      6 H          11.4576   42.2006    6.3056 H       1  UNL1        0.1564
      7 C          13.4056   42.8651    6.5354 C.ar    1  UNL1        0.0548
      8 C          13.4838   43.5113    5.2949 C.ar    1  UNL1        0.0180
      9 C          14.7116   43.9741    4.8100 C.ar    1  UNL1        0.0413
     10 C          15.8699   43.7903    5.5680 C.ar    1  UNL1        0.1725
     11 C          18.2267   44.3400    5.9989 C.3     1  UNL1        0.2526
     12 C          18.2618   43.1136    6.9139 C.3     1  UNL1        0.2526
     13 C          15.8056   43.1210    6.7973 C.ar    1  UNL1        0.1736
     14 C          14.5768   42.6708    7.2855 C.ar    1  UNL1        0.0547
     15 O          17.1039   44.2670    5.1172 O.3     1  UNL1       -0.4684
     16 O          16.9831   42.9117    7.5205 O.3     1  UNL1       -0.4683
     17 C           8.5496   41.0846   12.3958 C.ar    1  UNL1        0.1725
     18 C           9.9498   41.1018   12.2843 C.ar    1  UNL1        0.0413
     19 C          10.5642   41.3300   11.0534 C.ar    1  UNL1        0.0180
     20 C           9.7908   41.5424    9.9070 C.ar    1  UNL1        0.0548
     21 C           8.3982   41.5304   10.0122 C.ar    1  UNL1        0.0547
     22 C           7.7628   41.3125   11.2400 C.ar    1  UNL1        0.1733
     23 C           8.6703   40.7694   14.8522 C.3     1  UNL1        0.2526
     24 O           7.9440   40.8311   13.6319 O.3     1  UNL1       -0.4684
     25 O           6.3591   41.3233   11.2457 O.3     1  UNL1       -0.4761
     26 C           5.5385   41.3845   10.0854 C.3     1  UNL1        0.1660
     27 C           4.1593   40.8169   10.3879 C.3     1  UNL1        0.0435
     28 C           3.1725   41.9533   10.2193 C.3     1  UNL1        0.0038
     29 C           3.8709   42.9710    9.3499 C.3     1  UNL1        0.0038
     30 C           5.3374   42.8329    9.6857 C.3     1  UNL1        0.0435
@<TRIPOS>BOND
     1    23    24    1
     2    17    24    1
     3    18    19   ar
     4    20     3    1
     5    20    21   ar
     6     1     4   am
     7     8     9   ar
     8    10    15    1
     9    11    15    1
    10    11    12    1
    11    12    16    1
    12    13    16    1
    13    13    10   ar
    14    14     7   ar
    15    22    25    1
    16    22    17   ar
    17    26    25    1
    18    26    27    1
    19    27    28    1
    20    28    29    1
    21    29    30    1
    22    30    26    1
    23     3     1   am
    24     4     7    1
    25    17    18   ar
    26    19    20   ar
    27     1     2    2
    28     7     8   ar
    29     9    10   ar
    30    13    14   ar
    31    21    22   ar
    32     3     5    1
    33     4     6    1
@<TRIPOS>MOLECULE
MolPort-001-807-984 CSSS03437709741 MCULE-8779169149 PubChem-2812781 ZINC000001033253 ZINC01033253
 30 33 0 0 0
SMALL
GASTEIGER

@<TRIPOS>ATOM
      1 C          10.3221   42.1055    7.5466 C.2     1  UNL1        0.3082
      2 O          10.5062   42.7857    8.5916 O.2     1  UNL1       -0.2522
      3 N          11.4328   41.6733    6.7505 N.am    1  UNL1       -0.2680
      4 N           8.9979   41.7483    7.1306 N.am    1  UNL1       -0.2680
      5 H          11.2196   41.1456    5.9472 H       1  UNL1        0.1564
      6 H           8.9244   41.2147    6.3065 H       1  UNL1        0.1564
      7 C           7.7684   42.0861    7.7875 C.ar    1  UNL1        0.0548
      8 C           7.0486   43.2000    7.3363 C.ar    1  UNL1        0.0180
      9 C           5.8408   43.5602    7.9433 C.ar    1  UNL1        0.0413
     10 C           5.3479   42.8038    9.0085 C.ar    1  UNL1        0.1725
     11 C           3.4856   42.2084   10.4984 C.3     1  UNL1        0.2526
     12 C           4.5212   41.5069   11.3803 C.3     1  UNL1        0.2526
     13 C           6.0745   41.7042    9.4842 C.ar    1  UNL1        0.1736
     14 C           7.2739   41.3387    8.8687 C.ar    1  UNL1        0.0547
     15 O           4.1307   43.1278    9.6141 O.3     1  UNL1       -0.4684
     16 O           5.5832   40.9856   10.5777 O.3     1  UNL1       -0.4683
     17 C          15.5538   42.3613    7.5425 C.ar    1  UNL1        0.1725
     18 C          14.8731   43.1562    6.6055 C.ar    1  UNL1        0.0413
     19 C          13.5211   42.9433    6.3382 C.ar    1  UNL1        0.0180
     20 C          12.8220   41.9281    7.0003 C.ar    1  UNL1        0.0548
     21 C          13.4924   41.1369    7.9358 C.ar    1  UNL1        0.0547
     22 C          14.8465   41.3410    8.2248 C.ar    1  UNL1        0.1733
     23 C          17.4290   43.7684    8.3496 C.3     1  UNL1        0.2526
     24 O          16.9165   42.5688    7.7851 O.3     1  UNL1       -0.4684
     25 O          15.4310   40.4982    9.1831 O.3     1  UNL1       -0.4761
     26 C          14.8199   39.3356    9.7292 C.3     1  UNL1        0.1660
     27 C          15.8822   38.3897   10.2703 C.3     1  UNL1        0.0435
     28 C          15.6549   38.2861   11.7641 C.3     1  UNL1        0.0038
     29 C          14.2246   38.7146   11.9872 C.3     1  UNL1        0.0038
     30 C          13.9458   39.7296   10.9034 C.3     1  UNL1        0.0435
@<TRIPOS>BOND
     1    23    24    1
     2    17    24    1
     3    18    19   ar
     4    20     3    1
     5    20    21   ar
     6     1     4   am
     7     8     9   ar
     8    10    15    1
     9    11    15    1
    10    11    12    1
    11    12    16    1
    12    13    16    1
    13    13    10   ar
    14    14     7   ar
    15    22    25    1
    16    22    17   ar
    17    26    25    1
    18    26    27    1
    19    27    28    1
    20    28    29    1
    21    29    30    1
    22    30    26    1
    23     3     1   am
    24     4     7    1
    25    17    18   ar
    26    19    20   ar
    27     1     2    2
    28     7     8   ar
    29     9    10   ar
    30    13    14   ar
    31    21    22   ar
    32     3     5    1
    33     4     6    1
