@<TRIPOS>MOLECULE
MolPort-035-706-962 CSSS03437789216 MCULE-3816685128 PubChem-91938287
 29 31 0 0 0
SMALL
GASTEIGER

@<TRIPOS>ATOM
      1 C          15.5702   44.2260    6.2141 C.3     1  UNL1        0.2880
      2 C          15.6657   45.7449    6.1895 C.3     1  UNL1        0.0650
      3 C          13.5066   43.0370    7.0255 C.ar    1  UNL1        0.1542
      4 C          12.6907   42.6986    8.1093 C.ar    1  UNL1        0.0529
      5 C          11.5816   41.8643    7.9300 C.ar    1  UNL1        0.0537
      6 C          11.2938   41.3707    6.6479 C.ar    1  UNL1        0.0162
      7 C          12.1054   41.7092    5.5615 C.ar    1  UNL1        0.0190
      8 C          13.2109   42.5413    5.7520 C.ar    1  UNL1        0.0850
      9 C          15.1775   43.7374    4.8340 C.2     1  UNL1        0.2732
     10 O          14.6110   43.8725    7.2236 O.3     1  UNL1       -0.4618
     11 O          15.8737   44.0515    3.8312 O.2     1  UNL1       -0.2704
     12 N          14.0355   42.9009    4.6502 N.am    1  UNL1       -0.2783
     13 H          13.8159   42.5687    3.7498 H       1  UNL1        0.1551
     14 C          10.2787   42.4519   10.0602 C.2     1  UNL1        0.2690
     15 O          10.5405   43.6833    9.9961 O.2     1  UNL1       -0.2681
     16 N          10.7718   41.5403    9.0683 N.am    1  UNL1       -0.2790
     17 H          10.5288   40.5929    9.1808 H       1  UNL1        0.1552
     18 C           9.4582   41.9400   11.1636 C.ar    1  UNL1        0.1554
     19 C           6.3786   40.8042   12.5070 C.3     1  UNL1        0.1533
     20 C           8.7727   41.2311   13.0873 C.ar    1  UNL1        0.0577
     21 C           8.6952   40.8115   14.5148 C.3     1  UNL1        0.0518
     22 C           9.9122   41.6897   12.4536 C.ar    1  UNL1        0.0398
     23 N           8.1469   41.6502   11.0451 N.ar    1  UNL1       -0.1649
     24 N           7.7420   41.2195   12.2244 N.ar    1  UNL1       -0.2527
     25 C          16.9024   43.6330    6.5851 C.2     1  UNL1        0.3623
     26 O          17.9727   44.1765    6.1916 O.2     1  UNL1       -0.2457
     27 O          16.9454   42.4425    7.3150 O.3     1  UNL1       -0.4458
     28 C          17.6218   43.8188    9.1565 C.3     1  UNL1        0.0513
     29 C          17.2714   42.4194    8.6964 C.3     1  UNL1        0.2087
@<TRIPOS>BOND
     1    28    29    1
     2    29    27    1
     3    25    27    1
     4     1    25    1
     5     1     2    1
     6     1    10    1
     7     1     9    1
     8     3    10    1
     9     4     5   ar
    10     5    16    1
    11    14    18    1
    12    19    24    1
    13    21    20    1
    14    22    18   ar
    15     6     7   ar
    16     8    12    1
    17     8     3   ar
    18    16    14   am
    19    24    23   ar
    20    24    20   ar
    21    12     9   am
    22    25    26    2
    23     3     4   ar
    24     5     6   ar
    25    14    15    2
    26    18    23   ar
    27    20    22   ar
    28     7     8   ar
    29     9    11    2
    30    16    17    1
    31    12    13    1
@<TRIPOS>MOLECULE
MolPort-035-706-962 CSSS03437789216 MCULE-3816685128 PubChem-91938287
 29 31 0 0 0
SMALL
GASTEIGER

@<TRIPOS>ATOM
      1 C          13.0081   42.3446    7.1734 C.3     1  UNL1        0.2880
      2 C          13.8912   42.3621    8.4130 C.3     1  UNL1        0.0650
      3 C          11.7923   40.2686    6.4367 C.ar    1  UNL1        0.1542
      4 C          11.8774   38.9825    5.8952 C.ar    1  UNL1        0.0529
      5 C          10.7178   38.2463    5.6276 C.ar    1  UNL1        0.0537
      6 C           9.4647   38.8120    5.9107 C.ar    1  UNL1        0.0162
      7 C           9.3757   40.0963    6.4549 C.ar    1  UNL1        0.0190
      8 C          10.5395   40.8230    6.7166 C.ar    1  UNL1        0.0850
      9 C          11.6400   42.8854    7.5388 C.2     1  UNL1        0.2732
     10 O          12.9623   40.9896    6.6980 O.3     1  UNL1       -0.4618
     11 O          11.5311   44.0286    8.0586 O.2     1  UNL1       -0.2704
     12 N          10.4590   42.1259    7.2815 N.am    1  UNL1       -0.2783
     13 H           9.5781   42.5085    7.4977 H       1  UNL1        0.1551
     14 C          10.7132   36.5650    3.6902 C.2     1  UNL1        0.2690
     15 O          10.4508   37.4309    2.8125 O.2     1  UNL1       -0.2681
     16 N          10.8494   36.9315    5.0705 N.am    1  UNL1       -0.2790
     17 H          11.0546   36.2041    5.7013 H       1  UNL1        0.1552
     18 C          10.8825   35.1613    3.2982 C.ar    1  UNL1        0.1554
     19 C          12.4028   31.9764    3.6493 C.3     1  UNL1        0.1533
     20 C          10.7071   33.2426    2.3181 C.ar    1  UNL1        0.0577
     21 C          10.3048   32.1247    1.4190 C.3     1  UNL1        0.0518
     22 C          10.1879   34.5227    2.2771 C.ar    1  UNL1        0.0398
     23 N          11.7482   34.3194    3.8975 N.ar    1  UNL1       -0.1649
     24 N          11.6311   33.1540    3.2905 N.ar    1  UNL1       -0.2527
     25 C          13.6096   43.2123    6.1013 C.2     1  UNL1        0.3623
     26 O          12.9397   44.1571    5.5969 O.2     1  UNL1       -0.2457
     27 O          14.8911   42.9261    5.6241 O.3     1  UNL1       -0.4458
     28 C          16.1049   44.7062    6.6734 C.3     1  UNL1        0.0513
     29 C          16.0570   43.2218    6.3780 C.3     1  UNL1        0.2087
@<TRIPOS>BOND
     1    28    29    1
     2    29    27    1
     3    25    27    1
     4     1    25    1
     5     1     2    1
     6     1    10    1
     7     1     9    1
     8     3    10    1
     9     4     5   ar
    10     5    16    1
    11    14    18    1
    12    19    24    1
    13    21    20    1
    14    22    18   ar
    15     6     7   ar
    16     8    12    1
    17     8     3   ar
    18    16    14   am
    19    24    23   ar
    20    24    20   ar
    21    12     9   am
    22    25    26    2
    23     3     4   ar
    24     5     6   ar
    25    14    15    2
    26    18    23   ar
    27    20    22   ar
    28     7     8   ar
    29     9    11    2
    30    16    17    1
    31    12    13    1
@<TRIPOS>MOLECULE
MolPort-035-706-962 CSSS03437789216 MCULE-3816685128 PubChem-91938287
 29 31 0 0 0
SMALL
GASTEIGER

@<TRIPOS>ATOM
      1 C           7.6560   42.2632    7.4565 C.3     1  UNL1        0.2880
      2 C           7.1570   43.4833    8.2177 C.3     1  UNL1        0.0650
      3 C           9.7416   41.0322    8.1388 C.ar    1  UNL1        0.1542
      4 C          11.1366   41.0380    8.2313 C.ar    1  UNL1        0.0529
      5 C          11.8225   39.9089    8.6926 C.ar    1  UNL1        0.0537
      6 C          11.0946   38.7678    9.0647 C.ar    1  UNL1        0.0162
      7 C           9.6998   38.7592    8.9764 C.ar    1  UNL1        0.0190
      8 C           9.0253   39.8912    8.5131 C.ar    1  UNL1        0.0850
      9 C           6.9048   41.0404    7.9443 C.2     1  UNL1        0.2732
     10 O           9.0728   42.1703    7.6757 O.3     1  UNL1       -0.4618
     11 O           5.6451   41.0157    7.9047 O.2     1  UNL1       -0.2704
     12 N           7.6053   39.8959    8.4313 N.am    1  UNL1       -0.2783
     13 H           7.0994   39.1000    8.7140 H       1  UNL1        0.1551
     14 C          14.0485   40.0141    9.9633 C.2     1  UNL1        0.2690
     15 O          13.5081   40.0292   11.1021 O.2     1  UNL1       -0.2681
     16 N          13.2537   39.9559    8.7704 N.am    1  UNL1       -0.2790
     17 H          13.7419   39.9473    7.9156 H       1  UNL1        0.1552
     18 C          15.5108   40.0565    9.8524 C.ar    1  UNL1        0.1554
     19 C          18.7520   38.9528   10.7772 C.3     1  UNL1        0.1533
     20 C          17.5374   40.5443    9.2796 C.ar    1  UNL1        0.0577
     21 C          18.7385   41.1458    8.6350 C.3     1  UNL1        0.0518
     22 C          16.2284   40.8910    9.0029 C.ar    1  UNL1        0.0398
     23 N          16.3362   39.2748   10.5771 N.ar    1  UNL1       -0.1649
     24 N          17.5678   39.5824   10.2182 N.ar    1  UNL1       -0.2527
     25 C           7.4059   42.4387    5.9831 C.2     1  UNL1        0.3623
     26 O           6.9888   43.5439    5.5357 O.2     1  UNL1       -0.2457
     27 O           7.5786   41.3518    5.1225 O.3     1  UNL1       -0.4458
     28 C           8.7168   39.6256    3.9110 C.3     1  UNL1        0.0513
     29 C           8.8543   40.7755    4.8865 C.3     1  UNL1        0.2087
@<TRIPOS>BOND
     1    28    29    1
     2    29    27    1
     3    25    27    1
     4     1    25    1
     5     1     2    1
     6     1    10    1
     7     1     9    1
     8     3    10    1
     9     4     5   ar
    10     5    16    1
    11    14    18    1
    12    19    24    1
    13    21    20    1
    14    22    18   ar
    15     6     7   ar
    16     8    12    1
    17     8     3   ar
    18    16    14   am
    19    24    23   ar
    20    24    20   ar
    21    12     9   am
    22    25    26    2
    23     3     4   ar
    24     5     6   ar
    25    14    15    2
    26    18    23   ar
    27    20    22   ar
    28     7     8   ar
    29     9    11    2
    30    16    17    1
    31    12    13    1
@<TRIPOS>MOLECULE
MolPort-035-706-962 CSSS03437789216 MCULE-3816685128 PubChem-91938287
 29 31 0 0 0
SMALL
GASTEIGER

@<TRIPOS>ATOM
      1 C           6.9214   41.7231    8.0836 C.3     1  UNL1        0.2880
      2 C           6.5802   41.2311    9.4831 C.3     1  UNL1        0.0650
      3 C           9.2457   41.5353    7.1387 C.ar    1  UNL1        0.1542
      4 C          10.5720   41.9762    7.1751 C.ar    1  UNL1        0.0529
      5 C          11.5074   41.4906    6.2545 C.ar    1  UNL1        0.0537
      6 C          11.1010   40.5524    5.2927 C.ar    1  UNL1        0.0162
      7 C           9.7768   40.1071    5.2551 C.ar    1  UNL1        0.0190
      8 C           8.8509   40.5995    6.1778 C.ar    1  UNL1        0.0850
      9 C           6.5441   40.6501    7.0816 C.2     1  UNL1        0.2732
     10 O           8.3245   42.0314    8.0672 O.3     1  UNL1       -0.4618
     11 O           5.3644   40.2076    7.0444 O.2     1  UNL1       -0.2704
     12 N           7.5040   40.1429    6.1547 N.am    1  UNL1       -0.2783
     13 H           7.2304   39.4688    5.4914 H       1  UNL1        0.1551
     14 C          13.7894   41.7597    7.3950 C.2     1  UNL1        0.2690
     15 O          13.4656   41.0942    8.4154 O.2     1  UNL1       -0.2681
     16 N          12.8570   41.9702    6.3252 N.am    1  UNL1       -0.2790
     17 H          13.1772   42.4995    5.5593 H       1  UNL1        0.1552
     18 C          15.1382   42.3285    7.2964 C.ar    1  UNL1        0.1554
     19 C          17.6027   44.2675    5.6395 C.3     1  UNL1        0.1533
     20 C          17.1955   42.8738    7.6749 C.ar    1  UNL1        0.0577
     21 C          18.5517   43.0201    8.2742 C.3     1  UNL1        0.0518
     22 C          16.1568   42.1468    8.2251 C.ar    1  UNL1        0.0398
     23 N          15.5463   43.1058    6.2733 N.ar    1  UNL1       -0.1649
     24 N          16.8015   43.4309    6.5166 N.ar    1  UNL1       -0.2527
     25 C           6.1480   42.9767    7.7764 C.2     1  UNL1        0.3623
     26 O           5.6897   43.1734    6.6159 O.2     1  UNL1       -0.2457
     27 O           5.9943   43.9495    8.7673 O.3     1  UNL1       -0.4458
     28 C           8.0785   44.9301    9.4285 C.3     1  UNL1        0.0513
     29 C           6.7405   45.1571    8.7570 C.3     1  UNL1        0.2087
@<TRIPOS>BOND
     1    28    29    1
     2    29    27    1
     3    25    27    1
     4     1    25    1
     5     1     2    1
     6     1    10    1
     7     1     9    1
     8     3    10    1
     9     4     5   ar
    10     5    16    1
    11    14    18    1
    12    19    24    1
    13    21    20    1
    14    22    18   ar
    15     6     7   ar
    16     8    12    1
    17     8     3   ar
    18    16    14   am
    19    24    23   ar
    20    24    20   ar
    21    12     9   am
    22    25    26    2
    23     3     4   ar
    24     5     6   ar
    25    14    15    2
    26    18    23   ar
    27    20    22   ar
    28     7     8   ar
    29     9    11    2
    30    16    17    1
    31    12    13    1
@<TRIPOS>MOLECULE
MolPort-035-706-962 CSSS03437789216 MCULE-3816685128 PubChem-91938287
 29 31 0 0 0
SMALL
GASTEIGER

@<TRIPOS>ATOM
      1 C           9.3608   42.6982    9.5827 C.3     1  UNL1        0.2880
      2 C           9.5724   44.1350   10.0382 C.3     1  UNL1        0.0650
      3 C          11.1385   40.9397    9.8625 C.ar    1  UNL1        0.1542
      4 C          12.3867   40.4517    9.4641 C.ar    1  UNL1        0.0529
      5 C          12.8850   39.2572    9.9961 C.ar    1  UNL1        0.0537
      6 C          12.1187   38.5525   10.9377 C.ar    1  UNL1        0.0162
      7 C          10.8719   39.0387   11.3406 C.ar    1  UNL1        0.0190
      8 C          10.3833   40.2313   10.8020 C.ar    1  UNL1        0.0850
      9 C           8.6028   41.9491   10.6606 C.2     1  UNL1        0.2732
     10 O          10.6566   42.1358    9.3202 O.3     1  UNL1       -0.4618
     11 O           7.4896   42.3801   11.0653 O.2     1  UNL1       -0.2704
     12 N           9.1208   40.7399   11.2151 N.am    1  UNL1       -0.2783
     13 H           8.5979   40.2522   11.8918 H       1  UNL1        0.1551
     14 C          14.9251   37.7067   10.1167 C.2     1  UNL1        0.2690
     15 O          14.4845   37.0446   11.0947 O.2     1  UNL1       -0.2681
     16 N          14.1688   38.7908    9.5592 N.am    1  UNL1       -0.2790
     17 H          14.5735   39.2642    8.7968 H       1  UNL1        0.1552
     18 C          16.2296   37.3667    9.5376 C.ar    1  UNL1        0.1554
     19 C          19.6505   38.0604    8.9095 C.3     1  UNL1        0.1533
     20 C          17.8476   36.3772    8.5004 C.ar    1  UNL1        0.0577
     21 C          18.6685   35.4134    7.7147 C.3     1  UNL1        0.0518
     22 C          16.5099   36.2167    8.8083 C.ar    1  UNL1        0.0398
     23 N          17.3221   38.1483    9.6515 N.ar    1  UNL1       -0.1649
     24 N          18.3006   37.5335    9.0151 N.ar    1  UNL1       -0.2527
     25 C           8.5578   42.6751    8.3104 C.2     1  UNL1        0.3623
     26 O           8.5680   43.6709    7.5333 O.2     1  UNL1       -0.2457
     27 O           7.7522   41.5696    8.0262 O.3     1  UNL1       -0.4458
     28 C           8.4639   40.4528    6.0289 C.3     1  UNL1        0.0513
     29 C           8.2921   40.3540    7.5301 C.3     1  UNL1        0.2087
@<TRIPOS>BOND
     1    28    29    1
     2    29    27    1
     3    25    27    1
     4     1    25    1
     5     1     2    1
     6     1    10    1
     7     1     9    1
     8     3    10    1
     9     4     5   ar
    10     5    16    1
    11    14    18    1
    12    19    24    1
    13    21    20    1
    14    22    18   ar
    15     6     7   ar
    16     8    12    1
    17     8     3   ar
    18    16    14   am
    19    24    23   ar
    20    24    20   ar
    21    12     9   am
    22    25    26    2
    23     3     4   ar
    24     5     6   ar
    25    14    15    2
    26    18    23   ar
    27    20    22   ar
    28     7     8   ar
    29     9    11    2
    30    16    17    1
    31    12    13    1
@<TRIPOS>MOLECULE
MolPort-035-706-962 CSSS03437789216 MCULE-3816685128 PubChem-91938287
 29 31 0 0 0
SMALL
GASTEIGER

@<TRIPOS>ATOM
      1 C           6.1701   42.8870    8.1093 C.3     1  UNL1        0.2880
      2 C           5.8993   42.9296    6.6121 C.3     1  UNL1        0.0650
      3 C           8.4673   42.4379    9.0323 C.ar    1  UNL1        0.1542
      4 C           9.4968   41.5135    9.2329 C.ar    1  UNL1        0.0529
      5 C          10.6438   41.8724    9.9498 C.ar    1  UNL1        0.0537
      6 C          10.7522   43.1736   10.4653 C.ar    1  UNL1        0.0162
      7 C           9.7264   44.1012   10.2642 C.ar    1  UNL1        0.0190
      8 C           8.5852   43.7320    9.5485 C.ar    1  UNL1        0.0850
      9 C           6.3629   44.3037    8.6128 C.2     1  UNL1        0.2732
     10 O           7.3281   42.0614    8.3128 O.3     1  UNL1       -0.4618
     11 O           5.4676   45.1698    8.4198 O.2     1  UNL1       -0.2704
     12 N           7.5415   44.6730    9.3286 N.am    1  UNL1       -0.2783
     13 H           7.6331   45.5903    9.6743 H       1  UNL1        0.1551
     14 C          12.8271   40.6910    9.3032 C.2     1  UNL1        0.2690
     15 O          13.0253   41.4067    8.2847 O.2     1  UNL1       -0.2681
     16 N          11.6755   40.8937   10.1344 N.am    1  UNL1       -0.2790
     17 H          11.5839   40.2985   10.9132 H       1  UNL1        0.1552
     18 C          13.7856   39.6346    9.6467 C.ar    1  UNL1        0.1554
     19 C          15.6069   36.6908    8.8750 C.3     1  UNL1        0.1533
     20 C          15.2224   38.3865   10.6717 C.ar    1  UNL1        0.0577
     21 C          16.1530   37.8036   11.6789 C.3     1  UNL1        0.0518
     22 C          14.4618   39.5255   10.8566 C.ar    1  UNL1        0.0398
     23 N          14.1227   38.6331    8.8095 N.ar    1  UNL1       -0.1649
     24 N          14.9987   37.8801    9.4466 N.ar    1  UNL1       -0.2527
     25 C           5.0020   42.2653    8.8256 C.2     1  UNL1        0.3623
     26 O           3.8750   42.8359    8.8199 O.2     1  UNL1       -0.2457
     27 O           5.1887   41.0847    9.5490 O.3     1  UNL1       -0.4458
     28 C           4.0431   40.2273   11.4713 C.3     1  UNL1        0.0513
     29 C           5.1987   41.0667   10.9684 C.3     1  UNL1        0.2087
@<TRIPOS>BOND
     1    28    29    1
     2    29    27    1
     3    25    27    1
     4     1    25    1
     5     1     2    1
     6     1    10    1
     7     1     9    1
     8     3    10    1
     9     4     5   ar
    10     5    16    1
    11    14    18    1
    12    19    24    1
    13    21    20    1
    14    22    18   ar
    15     6     7   ar
    16     8    12    1
    17     8     3   ar
    18    16    14   am
    19    24    23   ar
    20    24    20   ar
    21    12     9   am
    22    25    26    2
    23     3     4   ar
    24     5     6   ar
    25    14    15    2
    26    18    23   ar
    27    20    22   ar
    28     7     8   ar
    29     9    11    2
    30    16    17    1
    31    12    13    1
@<TRIPOS>MOLECULE
MolPort-035-706-962 CSSS03437789216 MCULE-3816685128 PubChem-91938287
 29 31 0 0 0
SMALL
GASTEIGER

@<TRIPOS>ATOM
      1 C          14.5820   38.6363   10.5263 C.3     1  UNL1        0.2880
      2 C          15.1695   38.6483   11.9304 C.3     1  UNL1        0.0650
      3 C          12.5000   39.9242    9.9456 C.ar    1  UNL1        0.1542
      4 C          11.1143   40.0489   10.0838 C.ar    1  UNL1        0.0529
      5 C          10.4185   41.0465    9.3917 C.ar    1  UNL1        0.0537
      6 C          11.1271   41.9246    8.5566 C.ar    1  UNL1        0.0162
      7 C          12.5127   41.8048    8.4183 C.ar    1  UNL1        0.0190
      8 C          13.1971   40.8045    9.1125 C.ar    1  UNL1        0.0850
      9 C          15.3181   39.6548    9.6786 C.2     1  UNL1        0.2732
     10 O          13.1789   38.9211   10.6455 O.3     1  UNL1       -0.4618
     11 O          16.5712   39.5897    9.5594 O.2     1  UNL1       -0.2704
     12 N          14.6087   40.6827    8.9872 N.am    1  UNL1       -0.2783
     13 H          15.1026   41.3151    8.4168 H       1  UNL1        0.1551
     14 C           8.2876   42.0812   10.3762 C.2     1  UNL1        0.2690
     15 O           8.9050   42.9516   11.0473 O.2     1  UNL1       -0.2681
     16 N           8.9974   41.1389    9.5599 N.am    1  UNL1       -0.2790
     17 H           8.4516   40.4873    9.0632 H       1  UNL1        0.1552
     18 C           6.8223   42.0281   10.4282 C.ar    1  UNL1        0.1554
     19 C           3.6142   42.8986    9.1919 C.3     1  UNL1        0.1533
     20 C           4.7776   41.6007   10.9843 C.ar    1  UNL1        0.0577
     21 C           3.5554   41.0899   11.6664 C.3     1  UNL1        0.0518
     22 C           6.0765   41.3309   11.3719 C.ar    1  UNL1        0.0398
     23 N           6.0219   42.6628    9.5485 N.ar    1  UNL1       -0.1649
     24 N           4.7789   42.3940    9.8990 N.ar    1  UNL1       -0.2527
     25 C          14.7474   37.2730    9.9113 C.2     1  UNL1        0.3623
     26 O          15.2181   37.1538    8.7452 O.2     1  UNL1       -0.2457
     27 O          14.3184   36.1450   10.6151 O.3     1  UNL1       -0.4458
     28 C          11.9396   35.8647   10.6900 C.3     1  UNL1        0.0513
     29 C          13.2510   35.3315   10.1525 C.3     1  UNL1        0.2087
@<TRIPOS>BOND
     1    28    29    1
     2    29    27    1
     3    25    27    1
     4     1    25    1
     5     1     2    1
     6     1    10    1
     7     1     9    1
     8     3    10    1
     9     4     5   ar
    10     5    16    1
    11    14    18    1
    12    19    24    1
    13    21    20    1
    14    22    18   ar
    15     6     7   ar
    16     8    12    1
    17     8     3   ar
    18    16    14   am
    19    24    23   ar
    20    24    20   ar
    21    12     9   am
    22    25    26    2
    23     3     4   ar
    24     5     6   ar
    25    14    15    2
    26    18    23   ar
    27    20    22   ar
    28     7     8   ar
    29     9    11    2
    30    16    17    1
    31    12    13    1
@<TRIPOS>MOLECULE
MolPort-035-706-962 CSSS03437789216 MCULE-3816685128 PubChem-91938287
 29 31 0 0 0
SMALL
GASTEIGER

@<TRIPOS>ATOM
      1 C           6.7132   42.1154    8.5335 C.3     1  UNL1        0.2880
      2 C           5.9587   43.4344    8.4442 C.3     1  UNL1        0.0650
      3 C           9.1607   42.0207    9.1090 C.ar    1  UNL1        0.1542
      4 C          10.4760   42.2772    8.7103 C.ar    1  UNL1        0.0529
      5 C          11.5505   41.9095    9.5280 C.ar    1  UNL1        0.0537
      6 C          11.2946   41.2809   10.7567 C.ar    1  UNL1        0.0162
      7 C           9.9810   41.0256   11.1600 C.ar    1  UNL1        0.0190
      8 C           8.9160   41.3953   10.3354 C.ar    1  UNL1        0.0850
      9 C           6.4787   41.5086    9.9025 C.2     1  UNL1        0.2732
     10 O           8.0991   42.3956    8.2787 O.3     1  UNL1       -0.4618
     11 O           5.3037   41.2945   10.3054 O.2     1  UNL1       -0.2704
     12 N           7.5755   41.1503   10.7430 N.am    1  UNL1       -0.2783
     13 H           7.4020   40.7285   11.6155 H       1  UNL1        0.1551
     14 C          13.4052   41.9980    7.7580 C.2     1  UNL1        0.2690
     15 O          12.6787   41.5402    6.8351 O.2     1  UNL1       -0.2681
     16 N          12.8840   42.1891    9.0808 N.am    1  UNL1       -0.2790
     17 H          13.5073   42.5501    9.7521 H       1  UNL1        0.1552
     18 C          14.8041   42.3412    7.4790 C.ar    1  UNL1        0.1554
     19 C          17.2972   44.0332    5.6081 C.3     1  UNL1        0.1533
     20 C          16.9602   42.4835    7.5409 C.ar    1  UNL1        0.0577
     21 C          18.3965   42.3250    7.9041 C.3     1  UNL1        0.0518
     22 C          15.9032   41.8772    8.1929 C.ar    1  UNL1        0.0398
     23 N          15.1851   43.1613    6.4791 N.ar    1  UNL1       -0.1649
     24 N          16.5011   43.2391    6.5282 N.ar    1  UNL1       -0.2527
     25 C           6.2117   41.1639    7.4813 C.2     1  UNL1        0.3623
     26 O           5.0922   40.5953    7.6191 O.2     1  UNL1       -0.2457
     27 O           7.0209   40.8663    6.3819 O.3     1  UNL1       -0.4458
     28 C           9.1792   40.0926    5.6851 C.3     1  UNL1        0.0513
     29 C           7.8736   39.7316    6.3618 C.3     1  UNL1        0.2087
@<TRIPOS>BOND
     1    28    29    1
     2    29    27    1
     3    25    27    1
     4     1    25    1
     5     1     2    1
     6     1    10    1
     7     1     9    1
     8     3    10    1
     9     4     5   ar
    10     5    16    1
    11    14    18    1
    12    19    24    1
    13    21    20    1
    14    22    18   ar
    15     6     7   ar
    16     8    12    1
    17     8     3   ar
    18    16    14   am
    19    24    23   ar
    20    24    20   ar
    21    12     9   am
    22    25    26    2
    23     3     4   ar
    24     5     6   ar
    25    14    15    2
    26    18    23   ar
    27    20    22   ar
    28     7     8   ar
    29     9    11    2
    30    16    17    1
    31    12    13    1
@<TRIPOS>MOLECULE
MolPort-035-706-962 CSSS03437789216 MCULE-3816685128 PubChem-91938287
 29 31 0 0 0
SMALL
GASTEIGER

@<TRIPOS>ATOM
      1 C          15.0208   38.6662   10.3555 C.3     1  UNL1        0.2880
      2 C          15.3589   38.6393   11.8394 C.3     1  UNL1        0.0650
      3 C          13.3333   40.2728    9.4059 C.ar    1  UNL1        0.1542
      4 C          11.9900   40.6461    9.3019 C.ar    1  UNL1        0.0529
      5 C          11.6118   41.7177    8.4852 C.ar    1  UNL1        0.0537
      6 C          12.5969   42.4176    7.7708 C.ar    1  UNL1        0.0162
      7 C          13.9411   42.0491    7.8746 C.ar    1  UNL1        0.0190
      8 C          14.3073   40.9770    8.6915 C.ar    1  UNL1        0.0850
      9 C          16.0601   39.4987    9.6313 C.2     1  UNL1        0.2732
     10 O          13.6928   39.1991   10.2275 O.3     1  UNL1       -0.4618
     11 O          17.2827   39.2084    9.7304 O.2     1  UNL1       -0.2704
     12 N          15.6742   40.6026    8.8126 N.am    1  UNL1       -0.2783
     13 H          16.3625   41.1110    8.3258 H       1  UNL1        0.1551
     14 C           9.4500   42.7511    9.4012 C.2     1  UNL1        0.2690
     15 O           9.9721   43.1175   10.4884 O.2     1  UNL1       -0.2681
     16 N          10.2232   42.0668    8.4052 N.am    1  UNL1       -0.2790
     17 H           9.7511   41.8099    7.5804 H       1  UNL1        0.1552
     18 C           8.0315   43.0268    9.1471 C.ar    1  UNL1        0.1554
     19 C           4.5799   42.4153    9.6865 C.3     1  UNL1        0.1533
     20 C           6.1760   43.8466    8.4001 C.ar    1  UNL1        0.0577
     21 C           5.1565   44.6511    7.6697 C.3     1  UNL1        0.0518
     22 C           7.5445   43.9924    8.2733 C.ar    1  UNL1        0.0398
     23 N           7.0239   42.3601    9.7453 N.ar    1  UNL1       -0.1649
     24 N           5.8991   42.8696    9.2810 N.ar    1  UNL1       -0.2527
     25 C          15.0358   37.2682    9.7993 C.2     1  UNL1        0.3623
     26 O          15.5293   37.0425    8.6586 O.2     1  UNL1       -0.2457
     27 O          14.4438   36.2328   10.5268 O.3     1  UNL1       -0.4458
     28 C          12.0558   36.0373   10.5727 C.3     1  UNL1        0.0513
     29 C          13.3509   35.4847   10.0158 C.3     1  UNL1        0.2087
@<TRIPOS>BOND
     1    28    29    1
     2    29    27    1
     3    25    27    1
     4     1    25    1
     5     1     2    1
     6     1    10    1
     7     1     9    1
     8     3    10    1
     9     4     5   ar
    10     5    16    1
    11    14    18    1
    12    19    24    1
    13    21    20    1
    14    22    18   ar
    15     6     7   ar
    16     8    12    1
    17     8     3   ar
    18    16    14   am
    19    24    23   ar
    20    24    20   ar
    21    12     9   am
    22    25    26    2
    23     3     4   ar
    24     5     6   ar
    25    14    15    2
    26    18    23   ar
    27    20    22   ar
    28     7     8   ar
    29     9    11    2
    30    16    17    1
    31    12    13    1
@<TRIPOS>MOLECULE
MolPort-035-706-962 CSSS03437789216 MCULE-3816685128 PubChem-91938287
 29 31 0 0 0
SMALL
GASTEIGER

@<TRIPOS>ATOM
      1 C          13.2279   42.3105    7.6628 C.3     1  UNL1        0.2880
      2 C          13.8352   43.6605    8.0171 C.3     1  UNL1        0.0650
      3 C          10.7509   41.8906    7.7987 C.ar    1  UNL1        0.1542
      4 C           9.6265   41.7246    8.6128 C.ar    1  UNL1        0.0529
      5 C           8.3819   41.4180    8.0513 C.ar    1  UNL1        0.0537
      6 C           8.2722   41.2804    6.6586 C.ar    1  UNL1        0.0162
      7 C           9.3933   41.4486    5.8412 C.ar    1  UNL1        0.0190
      8 C          10.6311   41.7529    6.4124 C.ar    1  UNL1        0.0850
      9 C          13.0491   42.2331    6.1596 C.2     1  UNL1        0.2732
     10 O          11.9869   42.1972    8.3777 O.3     1  UNL1       -0.4618
     11 O          14.0364   42.4101    5.3962 O.2     1  UNL1       -0.2704
     12 N          11.7750   41.9377    5.5874 N.am    1  UNL1       -0.2783
     13 H          11.6870   41.8611    4.6099 H       1  UNL1        0.1551
     14 C           6.1562   42.1623    9.0870 C.2     1  UNL1        0.2690
     15 O           6.1024   43.2395    8.4345 O.2     1  UNL1       -0.2681
     16 N           7.2544   41.2541    8.9220 N.am    1  UNL1       -0.2790
     17 H           7.2316   40.4322    9.4634 H       1  UNL1        0.1552
     18 C           5.0822   41.8292   10.0294 C.ar    1  UNL1        0.1554
     19 C           3.4956   39.6294   12.3146 C.3     1  UNL1        0.1533
     20 C           3.3095   41.8909   11.2649 C.ar    1  UNL1        0.0577
     21 C           2.0517   42.3085   11.9459 C.3     1  UNL1        0.0518
     22 C           4.0158   42.6585   10.3583 C.ar    1  UNL1        0.0398
     23 N           5.0099   40.6582   10.6935 N.ar    1  UNL1       -0.1649
     24 N           3.9252   40.7092   11.4425 N.ar    1  UNL1       -0.2527
     25 C          14.1438   41.2022    8.1068 C.2     1  UNL1        0.3623
     26 O          15.3933   41.3844    8.1408 O.2     1  UNL1       -0.2457
     27 O          13.6067   39.9513    8.4211 O.3     1  UNL1       -0.4458
     28 C          13.1446   39.9212   10.7723 C.3     1  UNL1        0.0513
     29 C          13.9160   39.2845    9.6355 C.3     1  UNL1        0.2087
@<TRIPOS>BOND
     1    28    29    1
     2    29    27    1
     3    25    27    1
     4     1    25    1
     5     1     2    1
     6     1    10    1
     7     1     9    1
     8     3    10    1
     9     4     5   ar
    10     5    16    1
    11    14    18    1
    12    19    24    1
    13    21    20    1
    14    22    18   ar
    15     6     7   ar
    16     8    12    1
    17     8     3   ar
    18    16    14   am
    19    24    23   ar
    20    24    20   ar
    21    12     9   am
    22    25    26    2
    23     3     4   ar
    24     5     6   ar
    25    14    15    2
    26    18    23   ar
    27    20    22   ar
    28     7     8   ar
    29     9    11    2
    30    16    17    1
    31    12    13    1
