@<TRIPOS>MOLECULE
MolPort-035-873-043 CSSS00160825063 MCULE-7681890348 PubChem-100020889 ZINC000218602886
 29 31 0 0 0
SMALL
GASTEIGER

@<TRIPOS>ATOM
      1 C          12.5075   42.0753    7.7465 C.2     1  UNL1        0.2510
      2 N          11.9166   42.6554    8.9165 N.am    1  UNL1       -0.2785
      3 O          11.9557   41.0854    7.1952 O.2     1  UNL1       -0.2698
      4 H          12.2114   43.5603    9.1684 H       1  UNL1        0.1552
      5 C          13.7302   42.6895    7.1639 C.ar    1  UNL1        0.0708
      6 C          13.5666   43.6065    6.1172 C.ar    1  UNL1        0.0792
      7 C          15.9080   43.9549    5.9333 C.ar    1  UNL1        0.2576
      8 C          16.1465   43.0497    6.9780 C.ar    1  UNL1        0.0561
      9 C          17.4546   42.7783    7.4071 C.ar    1  UNL1        0.0047
     10 C          17.6841   41.8798    8.4499 C.ar    1  UNL1        0.0002
     11 C          16.6095   41.2457    9.0732 C.ar    1  UNL1        0.0000
     12 C          15.3036   41.5080    8.6541 C.ar    1  UNL1        0.0003
     13 C          15.0479   42.4070    7.6050 C.ar    1  UNL1        0.0104
     14 N          14.6357   44.2073    5.5352 N.ar    1  UNL1       -0.3198
     15 O          16.8634   44.5412    5.3567 O.2     1  UNL1       -0.2672
     16 H          14.4832   44.8460    4.8016 H       1  UNL1        0.1690
     17 C          11.0510   40.8896   10.5324 C.ar    1  UNL1        0.0935
     18 C          12.2536   40.0286   10.7001 C.3     1  UNL1        0.0553
     19 C          10.9332   42.0303    9.7510 C.ar    1  UNL1        0.0793
     20 C           9.6943   42.5448   10.0551 C.ar    1  UNL1        0.0705
     21 C           9.0974   43.7991    9.5114 C.3     1  UNL1        0.0531
     22 N           9.1074   41.7285   10.9516 N.ar    1  UNL1       -0.2540
     23 N           9.9216   40.7262   11.2518 N.ar    1  UNL1       -0.1727
     24 C           7.7806   41.8977   11.5297 C.3     1  UNL1        0.1271
     25 C           6.7074   41.4703   10.5415 C.3     1  UNL1        0.0263
     26 C           5.3632   41.3537   11.2409 C.3     1  UNL1        0.0021
     27 C           4.3131   40.8177   10.2847 C.3     1  UNL1        0.0001
     28 C           3.6843   42.9854    9.2700 C.3     1  UNL1        0.0000
     29 C           3.1927   41.8256   10.1095 C.3     1  UNL1        0.0000
@<TRIPOS>BOND
     1    28    29    1
     2    29    27    1
     3    27    26    1
     4    26    25    1
     5    25    24    1
     6    24    22    1
     7    17    19   ar
     8    18    17    1
     9    19     2    1
    10     1     5    1
    11     6    14   ar
    12     7     8   ar
    13     9    10   ar
    14    11    12   ar
    15    13     5   ar
    16    13     8   ar
    17    20    22   ar
    18    21    20    1
    19    22    23   ar
    20     2     1   am
    21    14     7   ar
    22    17    23   ar
    23    19    20   ar
    24     1     3    2
    25     5     6   ar
    26     7    15    2
    27     8     9   ar
    28    10    11   ar
    29    12    13   ar
    30     2     4    1
    31    14    16    1
@<TRIPOS>MOLECULE
MolPort-035-873-043 CSSS00160825063 MCULE-7681890348 PubChem-100020889 ZINC000218602886
 29 31 0 0 0
SMALL
GASTEIGER

@<TRIPOS>ATOM
      1 C          12.4510   41.5028    6.4665 C.2     1  UNL1        0.2510
      2 N          11.3270   41.8024    5.6289 N.am    1  UNL1       -0.2785
      3 O          12.4588   40.4384    7.1413 O.2     1  UNL1       -0.2698
      4 H          11.4541   42.4869    4.9328 H       1  UNL1        0.1552
      5 C          13.6193   42.4228    6.4790 C.ar    1  UNL1        0.0708
      6 C          13.5928   43.5257    5.6153 C.ar    1  UNL1        0.0792
      7 C          15.7226   44.2717    6.3535 C.ar    1  UNL1        0.2576
      8 C          15.8158   43.1923    7.2445 C.ar    1  UNL1        0.0561
      9 C          16.9428   43.0354    8.0656 C.ar    1  UNL1        0.0047
     10 C          17.0268   41.9616    8.9527 C.ar    1  UNL1        0.0002
     11 C          15.9860   41.0361    9.0279 C.ar    1  UNL1        0.0000
     12 C          14.8599   41.1822    8.2151 C.ar    1  UNL1        0.0003
     13 C          14.7538   42.2539    7.3128 C.ar    1  UNL1        0.0104
     14 N          14.6230   44.4086    5.5705 N.ar    1  UNL1       -0.3198
     15 O          16.6499   45.1215    6.2700 O.2     1  UNL1       -0.2672
     16 H          14.5706   45.1717    4.9507 H       1  UNL1        0.1690
     17 C           9.4634   40.2341    4.8905 C.ar    1  UNL1        0.0935
     18 C          10.0725   39.5964    3.6913 C.3     1  UNL1        0.0553
     19 C          10.0341   41.1905    5.7182 C.ar    1  UNL1        0.0793
     20 C           9.1471   41.3365    6.7594 C.ar    1  UNL1        0.0705
     21 C           9.3135   42.2219    7.9482 C.3     1  UNL1        0.0531
     22 N           8.0971   40.5229    6.5357 N.ar    1  UNL1       -0.2540
     23 N           8.2802   39.8468    5.4101 N.ar    1  UNL1       -0.1727
     24 C           6.9237   40.3787    7.3875 C.3     1  UNL1        0.1271
     25 C           6.4299   41.7389    7.8535 C.3     1  UNL1        0.0263
     26 C           6.0953   41.6990    9.3354 C.3     1  UNL1        0.0021
     27 C           4.6268   42.0140    9.5558 C.3     1  UNL1        0.0001
     28 C           4.0566   40.5996   11.5046 C.3     1  UNL1        0.0000
     29 C           3.8816   40.7734   10.0111 C.3     1  UNL1        0.0000
@<TRIPOS>BOND
     1    28    29    1
     2    29    27    1
     3    27    26    1
     4    26    25    1
     5    25    24    1
     6    24    22    1
     7    17    19   ar
     8    18    17    1
     9    19     2    1
    10     1     5    1
    11     6    14   ar
    12     7     8   ar
    13     9    10   ar
    14    11    12   ar
    15    13     5   ar
    16    13     8   ar
    17    20    22   ar
    18    21    20    1
    19    22    23   ar
    20     2     1   am
    21    14     7   ar
    22    17    23   ar
    23    19    20   ar
    24     1     3    2
    25     5     6   ar
    26     7    15    2
    27     8     9   ar
    28    10    11   ar
    29    12    13   ar
    30     2     4    1
    31    14    16    1
@<TRIPOS>MOLECULE
MolPort-035-873-043 CSSS00160825063 MCULE-7681890348 PubChem-100020889 ZINC000218602886
 29 31 0 0 0
SMALL
GASTEIGER

@<TRIPOS>ATOM
      1 C          12.6095   40.7229    7.3438 C.2     1  UNL1        0.2510
      2 N          11.8606   41.3299    6.2830 N.am    1  UNL1       -0.2785
      3 O          12.1396   39.7185    7.9426 O.2     1  UNL1       -0.2698
      4 H          12.3480   41.9311    5.6745 H       1  UNL1        0.1552
      5 C          13.9587   41.2498    7.6807 C.ar    1  UNL1        0.0708
      6 C          14.7319   40.5288    8.6003 C.ar    1  UNL1        0.0792
      7 C          16.5255   42.0769    8.4461 C.ar    1  UNL1        0.2576
      8 C          15.8095   42.8469    7.5177 C.ar    1  UNL1        0.0561
      9 C          16.3654   44.0151    6.9744 C.ar    1  UNL1        0.0047
     10 C          15.6491   44.7740    6.0481 C.ar    1  UNL1        0.0002
     11 C          14.3723   44.3722    5.6558 C.ar    1  UNL1        0.0000
     12 C          13.8091   43.2116    6.1903 C.ar    1  UNL1        0.0003
     13 C          14.5103   42.4326    7.1260 C.ar    1  UNL1        0.0104
     14 N          15.9726   40.9481    8.9572 N.ar    1  UNL1       -0.3198
     15 O          17.6816   42.4194    8.8137 O.2     1  UNL1       -0.2672
     16 H          16.4872   40.4167    9.6069 H       1  UNL1        0.1690
     17 C           9.8504   40.4552    4.9899 C.ar    1  UNL1        0.0935
     18 C          10.5122   39.7422    3.8631 C.3     1  UNL1        0.0553
     19 C          10.4628   41.1361    6.0324 C.ar    1  UNL1        0.0793
     20 C           9.4395   41.4767    6.8862 C.ar    1  UNL1        0.0705
     21 C           9.5725   42.1896    8.1896 C.3     1  UNL1        0.0531
     22 N           8.2827   41.0378    6.3535 N.ar    1  UNL1       -0.2540
     23 N           8.5199   40.4133    5.2084 N.ar    1  UNL1       -0.1727
     24 C           6.9539   41.2023    6.9284 C.3     1  UNL1        0.1271
     25 C           6.8700   42.4966    7.7214 C.3     1  UNL1        0.0263
     26 C           6.2410   43.5924    6.8769 C.3     1  UNL1        0.0021
     27 C           5.7062   44.7031    7.7627 C.3     1  UNL1        0.0001
     28 C           3.7557   43.6797    8.8905 C.3     1  UNL1        0.0000
     29 C           4.1908   44.6541    7.8168 C.3     1  UNL1        0.0000
@<TRIPOS>BOND
     1    28    29    1
     2    29    27    1
     3    27    26    1
     4    26    25    1
     5    25    24    1
     6    24    22    1
     7    17    19   ar
     8    18    17    1
     9    19     2    1
    10     1     5    1
    11     6    14   ar
    12     7     8   ar
    13     9    10   ar
    14    11    12   ar
    15    13     5   ar
    16    13     8   ar
    17    20    22   ar
    18    21    20    1
    19    22    23   ar
    20     2     1   am
    21    14     7   ar
    22    17    23   ar
    23    19    20   ar
    24     1     3    2
    25     5     6   ar
    26     7    15    2
    27     8     9   ar
    28    10    11   ar
    29    12    13   ar
    30     2     4    1
    31    14    16    1
@<TRIPOS>MOLECULE
MolPort-035-873-043 CSSS00160825063 MCULE-7681890348 PubChem-100020889 ZINC000218602886
 29 31 0 0 0
SMALL
GASTEIGER

@<TRIPOS>ATOM
      1 C          10.4893   42.1044    9.6765 C.2     1  UNL1        0.2510
      2 N          11.1893   41.0589    8.9898 N.am    1  UNL1       -0.2785
      3 O          11.0187   43.2432    9.7827 O.2     1  UNL1       -0.2698
      4 H          10.6624   40.2794    8.6997 H       1  UNL1        0.1552
      5 C           9.1213   41.8472   10.1998 C.ar    1  UNL1        0.0708
      6 C           9.0037   41.1460   11.4072 C.ar    1  UNL1        0.0792
      7 C           6.6329   41.2628   11.3509 C.ar    1  UNL1        0.2576
      8 C           6.6751   41.9717   10.1411 C.ar    1  UNL1        0.0561
      9 C           5.4918   42.3870    9.5117 C.ar    1  UNL1        0.0047
     10 C           5.5414   43.0955    8.3106 C.ar    1  UNL1        0.0002
     11 C           6.7729   43.3959    7.7286 C.ar    1  UNL1        0.0000
     12 C           7.9568   42.9872    8.3460 C.ar    1  UNL1        0.0003
     13 C           7.9318   42.2710    9.5545 C.ar    1  UNL1        0.0104
     14 N           7.7882   40.8733   11.9464 N.ar    1  UNL1       -0.3198
     15 O           5.5317   40.9820   11.8962 O.2     1  UNL1       -0.2672
     16 H           7.7435   40.3777   12.7959 H       1  UNL1        0.1690
     17 C          13.2502   41.5921    7.5947 C.ar    1  UNL1        0.0935
     18 C          12.6488   42.3307    6.4507 C.3     1  UNL1        0.0553
     19 C          12.5906   41.0514    8.6893 C.ar    1  UNL1        0.0793
     20 C          13.5896   40.6197    9.5305 C.ar    1  UNL1        0.0705
     21 C          13.4100   39.9961   10.8735 C.3     1  UNL1        0.0531
     22 N          14.7747   40.8731    8.9422 N.ar    1  UNL1       -0.2540
     23 N          14.5815   41.4665    7.7725 N.ar    1  UNL1       -0.1727
     24 C          16.0896   40.5610    9.4868 C.3     1  UNL1        0.1271
     25 C          16.9674   41.8020    9.5115 C.3     1  UNL1        0.0263
     26 C          17.7867   41.8936    8.2349 C.3     1  UNL1        0.0021
     27 C          18.2577   43.3188    8.0086 C.3     1  UNL1        0.0001
     28 C          17.2989   43.7869    5.7758 C.3     1  UNL1        0.0000
     29 C          17.2071   44.1098    7.2519 C.3     1  UNL1        0.0000
@<TRIPOS>BOND
     1    28    29    1
     2    29    27    1
     3    27    26    1
     4    26    25    1
     5    25    24    1
     6    24    22    1
     7    17    19   ar
     8    18    17    1
     9    19     2    1
    10     1     5    1
    11     6    14   ar
    12     7     8   ar
    13     9    10   ar
    14    11    12   ar
    15    13     5   ar
    16    13     8   ar
    17    20    22   ar
    18    21    20    1
    19    22    23   ar
    20     2     1   am
    21    14     7   ar
    22    17    23   ar
    23    19    20   ar
    24     1     3    2
    25     5     6   ar
    26     7    15    2
    27     8     9   ar
    28    10    11   ar
    29    12    13   ar
    30     2     4    1
    31    14    16    1
@<TRIPOS>MOLECULE
MolPort-035-873-043 CSSS00160825063 MCULE-7681890348 PubChem-100020889 ZINC000218602886
 29 31 0 0 0
SMALL
GASTEIGER

@<TRIPOS>ATOM
      1 C          14.0198   40.6729    9.0150 C.2     1  UNL1        0.2510
      2 N          13.8373   39.2992    8.6487 N.am    1  UNL1       -0.2785
      3 O          13.1346   41.2596    9.6937 O.2     1  UNL1       -0.2698
      4 H          14.6343   38.8022    8.3536 H       1  UNL1        0.1552
      5 C          15.2804   41.3679    8.6415 C.ar    1  UNL1        0.0708
      6 C          16.4364   41.0639    9.3725 C.ar    1  UNL1        0.0792
      7 C          17.7529   42.5697    8.0930 C.ar    1  UNL1        0.2576
      8 C          16.6374   42.9201    7.3179 C.ar    1  UNL1        0.0561
      9 C          16.7514   43.8572    6.2798 C.ar    1  UNL1        0.0047
     10 C          15.6384   44.1978    5.5100 C.ar    1  UNL1        0.0002
     11 C          14.4029   43.6050    5.7699 C.ar    1  UNL1        0.0000
     12 C          14.2780   42.6715    6.8009 C.ar    1  UNL1        0.0003
     13 C          15.3838   42.3143    7.5906 C.ar    1  UNL1        0.0104
     14 N          17.6236   41.6585    9.0900 N.ar    1  UNL1       -0.3198
     15 O          18.8797   43.0909    7.8750 O.2     1  UNL1       -0.2672
     16 H          18.4152   41.4211    9.6250 H       1  UNL1        0.1690
     17 C          12.1666   37.6121    9.5654 C.ar    1  UNL1        0.0935
     18 C          12.9101   37.0656   10.7335 C.3     1  UNL1        0.0553
     19 C          12.5936   38.5874    8.6755 C.ar    1  UNL1        0.0793
     20 C          11.5000   38.8522    7.8843 C.ar    1  UNL1        0.0705
     21 C          11.4212   39.8630    6.7902 C.3     1  UNL1        0.0531
     22 N          10.4914   38.0506    8.2776 N.ar    1  UNL1       -0.2540
     23 N          10.8818   37.2996    9.2980 N.ar    1  UNL1       -0.1727
     24 C           9.1570   37.9979    7.6946 C.3     1  UNL1        0.1271
     25 C           8.7435   39.3669    7.1790 C.3     1  UNL1        0.0263
     26 C           8.5738   39.3324    5.6692 C.3     1  UNL1        0.0021
     27 C           9.0828   38.0167    5.1087 C.3     1  UNL1        0.0001
     28 C           9.9145   39.7359    3.5350 C.3     1  UNL1        0.0000
     29 C           9.8426   38.2502    3.8164 C.3     1  UNL1        0.0000
@<TRIPOS>BOND
     1    28    29    1
     2    29    27    1
     3    27    26    1
     4    26    25    1
     5    25    24    1
     6    24    22    1
     7    17    19   ar
     8    18    17    1
     9    19     2    1
    10     1     5    1
    11     6    14   ar
    12     7     8   ar
    13     9    10   ar
    14    11    12   ar
    15    13     5   ar
    16    13     8   ar
    17    20    22   ar
    18    21    20    1
    19    22    23   ar
    20     2     1   am
    21    14     7   ar
    22    17    23   ar
    23    19    20   ar
    24     1     3    2
    25     5     6   ar
    26     7    15    2
    27     8     9   ar
    28    10    11   ar
    29    12    13   ar
    30     2     4    1
    31    14    16    1
@<TRIPOS>MOLECULE
MolPort-035-873-043 CSSS00160825063 MCULE-7681890348 PubChem-100020889 ZINC000218602886
 29 31 0 0 0
SMALL
GASTEIGER

@<TRIPOS>ATOM
      1 C          12.6056   42.4413    7.3135 C.2     1  UNL1        0.2510
      2 N          12.1798   42.7056    8.6565 N.am    1  UNL1       -0.2785
      3 O          11.8352   41.8315    6.5243 O.2     1  UNL1       -0.2698
      4 H          12.6760   43.3912    9.1594 H       1  UNL1        0.1552
      5 C          13.9265   42.9457    6.8527 C.ar    1  UNL1        0.0708
      6 C          13.9429   43.8690    5.7989 C.ar    1  UNL1        0.0792
      7 C          16.3124   44.0142    5.8406 C.ar    1  UNL1        0.2576
      8 C          16.3715   43.0962    6.8997 C.ar    1  UNL1        0.0561
      9 C          17.6045   42.7152    7.4505 C.ar    1  UNL1        0.0047
     10 C          17.6555   41.8047    8.5067 C.ar    1  UNL1        0.0002
     11 C          16.4758   41.2679    9.0221 C.ar    1  UNL1        0.0000
     12 C          15.2432   41.6396    8.4814 C.ar    1  UNL1        0.0003
     13 C          15.1670   42.5529    7.4164 C.ar    1  UNL1        0.0104
     14 N          15.1103   44.3734    5.3240 N.ar    1  UNL1       -0.3198
     15 O          17.3653   44.5138    5.3602 O.2     1  UNL1       -0.2672
     16 H          15.0838   45.0197    4.5818 H       1  UNL1        0.1690
     17 C          10.9250   40.7094    9.6149 C.ar    1  UNL1        0.0935
     18 C          11.8547   39.5931    9.2901 C.3     1  UNL1        0.0553
     19 C          11.0934   42.0568    9.3295 C.ar    1  UNL1        0.0793
     20 C          10.0513   42.6895    9.9665 C.ar    1  UNL1        0.0705
     21 C           9.7978   44.1589   10.0068 C.3     1  UNL1        0.0531
     22 N           9.2967   41.7526   10.5725 N.ar    1  UNL1       -0.2540
     23 N           9.8191   40.5509   10.3710 N.ar    1  UNL1       -0.1727
     24 C           8.0860   41.9920   11.3473 C.3     1  UNL1        0.1271
     25 C           6.8625   41.4903   10.5975 C.3     1  UNL1        0.0263
     26 C           6.5725   42.3845    9.4034 C.3     1  UNL1        0.0021
     27 C           6.8015   41.6285    8.1072 C.3     1  UNL1        0.0001
     28 C           6.8772   43.3178    6.3004 C.3     1  UNL1        0.0000
     29 C           7.7126   42.4190    7.1869 C.3     1  UNL1        0.0000
@<TRIPOS>BOND
     1    28    29    1
     2    29    27    1
     3    27    26    1
     4    26    25    1
     5    25    24    1
     6    24    22    1
     7    17    19   ar
     8    18    17    1
     9    19     2    1
    10     1     5    1
    11     6    14   ar
    12     7     8   ar
    13     9    10   ar
    14    11    12   ar
    15    13     5   ar
    16    13     8   ar
    17    20    22   ar
    18    21    20    1
    19    22    23   ar
    20     2     1   am
    21    14     7   ar
    22    17    23   ar
    23    19    20   ar
    24     1     3    2
    25     5     6   ar
    26     7    15    2
    27     8     9   ar
    28    10    11   ar
    29    12    13   ar
    30     2     4    1
    31    14    16    1
@<TRIPOS>MOLECULE
MolPort-035-873-043 CSSS00160825063 MCULE-7681890348 PubChem-100020889 ZINC000218602886
 29 31 0 0 0
SMALL
GASTEIGER

@<TRIPOS>ATOM
      1 C          13.1219   42.2621    7.1450 C.2     1  UNL1        0.2510
      2 N          11.8841   41.7169    7.6195 N.am    1  UNL1       -0.2785
      3 O          13.1107   43.1309    6.2321 O.2     1  UNL1       -0.2698
      4 H          11.9009   41.2489    8.4856 H       1  UNL1        0.1552
      5 C          14.3983   41.8397    7.7806 C.ar    1  UNL1        0.0708
      6 C          14.3938   40.6600    8.5366 C.ar    1  UNL1        0.0792
      7 C          16.7003   40.8754    9.0571 C.ar    1  UNL1        0.2576
      8 C          16.7792   42.0625    8.3138 C.ar    1  UNL1        0.0561
      9 C          17.9911   42.7614    8.2053 C.ar    1  UNL1        0.0047
     10 C          18.0633   43.9393    7.4608 C.ar    1  UNL1        0.0002
     11 C          16.9264   44.4286    6.8177 C.ar    1  UNL1        0.0000
     12 C          15.7150   43.7415    6.9193 C.ar    1  UNL1        0.0003
     13 C          15.6175   42.5547    7.6650 C.ar    1  UNL1        0.0104
     14 N          15.5203   40.2116    9.1469 N.ar    1  UNL1       -0.3198
     15 O          17.7152   40.4134    9.6448 O.2     1  UNL1       -0.2672
     16 H          15.4799   39.3791    9.6708 H       1  UNL1        0.1690
     17 C          10.2915   41.3549    5.6675 C.ar    1  UNL1        0.0935
     18 C          11.1797   40.6764    4.6842 C.3     1  UNL1        0.0553
     19 C          10.6242   41.7947    6.9408 C.ar    1  UNL1        0.0793
     20 C           9.4352   42.2024    7.4996 C.ar    1  UNL1        0.0705
     21 C           9.2388   42.7247    8.8829 C.3     1  UNL1        0.0531
     22 N           8.4600   42.0324    6.5860 N.ar    1  UNL1       -0.2540
     23 N           8.9659   41.5150    5.4751 N.ar    1  UNL1       -0.1727
     24 C           7.0496   42.3524    6.7635 C.3     1  UNL1        0.1271
     25 C           6.2692   41.1176    7.1844 C.3     1  UNL1        0.0263
     26 C           7.2216   40.0050    7.5903 C.3     1  UNL1        0.0021
     27 C           7.2458   38.9162    6.5328 C.3     1  UNL1        0.0001
     28 C           9.3282   38.5052    7.8050 C.3     1  UNL1        0.0000
     29 C           8.6012   38.2351    6.5049 C.3     1  UNL1        0.0000
@<TRIPOS>BOND
     1    28    29    1
     2    29    27    1
     3    27    26    1
     4    26    25    1
     5    25    24    1
     6    24    22    1
     7    17    19   ar
     8    18    17    1
     9    19     2    1
    10     1     5    1
    11     6    14   ar
    12     7     8   ar
    13     9    10   ar
    14    11    12   ar
    15    13     5   ar
    16    13     8   ar
    17    20    22   ar
    18    21    20    1
    19    22    23   ar
    20     2     1   am
    21    14     7   ar
    22    17    23   ar
    23    19    20   ar
    24     1     3    2
    25     5     6   ar
    26     7    15    2
    27     8     9   ar
    28    10    11   ar
    29    12    13   ar
    30     2     4    1
    31    14    16    1
@<TRIPOS>MOLECULE
MolPort-035-873-043 CSSS00160825063 MCULE-7681890348 PubChem-100020889 ZINC000218602886
 29 31 0 0 0
SMALL
GASTEIGER

@<TRIPOS>ATOM
      1 C          12.6466   40.8599    7.4476 C.2     1  UNL1        0.2510
      2 N          11.8064   41.5856    6.5409 N.am    1  UNL1       -0.2785
      3 O          12.2314   39.7842    7.9563 O.2     1  UNL1       -0.2698
      4 H          12.2380   42.2626    5.9711 H       1  UNL1        0.1552
      5 C          14.0209   41.3552    7.7264 C.ar    1  UNL1        0.0708
      6 C          14.8125   40.6206    8.6191 C.ar    1  UNL1        0.0792
      7 C          16.6360   42.1228    8.3824 C.ar    1  UNL1        0.2576
      8 C          15.9022   42.9049    7.4782 C.ar    1  UNL1        0.0561
      9 C          16.4643   44.0558    6.9050 C.ar    1  UNL1        0.0047
     10 C          15.7300   44.8267    6.0030 C.ar    1  UNL1        0.0002
     11 C          14.4289   44.4544    5.6652 C.ar    1  UNL1        0.0000
     12 C          13.8595   43.3113    6.2298 C.ar    1  UNL1        0.0003
     13 C          14.5785   42.5206    7.1419 C.ar    1  UNL1        0.0104
     14 N          16.0766   41.0111    8.9230 N.ar    1  UNL1       -0.3198
     15 O          17.8140   42.4387    8.7008 O.2     1  UNL1       -0.2672
     16 H          16.6037   40.4709    9.5551 H       1  UNL1        0.1690
     17 C           9.6977   40.7123    5.4147 C.ar    1  UNL1        0.0935
     18 C          10.2681   39.9584    4.2649 C.3     1  UNL1        0.0553
     19 C          10.3917   41.4097    6.3931 C.ar    1  UNL1        0.0793
     20 C           9.4358   41.7906    7.3059 C.ar    1  UNL1        0.0705
     21 C           9.6704   42.5353    8.5769 C.3     1  UNL1        0.0531
     22 N           8.2380   41.3581    6.8669 N.ar    1  UNL1       -0.2540
     23 N           8.3851   40.6995    5.7258 N.ar    1  UNL1       -0.1727
     24 C           6.9552   41.5609    7.5277 C.3     1  UNL1        0.1271
     25 C           7.1513   41.7995    9.0162 C.3     1  UNL1        0.0263
     26 C           5.9253   41.3425    9.7893 C.3     1  UNL1        0.0021
     27 C           6.2183   41.3139   11.2785 C.3     1  UNL1        0.0001
     28 C           8.3017   41.0644   12.5903 C.3     1  UNL1        0.0000
     29 C           7.5839   41.9113   11.5612 C.3     1  UNL1        0.0000
@<TRIPOS>BOND
     1    28    29    1
     2    29    27    1
     3    27    26    1
     4    26    25    1
     5    25    24    1
     6    24    22    1
     7    17    19   ar
     8    18    17    1
     9    19     2    1
    10     1     5    1
    11     6    14   ar
    12     7     8   ar
    13     9    10   ar
    14    11    12   ar
    15    13     5   ar
    16    13     8   ar
    17    20    22   ar
    18    21    20    1
    19    22    23   ar
    20     2     1   am
    21    14     7   ar
    22    17    23   ar
    23    19    20   ar
    24     1     3    2
    25     5     6   ar
    26     7    15    2
    27     8     9   ar
    28    10    11   ar
    29    12    13   ar
    30     2     4    1
    31    14    16    1
@<TRIPOS>MOLECULE
MolPort-035-873-043 CSSS00160825063 MCULE-7681890348 PubChem-100020889 ZINC000218602886
 29 31 0 0 0
SMALL
GASTEIGER

@<TRIPOS>ATOM
      1 C          12.7671   42.3599    7.1406 C.2     1  UNL1        0.2510
      2 N          11.9900   42.4261    8.3432 N.am    1  UNL1       -0.2785
      3 O          12.2187   42.0036    6.0633 O.2     1  UNL1       -0.2698
      4 H          12.3643   42.9423    9.0933 H       1  UNL1        0.1552
      5 C          14.1955   42.7729    7.1695 C.ar    1  UNL1        0.0708
      6 C          14.5677   43.8943    6.4164 C.ar    1  UNL1        0.0792
      7 C          16.8363   43.7102    7.0925 C.ar    1  UNL1        0.2576
      8 C          16.5353   42.5827    7.8709 C.ar    1  UNL1        0.0561
      9 C          17.5372   41.9295    8.6046 C.ar    1  UNL1        0.0047
     10 C          17.2297   40.8110    9.3801 C.ar    1  UNL1        0.0002
     11 C          15.9193   40.3360    9.4301 C.ar    1  UNL1        0.0000
     12 C          14.9143   40.9780    8.7037 C.ar    1  UNL1        0.0003
     13 C          15.2002   42.1045    7.9142 C.ar    1  UNL1        0.0104
     14 N          15.8529   44.3306    6.3931 N.ar    1  UNL1       -0.3198
     15 O          18.0130   44.1585    7.0338 O.2     1  UNL1       -0.2672
     16 H          16.0784   45.1217    5.8522 H       1  UNL1        0.1690
     17 C          10.3316   40.4961    8.2901 C.ar    1  UNL1        0.0935
     18 C          11.1729   39.3995    7.7373 C.3     1  UNL1        0.0553
     19 C          10.7145   41.8049    8.5468 C.ar    1  UNL1        0.0793
     20 C           9.6395   42.3714    9.1915 C.ar    1  UNL1        0.0705
     21 C           9.5568   43.7628    9.7224 C.3     1  UNL1        0.0531
     22 N           8.6665   41.4442    9.2828 N.ar    1  UNL1       -0.2540
     23 N           9.0764   40.3037    8.7454 N.ar    1  UNL1       -0.1727
     24 C           7.3522   41.6328    9.8830 C.3     1  UNL1        0.1271
     25 C           6.3781   42.2100    8.8686 C.3     1  UNL1        0.0263
     26 C           5.0653   42.5702    9.5442 C.3     1  UNL1        0.0021
     27 C           4.8734   41.7444   10.8035 C.3     1  UNL1        0.0001
     28 C           2.8629   41.2529    9.4470 C.3     1  UNL1        0.0000
     29 C           3.6618   40.8419   10.6654 C.3     1  UNL1        0.0000
@<TRIPOS>BOND
     1    28    29    1
     2    29    27    1
     3    27    26    1
     4    26    25    1
     5    25    24    1
     6    24    22    1
     7    17    19   ar
     8    18    17    1
     9    19     2    1
    10     1     5    1
    11     6    14   ar
    12     7     8   ar
    13     9    10   ar
    14    11    12   ar
    15    13     5   ar
    16    13     8   ar
    17    20    22   ar
    18    21    20    1
    19    22    23   ar
    20     2     1   am
    21    14     7   ar
    22    17    23   ar
    23    19    20   ar
    24     1     3    2
    25     5     6   ar
    26     7    15    2
    27     8     9   ar
    28    10    11   ar
    29    12    13   ar
    30     2     4    1
    31    14    16    1
@<TRIPOS>MOLECULE
MolPort-035-873-043 CSSS00160825063 MCULE-7681890348 PubChem-100020889 ZINC000218602886
 29 31 0 0 0
SMALL
GASTEIGER

@<TRIPOS>ATOM
      1 C          12.8963   40.7869    8.4192 C.2     1  UNL1        0.2510
      2 N          12.3782   39.8830    7.4347 N.am    1  UNL1       -0.2785
      3 O          12.1979   41.0772    9.4273 O.2     1  UNL1       -0.2698
      4 H          13.0234   39.4792    6.8103 H       1  UNL1        0.1552
      5 C          14.2761   41.3205    8.2675 C.ar    1  UNL1        0.0708
      6 C          15.2922   40.7342    9.0337 C.ar    1  UNL1        0.0792
      7 C          16.9397   42.1827    8.1253 C.ar    1  UNL1        0.2576
      8 C          15.9749   42.8142    7.3265 C.ar    1  UNL1        0.0561
      9 C          16.3319   43.8625    6.4647 C.ar    1  UNL1        0.0047
     10 C          15.3676   44.4833    5.6699 C.ar    1  UNL1        0.0002
     11 C          14.0392   44.0621    5.7282 C.ar    1  UNL1        0.0000
     12 C          13.6727   43.0201    6.5825 C.ar    1  UNL1        0.0003
     13 C          14.6254   42.3813    7.3938 C.ar    1  UNL1        0.0104
     14 N          16.5757   41.1681    8.9494 N.ar    1  UNL1       -0.3198
     15 O          18.1464   42.5451    8.0876 O.2     1  UNL1       -0.2672
     16 H          17.2637   40.7331    9.5033 H       1  UNL1        0.1690
     17 C          10.2644   38.5793    7.9916 C.ar    1  UNL1        0.0935
     18 C          10.7359   37.7167    9.1094 C.3     1  UNL1        0.0553
     19 C          11.0009   39.5169    7.2818 C.ar    1  UNL1        0.0793
     20 C          10.0865   40.1518    6.4738 C.ar    1  UNL1        0.0705
     21 C          10.3633   41.2792    5.5372 C.3     1  UNL1        0.0531
     22 N           8.8790   39.5928    6.6838 N.ar    1  UNL1       -0.2540
     23 N           8.9737   38.6436    7.6045 N.ar    1  UNL1       -0.1727
     24 C           7.6345   39.9589    6.0202 C.3     1  UNL1        0.1271
     25 C           6.6525   40.5559    7.0153 C.3     1  UNL1        0.0263
     26 C           6.9110   42.0441    7.1829 C.3     1  UNL1        0.0021
     27 C           6.0678   42.6044    8.3140 C.3     1  UNL1        0.0001
     28 C           4.7802   44.6339    7.7251 C.3     1  UNL1        0.0000
     29 C           6.0883   44.1212    8.2887 C.3     1  UNL1        0.0000
@<TRIPOS>BOND
     1    28    29    1
     2    29    27    1
     3    27    26    1
     4    26    25    1
     5    25    24    1
     6    24    22    1
     7    17    19   ar
     8    18    17    1
     9    19     2    1
    10     1     5    1
    11     6    14   ar
    12     7     8   ar
    13     9    10   ar
    14    11    12   ar
    15    13     5   ar
    16    13     8   ar
    17    20    22   ar
    18    21    20    1
    19    22    23   ar
    20     2     1   am
    21    14     7   ar
    22    17    23   ar
    23    19    20   ar
    24     1     3    2
    25     5     6   ar
    26     7    15    2
    27     8     9   ar
    28    10    11   ar
    29    12    13   ar
    30     2     4    1
    31    14    16    1
