@<TRIPOS>MOLECULE
MolPort-051-666-280 Molport-051-666-279 MCULE-7009088479 MCULE-8366614588 PubChem-110089569
 21 23 0 0 0
SMALL
GASTEIGER

@<TRIPOS>ATOM
      1 C          12.6994   42.0436    6.3973 C.ar    1  UNL1        0.1329
      2 C          11.7981   41.1911    5.7453 C.ar    1  UNL1        0.0344
      3 C          11.3415   40.0441    6.3945 C.ar    1  UNL1        0.0041
      4 C          11.7842   39.7547    7.6847 C.ar    1  UNL1        0.0149
      5 C          12.6854   40.6253    8.3120 C.ar    1  UNL1        0.0614
      6 N          13.1156   41.7377    7.6567 N.ar    1  UNL1       -0.2348
      7 C          13.1854   40.3526    9.6949 C.3     1  UNL1        0.0561
      8 C          14.6425   39.8788    9.6667 C.3     1  UNL1        0.0087
      9 C          15.0414   39.2721   11.0104 C.3     1  UNL1        0.0175
     10 C          14.0425   38.2044   11.4898 C.3     1  UNL1        0.0686
     11 C          12.2592   39.3783   10.4405 C.3     1  UNL1        0.0745
     12 N          12.8893   38.0686   10.5957 N.3     1  UNL1       -0.2971
     13 H          12.2202   37.4112   10.9962 H       1  UNL1        0.1233
     14 N          13.1980   43.2341    5.7730 N.pl3   1  UNL1       -0.2807
     15 H          12.5826   43.7058    5.1662 H       1  UNL1        0.1551
     16 C          17.8528   44.0876    7.2023 C.3     1  UNL1        0.0754
     17 C          16.5124   44.1686    6.5650 C.ar    1  UNL1        0.1562
     18 C          15.4845   43.2631    6.7446 C.ar    1  UNL1        0.0733
     19 C          14.5002   43.8075    5.9417 C.ar    1  UNL1        0.1750
     20 N          14.9224   44.9378    5.3439 N.ar    1  UNL1       -0.0621
     21 O          16.1429   45.1227    5.7455 O.2     1  UNL1       -0.3565
@<TRIPOS>BOND
     1    16    17    1
     2    17    21   ar
     3    18    19   ar
     4    19    14    1
     5     1     6   ar
     6     2     3   ar
     7     4     5   ar
     8     7     5    1
     9     7     8    1
    10     8     9    1
    11     9    10    1
    12    10    12    1
    13    11    12    1
    14    11     7    1
    15    20    21   ar
    16    14     1    1
    17    17    18   ar
    18    19    20   ar
    19     1     2   ar
    20     3     4   ar
    21     5     6   ar
    22    14    15    1
    23    12    13    1
@<TRIPOS>MOLECULE
MolPort-051-666-280 Molport-051-666-279 MCULE-7009088479 MCULE-8366614588 PubChem-110089569
 21 23 0 0 0
SMALL
GASTEIGER

@<TRIPOS>ATOM
      1 C          11.8433   41.5757    6.6820 C.ar    1  UNL1        0.1329
      2 C          11.6925   40.2194    6.3631 C.ar    1  UNL1        0.0344
      3 C          11.0336   39.3710    7.2530 C.ar    1  UNL1        0.0041
      4 C          10.5309   39.8778    8.4508 C.ar    1  UNL1        0.0149
      5 C          10.6962   41.2383    8.7431 C.ar    1  UNL1        0.0614
      6 N          11.3430   42.0445    7.8579 N.ar    1  UNL1       -0.2348
      7 C          10.1727   41.8227   10.0164 C.3     1  UNL1        0.0561
      8 C          10.3971   40.8648   11.1914 C.3     1  UNL1        0.0087
      9 C           9.5679   41.2885   12.4020 C.3     1  UNL1        0.0175
     10 C           8.0874   41.5124   12.0476 C.3     1  UNL1        0.0686
     11 C           8.7030   42.2492    9.8711 C.3     1  UNL1        0.0745
     12 N           7.8197   41.3536   10.6156 N.3     1  UNL1       -0.2971
     13 H           6.8470   41.5904   10.4200 H       1  UNL1        0.1233
     14 N          12.5125   42.4878    5.8011 N.pl3   1  UNL1       -0.2807
     15 H          12.1245   42.6000    4.9033 H       1  UNL1        0.1551
     16 C          16.8657   43.9877    7.6007 C.3     1  UNL1        0.0754
     17 C          15.5709   43.8929    6.8768 C.ar    1  UNL1        0.1562
     18 C          14.7000   42.8218    6.9308 C.ar    1  UNL1        0.0733
     19 C          13.6881   43.2527    6.0940 C.ar    1  UNL1        0.1750
     20 N          13.9503   44.4753    5.5943 N.ar    1  UNL1       -0.0621
     21 O          15.0966   44.8285    6.0905 O.2     1  UNL1       -0.3565
@<TRIPOS>BOND
     1    16    17    1
     2    17    21   ar
     3    18    19   ar
     4    19    14    1
     5     1     6   ar
     6     2     3   ar
     7     4     5   ar
     8     7     5    1
     9     7     8    1
    10     8     9    1
    11     9    10    1
    12    10    12    1
    13    11    12    1
    14    11     7    1
    15    20    21   ar
    16    14     1    1
    17    17    18   ar
    18    19    20   ar
    19     1     2   ar
    20     3     4   ar
    21     5     6   ar
    22    14    15    1
    23    12    13    1
@<TRIPOS>MOLECULE
MolPort-051-666-280 Molport-051-666-279 MCULE-7009088479 MCULE-8366614588 PubChem-110089569
 21 23 0 0 0
SMALL
GASTEIGER

@<TRIPOS>ATOM
      1 C          13.6427   40.4592    9.5803 C.ar    1  UNL1        0.1329
      2 C          13.6496   39.8636   10.8489 C.ar    1  UNL1        0.0344
      3 C          12.4930   39.8880   11.6283 C.ar    1  UNL1        0.0041
      4 C          11.3409   40.5036   11.1403 C.ar    1  UNL1        0.0149
      5 C          11.3632   41.0908    9.8682 C.ar    1  UNL1        0.0614
      6 N          12.5046   41.0533    9.1281 N.ar    1  UNL1       -0.2348
      7 C          10.1499   41.7614    9.3070 C.3     1  UNL1        0.0561
      8 C           9.0982   41.9922   10.3975 C.3     1  UNL1        0.0087
      9 C           7.7463   42.3452    9.7807 C.3     1  UNL1        0.0175
     10 C           7.3177   41.3407    8.6967 C.3     1  UNL1        0.0686
     11 C           9.5936   40.9883    8.1005 C.3     1  UNL1        0.0745
     12 N           8.3377   40.3209    8.4375 N.3     1  UNL1       -0.2971
     13 H           8.0430   39.7309    7.6594 H       1  UNL1        0.1233
     14 N          14.8054   40.4607    8.7414 N.pl3   1  UNL1       -0.2807
     15 H          15.2593   39.5965    8.6137 H       1  UNL1        0.1551
     16 C          17.8459   44.0827    7.3009 C.3     1  UNL1        0.0754
     17 C          16.6951   43.1543    7.4534 C.ar    1  UNL1        0.1562
     18 C          16.6276   42.1030    8.3471 C.ar    1  UNL1        0.0733
     19 C          15.3741   41.5914    8.0698 C.ar    1  UNL1        0.1750
     20 N          14.7631   42.2892    7.0936 N.ar    1  UNL1       -0.0621
     21 O          15.5930   43.2252    6.7471 O.2     1  UNL1       -0.3565
@<TRIPOS>BOND
     1    16    17    1
     2    17    21   ar
     3    18    19   ar
     4    19    14    1
     5     1     6   ar
     6     2     3   ar
     7     4     5   ar
     8     7     5    1
     9     7     8    1
    10     8     9    1
    11     9    10    1
    12    10    12    1
    13    11    12    1
    14    11     7    1
    15    20    21   ar
    16    14     1    1
    17    17    18   ar
    18    19    20   ar
    19     1     2   ar
    20     3     4   ar
    21     5     6   ar
    22    14    15    1
    23    12    13    1
@<TRIPOS>MOLECULE
MolPort-051-666-280 Molport-051-666-279 MCULE-7009088479 MCULE-8366614588 PubChem-110089569
 21 23 0 0 0
SMALL
GASTEIGER

@<TRIPOS>ATOM
      1 C          11.6296   41.4511    6.7687 C.ar    1  UNL1        0.1329
      2 C          11.4543   40.7678    5.5576 C.ar    1  UNL1        0.0344
      3 C          10.1651   40.5246    5.0836 C.ar    1  UNL1        0.0041
      4 C           9.0627   40.9622    5.8167 C.ar    1  UNL1        0.0149
      5 C           9.2683   41.6429    7.0242 C.ar    1  UNL1        0.0614
      6 N          10.5363   41.8673    7.4644 N.ar    1  UNL1       -0.2348
      7 C           8.1140   42.1292    7.8415 C.3     1  UNL1        0.0561
      8 C           8.0583   41.4089    9.1931 C.3     1  UNL1        0.0087
      9 C           6.7100   41.6367    9.8735 C.3     1  UNL1        0.0175
     10 C           5.5250   41.3214    8.9439 C.3     1  UNL1        0.0686
     11 C           6.7946   42.0261    7.0596 C.3     1  UNL1        0.0745
     12 N           5.9513   40.9566    7.5902 N.3     1  UNL1       -0.2971
     13 H           5.1329   40.8369    6.9933 H       1  UNL1        0.1233
     14 N          12.9334   41.7253    7.2981 N.pl3   1  UNL1       -0.2807
     15 H          13.2278   41.1712    8.0568 H       1  UNL1        0.1551
     16 C          17.0286   44.3391    6.3837 C.3     1  UNL1        0.0754
     17 C          15.6274   43.8469    6.4455 C.ar    1  UNL1        0.1562
     18 C          15.2101   42.6981    7.0896 C.ar    1  UNL1        0.0733
     19 C          13.8518   42.7232    6.8360 C.ar    1  UNL1        0.1750
     20 N          13.5081   43.7996    6.1036 N.ar    1  UNL1       -0.0621
     21 O          14.6082   44.4540    5.8877 O.2     1  UNL1       -0.3565
@<TRIPOS>BOND
     1    16    17    1
     2    17    21   ar
     3    18    19   ar
     4    19    14    1
     5     1     6   ar
     6     2     3   ar
     7     4     5   ar
     8     7     5    1
     9     7     8    1
    10     8     9    1
    11     9    10    1
    12    10    12    1
    13    11    12    1
    14    11     7    1
    15    20    21   ar
    16    14     1    1
    17    17    18   ar
    18    19    20   ar
    19     1     2   ar
    20     3     4   ar
    21     5     6   ar
    22    14    15    1
    23    12    13    1
@<TRIPOS>MOLECULE
MolPort-051-666-280 Molport-051-666-279 MCULE-7009088479 MCULE-8366614588 PubChem-110089569
 21 23 0 0 0
SMALL
GASTEIGER

@<TRIPOS>ATOM
      1 C          17.0602   40.1562    9.7772 C.ar    1  UNL1        0.1329
      2 C          17.7607   39.2283   10.5598 C.ar    1  UNL1        0.0344
      3 C          17.1767   37.9969   10.8570 C.ar    1  UNL1        0.0041
      4 C          15.9030   37.6989   10.3742 C.ar    1  UNL1        0.0149
      5 C          15.2262   38.6460    9.5940 C.ar    1  UNL1        0.0614
      6 N          15.8183   39.8400    9.3186 N.ar    1  UNL1       -0.2348
      7 C          13.8588   38.3670    9.0564 C.3     1  UNL1        0.0561
      8 C          12.8218   39.3042    9.6848 C.3     1  UNL1        0.0087
      9 C          11.4044   38.8033    9.4146 C.3     1  UNL1        0.0175
     10 C          11.2249   37.3229    9.7936 C.3     1  UNL1        0.0686
     11 C          13.4899   36.8831    9.2140 C.3     1  UNL1        0.0745
     12 N          12.4721   36.7013   10.2473 N.3     1  UNL1       -0.2971
     13 H          12.3205   35.7056   10.4082 H       1  UNL1        0.1233
     14 N          17.6167   41.4349    9.4444 N.pl3   1  UNL1       -0.2807
     15 H          18.5054   41.6401    9.8150 H       1  UNL1        0.1551
     16 C          14.6951   43.8338    6.2588 C.3     1  UNL1        0.0754
     17 C          15.7438   43.4738    7.2487 C.ar    1  UNL1        0.1562
     18 C          15.9338   42.2182    7.7929 C.ar    1  UNL1        0.0733
     19 C          17.0118   42.4447    8.6275 C.ar    1  UNL1        0.1750
     20 N          17.4152   43.7283    8.5725 N.ar    1  UNL1       -0.0621
     21 O          16.6245   44.3179    7.7286 O.2     1  UNL1       -0.3565
@<TRIPOS>BOND
     1    16    17    1
     2    17    21   ar
     3    18    19   ar
     4    19    14    1
     5     1     6   ar
     6     2     3   ar
     7     4     5   ar
     8     7     5    1
     9     7     8    1
    10     8     9    1
    11     9    10    1
    12    10    12    1
    13    11    12    1
    14    11     7    1
    15    20    21   ar
    16    14     1    1
    17    17    18   ar
    18    19    20   ar
    19     1     2   ar
    20     3     4   ar
    21     5     6   ar
    22    14    15    1
    23    12    13    1
@<TRIPOS>MOLECULE
MolPort-051-666-280 Molport-051-666-279 MCULE-7009088479 MCULE-8366614588 PubChem-110089569
 21 23 0 0 0
SMALL
GASTEIGER

@<TRIPOS>ATOM
      1 C          15.1739   40.3072    9.6818 C.ar    1  UNL1        0.1329
      2 C          15.4155   39.4108   10.7318 C.ar    1  UNL1        0.0344
      3 C          14.3529   38.9715   11.5215 C.ar    1  UNL1        0.0041
      4 C          13.0609   39.4265   11.2609 C.ar    1  UNL1        0.0149
      5 C          12.8491   40.3224   10.2044 C.ar    1  UNL1        0.0614
      6 N          13.9031   40.7356    9.4491 N.ar    1  UNL1       -0.2348
      7 C          11.4796   40.8352    9.8909 C.3     1  UNL1        0.0561
      8 C          11.5344   42.2951    9.4280 C.3     1  UNL1        0.0087
      9 C          10.1416   42.9218    9.4456 C.3     1  UNL1        0.0175
     10 C           9.4243   42.7155   10.7912 C.3     1  UNL1        0.0686
     11 C          10.5208   40.6233   11.0735 C.3     1  UNL1        0.0745
     12 N          10.1994   41.8925   11.7236 N.3     1  UNL1       -0.2971
     13 H           9.6502   41.7176   12.5651 H       1  UNL1        0.1233
     14 N          16.2318   40.7881    8.8421 N.pl3   1  UNL1       -0.2807
     15 H          16.9356   40.1421    8.6043 H       1  UNL1        0.1551
     16 C          15.6553   44.9127    6.1786 C.3     1  UNL1        0.0754
     17 C          16.1131   43.8917    7.1571 C.ar    1  UNL1        0.1562
     18 C          15.6001   42.6150    7.2811 C.ar    1  UNL1        0.0733
     19 C          16.3694   42.1127    8.3135 C.ar    1  UNL1        0.1750
     20 N          17.2574   43.0243    8.7536 N.ar    1  UNL1       -0.0621
     21 O          17.0716   44.0859    8.0301 O.2     1  UNL1       -0.3565
@<TRIPOS>BOND
     1    16    17    1
     2    17    21   ar
     3    18    19   ar
     4    19    14    1
     5     1     6   ar
     6     2     3   ar
     7     4     5   ar
     8     7     5    1
     9     7     8    1
    10     8     9    1
    11     9    10    1
    12    10    12    1
    13    11    12    1
    14    11     7    1
    15    20    21   ar
    16    14     1    1
    17    17    18   ar
    18    19    20   ar
    19     1     2   ar
    20     3     4   ar
    21     5     6   ar
    22    14    15    1
    23    12    13    1
@<TRIPOS>MOLECULE
MolPort-051-666-280 Molport-051-666-279 MCULE-7009088479 MCULE-8366614588 PubChem-110089569
 21 23 0 0 0
SMALL
GASTEIGER

@<TRIPOS>ATOM
      1 C           6.6552   40.5212    7.4052 C.ar    1  UNL1        0.1329
      2 C           6.8691   39.6565    6.3232 C.ar    1  UNL1        0.0344
      3 C           8.1718   39.3086    5.9658 C.ar    1  UNL1        0.0041
      4 C           9.2493   39.8226    6.6862 C.ar    1  UNL1        0.0149
      5 C           9.0052   40.6849    7.7635 C.ar    1  UNL1        0.0614
      6 N           7.7248   41.0087    8.0915 N.ar    1  UNL1       -0.2348
      7 C          10.1318   41.2587    8.5626 C.3     1  UNL1        0.0561
      8 C          11.4853   40.8691    7.9587 C.3     1  UNL1        0.0087
      9 C          12.6185   41.1458    8.9447 C.3     1  UNL1        0.0175
     10 C          12.3497   40.5351   10.3312 C.3     1  UNL1        0.0686
     11 C          10.0128   40.8779   10.0471 C.3     1  UNL1        0.0745
     12 N          11.0322   39.8999   10.4222 N.3     1  UNL1       -0.2971
     13 H          10.8690   39.5836   11.3781 H       1  UNL1        0.1233
     14 N           5.3361   40.9088    7.8116 N.pl3   1  UNL1       -0.2807
     15 H           4.6547   40.9672    7.1034 H       1  UNL1        0.1551
     16 C           2.6176   42.1611   11.7461 C.3     1  UNL1        0.0754
     17 C           3.7251   41.7622   10.8385 C.ar    1  UNL1        0.1562
     18 C           3.6129   41.5697    9.4751 C.ar    1  UNL1        0.0733
     19 C           4.9081   41.2200    9.1431 C.ar    1  UNL1        0.1750
     20 N           5.7078   41.2100   10.2264 N.ar    1  UNL1       -0.0621
     21 O           4.9564   41.5429   11.2313 O.2     1  UNL1       -0.3565
@<TRIPOS>BOND
     1    16    17    1
     2    17    21   ar
     3    18    19   ar
     4    19    14    1
     5     1     6   ar
     6     2     3   ar
     7     4     5   ar
     8     7     5    1
     9     7     8    1
    10     8     9    1
    11     9    10    1
    12    10    12    1
    13    11    12    1
    14    11     7    1
    15    20    21   ar
    16    14     1    1
    17    17    18   ar
    18    19    20   ar
    19     1     2   ar
    20     3     4   ar
    21     5     6   ar
    22    14    15    1
    23    12    13    1
@<TRIPOS>MOLECULE
MolPort-051-666-280 Molport-051-666-279 MCULE-7009088479 MCULE-8366614588 PubChem-110089569
 21 23 0 0 0
SMALL
GASTEIGER

@<TRIPOS>ATOM
      1 C          14.2908   40.2648    9.3108 C.ar    1  UNL1        0.1329
      2 C          13.9381   40.0031   10.6417 C.ar    1  UNL1        0.0344
      3 C          12.6072   39.7351   10.9622 C.ar    1  UNL1        0.0041
      4 C          11.6397   39.7296    9.9581 C.ar    1  UNL1        0.0149
      5 C          12.0216   39.9946    8.6362 C.ar    1  UNL1        0.0614
      6 N          13.3267   40.2532    8.3501 N.ar    1  UNL1       -0.2348
      7 C          11.0160   39.9988    7.5291 C.3     1  UNL1        0.0561
      8 C          11.4496   40.9389    6.3992 C.3     1  UNL1        0.0087
      9 C          10.2870   41.2155    5.4481 C.3     1  UNL1        0.0175
     10 C           9.0184   41.6693    6.1913 C.3     1  UNL1        0.0686
     11 C           9.6074   40.3156    8.0567 C.3     1  UNL1        0.0745
     12 N           9.1811   41.6525    7.6476 N.3     1  UNL1       -0.2971
     13 H           8.2934   41.8815    8.0948 H       1  UNL1        0.1233
     14 N          15.6444   40.5458    8.9305 N.pl3   1  UNL1       -0.2807
     15 H          16.2937   39.8130    9.0340 H       1  UNL1        0.1551
     16 C          16.2244   44.7184    6.3437 C.3     1  UNL1        0.0754
     17 C          16.3914   43.5860    7.2920 C.ar    1  UNL1        0.1562
     18 C          15.5304   42.5128    7.4169 C.ar    1  UNL1        0.0733
     19 C          16.1487   41.7839    8.4151 C.ar    1  UNL1        0.1750
     20 N          17.2774   42.3854    8.8360 N.ar    1  UNL1       -0.0621
     21 O          17.3898   43.4713    8.1337 O.2     1  UNL1       -0.3565
@<TRIPOS>BOND
     1    16    17    1
     2    17    21   ar
     3    18    19   ar
     4    19    14    1
     5     1     6   ar
     6     2     3   ar
     7     4     5   ar
     8     7     5    1
     9     7     8    1
    10     8     9    1
    11     9    10    1
    12    10    12    1
    13    11    12    1
    14    11     7    1
    15    20    21   ar
    16    14     1    1
    17    17    18   ar
    18    19    20   ar
    19     1     2   ar
    20     3     4   ar
    21     5     6   ar
    22    14    15    1
    23    12    13    1
@<TRIPOS>MOLECULE
MolPort-051-666-280 Molport-051-666-279 MCULE-7009088479 MCULE-8366614588 PubChem-110089569
 21 23 0 0 0
SMALL
GASTEIGER

@<TRIPOS>ATOM
      1 C          12.0832   41.7257    8.6387 C.ar    1  UNL1        0.1329
      2 C          11.1819   42.5086    9.3728 C.ar    1  UNL1        0.0344
      3 C          10.5860   41.9821   10.5189 C.ar    1  UNL1        0.0041
      4 C          10.8909   40.6835   10.9248 C.ar    1  UNL1        0.0149
      5 C          11.7958   39.9239   10.1713 C.ar    1  UNL1        0.0614
      6 N          12.3632   40.4611    9.0571 N.ar    1  UNL1       -0.2348
      7 C          12.1505   38.5271   10.5711 C.3     1  UNL1        0.0561
      8 C          13.5439   38.4767   11.2070 C.3     1  UNL1        0.0087
      9 C          14.0490   37.0379   11.2925 C.3     1  UNL1        0.0175
     10 C          13.9457   36.3006    9.9459 C.3     1  UNL1        0.0686
     11 C          12.0019   37.5545    9.3901 C.3     1  UNL1        0.0745
     12 N          13.3082   37.1124    8.9056 N.3     1  UNL1       -0.2971
     13 H          13.1897   36.5548    8.0597 H       1  UNL1        0.1233
     14 N          12.7216   42.2209    7.4543 N.pl3   1  UNL1       -0.2807
     15 H          12.1464   42.3597    6.6674 H       1  UNL1        0.1551
     16 C          16.9840   44.3097    6.0733 C.3     1  UNL1        0.0754
     17 C          15.9489   43.4439    6.6964 C.ar    1  UNL1        0.1562
     18 C          14.5856   43.5627    6.5067 C.ar    1  UNL1        0.0733
     19 C          14.1110   42.5346    7.2988 C.ar    1  UNL1        0.1750
     20 N          15.1173   41.8723    7.9002 N.ar    1  UNL1       -0.0621
     21 O          16.2121   42.4513    7.5113 O.2     1  UNL1       -0.3565
@<TRIPOS>BOND
     1    16    17    1
     2    17    21   ar
     3    18    19   ar
     4    19    14    1
     5     1     6   ar
     6     2     3   ar
     7     4     5   ar
     8     7     5    1
     9     7     8    1
    10     8     9    1
    11     9    10    1
    12    10    12    1
    13    11    12    1
    14    11     7    1
    15    20    21   ar
    16    14     1    1
    17    17    18   ar
    18    19    20   ar
    19     1     2   ar
    20     3     4   ar
    21     5     6   ar
    22    14    15    1
    23    12    13    1
@<TRIPOS>MOLECULE
MolPort-051-666-280 Molport-051-666-279 MCULE-7009088479 MCULE-8366614588 PubChem-110089569
 21 23 0 0 0
SMALL
GASTEIGER

@<TRIPOS>ATOM
      1 C           8.0776   43.1340    8.8159 C.ar    1  UNL1        0.1329
      2 C           8.4349   44.2886    9.5255 C.ar    1  UNL1        0.0344
      3 C           9.6290   44.3130   10.2461 C.ar    1  UNL1        0.0041
      4 C          10.4566   43.1908   10.2551 C.ar    1  UNL1        0.0149
      5 C          10.0737   42.0504    9.5363 C.ar    1  UNL1        0.0614
      6 N           8.9036   42.0525    8.8415 N.ar    1  UNL1       -0.2348
      7 C          10.9317   40.8255    9.5194 C.3     1  UNL1        0.0561
      8 C          11.5656   40.5820   10.8932 C.3     1  UNL1        0.0087
      9 C          12.6973   39.5611   10.7947 C.3     1  UNL1        0.0175
     10 C          13.7083   39.9132    9.6894 C.3     1  UNL1        0.0686
     11 C          11.9715   40.8889    8.3890 C.3     1  UNL1        0.0745
     12 N          13.3159   41.0989    8.9228 N.3     1  UNL1       -0.2971
     13 H          13.9714   41.2432    8.1546 H       1  UNL1        0.1233
     14 N           6.8613   43.0591    8.0605 N.pl3   1  UNL1       -0.2807
     15 H           6.9511   43.0233    7.0807 H       1  UNL1        0.1551
     16 C           2.6356   41.6329   10.1931 C.3     1  UNL1        0.0754
     17 C           3.7054   42.4058    9.5093 C.ar    1  UNL1        0.1562
     18 C           4.9613   41.9259    9.1913 C.ar    1  UNL1        0.0733
     19 C           5.5285   43.0310    8.5857 C.ar    1  UNL1        0.1750
     20 N           4.6713   44.0689    8.5545 N.ar    1  UNL1       -0.0621
     21 O           3.5808   43.6519    9.1220 O.2     1  UNL1       -0.3565
@<TRIPOS>BOND
     1    16    17    1
     2    17    21   ar
     3    18    19   ar
     4    19    14    1
     5     1     6   ar
     6     2     3   ar
     7     4     5   ar
     8     7     5    1
     9     7     8    1
    10     8     9    1
    11     9    10    1
    12    10    12    1
    13    11    12    1
    14    11     7    1
    15    20    21   ar
    16    14     1    1
    17    17    18   ar
    18    19    20   ar
    19     1     2   ar
    20     3     4   ar
    21     5     6   ar
    22    14    15    1
    23    12    13    1
