@<TRIPOS>MOLECULE
MolPort-003-082-970 4341985 CSSS03437139713 MCULE-6851591878 PubChem-7200170 ZINC000004341985
 29 31 0 0 0
SMALL
GASTEIGER

@<TRIPOS>ATOM
      1 C          12.0643   41.4664    6.6243 C.ar    1  UNL1        0.2119
      2 C          10.5817   40.3764    5.5548 C.ar    1  UNL1        0.1468
      3 C          10.4483   39.9819    6.8639 C.ar    1  UNL1        0.0512
      4 C           9.5331   39.0015    7.2447 C.ar    1  UNL1        0.0044
      5 C           8.7150   38.4486    6.2436 C.ar    1  UNL1        0.0002
      6 C           8.8367   38.8715    4.9024 C.ar    1  UNL1        0.0031
      7 C           9.7844   39.8466    4.5430 C.ar    1  UNL1        0.0375
      8 C          11.3969   40.6935    7.5715 C.ar    1  UNL1        0.0929
      9 O          11.5431   41.2609    5.4275 O.2     1  UNL1       -0.4476
     10 C          13.1849   42.3849    6.8686 C.2     1  UNL1        0.2856
     11 O          12.9915   43.6301    6.8763 O.2     1  UNL1       -0.2664
     12 N          14.4913   41.8397    7.0978 N.am    1  UNL1       -0.2755
     13 H          14.5650   40.8584    7.0695 H       1  UNL1        0.1554
     14 C          15.7045   42.5605    7.3640 C.ar    1  UNL1        0.0851
     15 C          15.9991   43.7399    6.6609 C.ar    1  UNL1        0.0178
     16 C          17.1902   44.4305    6.8848 C.ar    1  UNL1        0.0015
     17 C          18.1088   43.9472    7.8141 C.ar    1  UNL1        0.0032
     18 C          17.8322   42.7776    8.5227 C.ar    1  UNL1        0.0382
     19 C          16.6372   42.0769    8.3193 C.ar    1  UNL1        0.1519
     20 O          16.4465   40.9128    9.0826 O.3     1  UNL1       -0.4742
     21 C          17.4218   40.3098    9.9250 C.3     1  UNL1        0.2056
     22 C          17.2741   38.8003    9.8948 C.3     1  UNL1        0.0512
     23 C          12.4861   39.5360    9.5676 C.2     1  UNL1        0.2262
     24 O          12.6634   38.4414    8.9709 O.2     1  UNL1       -0.2748
     25 N          11.7353   40.5922    8.9614 N.am    1  UNL1       -0.2813
     26 H          11.4226   41.3152    9.5520 H       1  UNL1        0.1549
     27 C          12.9804   39.6982   10.9610 C.3     1  UNL1        0.0854
     28 C          13.6167   38.4070   11.4357 C.3     1  UNL1        0.0096
     29 C          14.8997   38.7194   12.1759 C.3     1  UNL1        0.0005
@<TRIPOS>BOND
     1     1    10    1
     2     1     9   ar
     3    10    12   am
     4    15    16   ar
     5    17    18   ar
     6    19    20    1
     7    19    14   ar
     8    21    20    1
     9    21    22    1
    10     2     9   ar
    11     3     4   ar
    12     3     8   ar
    13     5     6   ar
    14     7     2   ar
    15     8    25    1
    16    27    23    1
    17    27    28    1
    18    28    29    1
    19    12    14    1
    20    25    23   am
    21    10    11    2
    22    14    15   ar
    23    16    17   ar
    24    18    19   ar
    25     2     3   ar
    26     4     5   ar
    27     6     7   ar
    28     8     1   ar
    29    23    24    2
    30    12    13    1
    31    25    26    1
@<TRIPOS>MOLECULE
MolPort-003-082-970 4341985 CSSS03437139713 MCULE-6851591878 PubChem-7200170 ZINC000004341985
 29 31 0 0 0
SMALL
GASTEIGER

@<TRIPOS>ATOM
      1 C          11.9589   41.7065    6.3239 C.ar    1  UNL1        0.2119
      2 C          10.5132   40.4689    5.3710 C.ar    1  UNL1        0.1468
      3 C          10.1414   40.5095    6.6928 C.ar    1  UNL1        0.0512
      4 C           9.0580   39.7748    7.1727 C.ar    1  UNL1        0.0044
      5 C           8.3258   39.0113    6.2463 C.ar    1  UNL1        0.0002
      6 C           8.6946   38.9888    4.8840 C.ar    1  UNL1        0.0031
      7 C           9.8060   39.7223    4.4315 C.ar    1  UNL1        0.0375
      8 C          11.0649   41.3220    7.3203 C.ar    1  UNL1        0.0929
      9 O          11.5925   41.1870    5.1655 O.2     1  UNL1       -0.4476
     10 C          13.1455   42.5578    6.4863 C.2     1  UNL1        0.2856
     11 O          13.1007   43.7739    6.1587 O.2     1  UNL1       -0.2664
     12 N          14.3445   41.9818    7.0223 N.am    1  UNL1       -0.2755
     13 H          14.3046   41.0244    7.2482 H       1  UNL1        0.1554
     14 C          15.5966   42.6408    7.2674 C.ar    1  UNL1        0.0851
     15 C          15.9330   43.8104    6.5667 C.ar    1  UNL1        0.0178
     16 C          17.1607   44.4407    6.7697 C.ar    1  UNL1        0.0015
     17 C          18.0744   43.9058    7.6754 C.ar    1  UNL1        0.0032
     18 C          17.7564   42.7450    8.3812 C.ar    1  UNL1        0.0382
     19 C          16.5248   42.1047    8.1987 C.ar    1  UNL1        0.1519
     20 O          16.2941   40.9449    8.9573 O.3     1  UNL1       -0.4742
     21 C          15.0245   40.3408    9.1755 C.3     1  UNL1        0.2056
     22 C          15.0416   39.5450   10.4670 C.3     1  UNL1        0.0512
     23 C          10.2012   42.2896    9.5176 C.2     1  UNL1        0.2262
     24 O           9.2588   42.9338    8.9859 O.2     1  UNL1       -0.2748
     25 N          11.1833   41.6256    8.7169 N.am    1  UNL1       -0.2813
     26 H          12.0161   41.3523    9.1653 H       1  UNL1        0.1549
     27 C          10.3514   42.3004   10.9973 C.3     1  UNL1        0.0854
     28 C           9.5897   41.1374   11.6011 C.3     1  UNL1        0.0096
     29 C           8.2756   41.6337   12.1657 C.3     1  UNL1        0.0005
@<TRIPOS>BOND
     1     1    10    1
     2     1     9   ar
     3    10    12   am
     4    15    16   ar
     5    17    18   ar
     6    19    20    1
     7    19    14   ar
     8    21    20    1
     9    21    22    1
    10     2     9   ar
    11     3     4   ar
    12     3     8   ar
    13     5     6   ar
    14     7     2   ar
    15     8    25    1
    16    27    23    1
    17    27    28    1
    18    28    29    1
    19    12    14    1
    20    25    23   am
    21    10    11    2
    22    14    15   ar
    23    16    17   ar
    24    18    19   ar
    25     2     3   ar
    26     4     5   ar
    27     6     7   ar
    28     8     1   ar
    29    23    24    2
    30    12    13    1
    31    25    26    1
@<TRIPOS>MOLECULE
MolPort-003-082-970 4341985 CSSS03437139713 MCULE-6851591878 PubChem-7200170 ZINC000004341985
 29 31 0 0 0
SMALL
GASTEIGER

@<TRIPOS>ATOM
      1 C          15.2790   40.9517    8.7877 C.ar    1  UNL1        0.2119
      2 C          16.6661   42.4380    8.1580 C.ar    1  UNL1        0.1468
      3 C          15.5629   42.6088    7.3574 C.ar    1  UNL1        0.0512
      4 C          15.5386   43.5560    6.3346 C.ar    1  UNL1        0.0044
      5 C          16.6758   44.3662    6.1687 C.ar    1  UNL1        0.0002
      6 C          17.8000   44.2058    7.0071 C.ar    1  UNL1        0.0031
      7 C          17.8055   43.2268    8.0168 C.ar    1  UNL1        0.0375
      8 C          14.6487   41.6580    7.7661 C.ar    1  UNL1        0.0929
      9 O          16.4823   41.4525    9.0052 O.2     1  UNL1       -0.4476
     10 C          14.7315   39.8140    9.5394 C.2     1  UNL1        0.2856
     11 O          14.9970   39.6787   10.7639 O.2     1  UNL1       -0.2664
     12 N          13.8946   38.8702    8.8572 N.am    1  UNL1       -0.2755
     13 H          13.7382   39.0388    7.9000 H       1  UNL1        0.1554
     14 C          13.2583   37.7075    9.4098 C.ar    1  UNL1        0.0851
     15 C          13.9494   36.4873    9.4848 C.ar    1  UNL1        0.0178
     16 C          13.3314   35.3420    9.9869 C.ar    1  UNL1        0.0015
     17 C          12.0077   35.3995   10.4176 C.ar    1  UNL1        0.0032
     18 C          11.3060   36.6036   10.3515 C.ar    1  UNL1        0.0382
     19 C          11.9131   37.7659    9.8608 C.ar    1  UNL1        0.1519
     20 O          11.1275   38.9305    9.8373 O.3     1  UNL1       -0.4742
     21 C          11.2584   40.0320   10.7285 C.3     1  UNL1        0.2056
     22 C          10.0147   40.8987   10.6712 C.3     1  UNL1        0.0512
     23 C          12.1320   41.9995    7.5209 C.2     1  UNL1        0.2262
     24 O          12.0201   42.7061    8.5572 O.2     1  UNL1       -0.2748
     25 N          13.3667   41.3516    7.2010 N.am    1  UNL1       -0.2813
     26 H          13.3333   40.6298    6.5323 H       1  UNL1        0.1549
     27 C          10.9373   41.7556    6.6691 C.3     1  UNL1        0.0854
     28 C          11.0315   40.3846    6.0297 C.3     1  UNL1        0.0096
     29 C           9.9385   39.4944    6.5816 C.3     1  UNL1        0.0005
@<TRIPOS>BOND
     1     1    10    1
     2     1     9   ar
     3    10    12   am
     4    15    16   ar
     5    17    18   ar
     6    19    20    1
     7    19    14   ar
     8    21    20    1
     9    21    22    1
    10     2     9   ar
    11     3     4   ar
    12     3     8   ar
    13     5     6   ar
    14     7     2   ar
    15     8    25    1
    16    27    23    1
    17    27    28    1
    18    28    29    1
    19    12    14    1
    20    25    23   am
    21    10    11    2
    22    14    15   ar
    23    16    17   ar
    24    18    19   ar
    25     2     3   ar
    26     4     5   ar
    27     6     7   ar
    28     8     1   ar
    29    23    24    2
    30    12    13    1
    31    25    26    1
@<TRIPOS>MOLECULE
MolPort-003-082-970 4341985 CSSS03437139713 MCULE-6851591878 PubChem-7200170 ZINC000004341985
 29 31 0 0 0
SMALL
GASTEIGER

@<TRIPOS>ATOM
      1 C          14.5975   41.1061    8.3802 C.ar    1  UNL1        0.2119
      2 C          15.8173   42.6379    7.5461 C.ar    1  UNL1        0.1468
      3 C          14.5992   42.7649    6.9239 C.ar    1  UNL1        0.0512
      4 C          14.3846   43.7053    5.9171 C.ar    1  UNL1        0.0044
      5 C          15.4530   44.5548    5.5794 C.ar    1  UNL1        0.0002
      6 C          16.6972   44.4390    6.2359 C.ar    1  UNL1        0.0031
      7 C          16.8925   43.4661    7.2325 C.ar    1  UNL1        0.0375
      8 C          13.7933   41.7841    7.4673 C.ar    1  UNL1        0.0929
      9 O          15.8011   41.6508    8.4111 O.2     1  UNL1       -0.4476
     10 C          14.2130   39.9535    9.2064 C.2     1  UNL1        0.2856
     11 O          14.4201   39.9694   10.4494 O.2     1  UNL1       -0.2664
     12 N          13.6006   38.8209    8.5749 N.am    1  UNL1       -0.2755
     13 H          13.4778   38.8793    7.5998 H       1  UNL1        0.1554
     14 C          13.1458   37.6113    9.2012 C.ar    1  UNL1        0.0851
     15 C          11.8612   37.5424    9.7644 C.ar    1  UNL1        0.0178
     16 C          11.4201   36.3853   10.4065 C.ar    1  UNL1        0.0015
     17 C          12.2619   35.2790   10.4994 C.ar    1  UNL1        0.0032
     18 C          13.5410   35.3293    9.9446 C.ar    1  UNL1        0.0382
     19 C          13.9971   36.4781    9.2868 C.ar    1  UNL1        0.1519
     20 O          15.2975   36.4317    8.7571 O.3     1  UNL1       -0.4742
     21 C          16.4850   36.7926    9.4529 C.3     1  UNL1        0.2056
     22 C          17.6683   36.0226    8.8975 C.3     1  UNL1        0.0512
     23 C          11.2637   41.8193    7.7996 C.2     1  UNL1        0.2262
     24 O          11.3179   42.2711    8.9738 O.2     1  UNL1       -0.2748
     25 N          12.4519   41.4290    7.1049 N.am    1  UNL1       -0.2813
     26 H          12.3384   40.8656    6.3056 H       1  UNL1        0.1549
     27 C           9.9386   41.5967    7.1618 C.3     1  UNL1        0.0854
     28 C          10.0945   41.5418    5.6552 C.3     1  UNL1        0.0096
     29 C           9.7255   40.1597    5.1599 C.3     1  UNL1        0.0005
@<TRIPOS>BOND
     1     1    10    1
     2     1     9   ar
     3    10    12   am
     4    15    16   ar
     5    17    18   ar
     6    19    20    1
     7    19    14   ar
     8    21    20    1
     9    21    22    1
    10     2     9   ar
    11     3     4   ar
    12     3     8   ar
    13     5     6   ar
    14     7     2   ar
    15     8    25    1
    16    27    23    1
    17    27    28    1
    18    28    29    1
    19    12    14    1
    20    25    23   am
    21    10    11    2
    22    14    15   ar
    23    16    17   ar
    24    18    19   ar
    25     2     3   ar
    26     4     5   ar
    27     6     7   ar
    28     8     1   ar
    29    23    24    2
    30    12    13    1
    31    25    26    1
@<TRIPOS>MOLECULE
MolPort-003-082-970 4341985 CSSS03437139713 MCULE-6851591878 PubChem-7200170 ZINC000004341985
 29 31 0 0 0
SMALL
GASTEIGER

@<TRIPOS>ATOM
      1 C          12.9372   42.0747    6.8131 C.ar    1  UNL1        0.2119
      2 C          14.4984   43.4715    6.4371 C.ar    1  UNL1        0.1468
      3 C          15.0717   42.4831    7.1998 C.ar    1  UNL1        0.0512
      4 C          16.3975   42.5604    7.6241 C.ar    1  UNL1        0.0044
      5 C          17.1504   43.6744    7.2124 C.ar    1  UNL1        0.0002
      6 C          16.5671   44.6778    6.4091 C.ar    1  UNL1        0.0031
      7 C          15.2204   44.5852    6.0143 C.ar    1  UNL1        0.0375
      8 C          14.0709   41.5623    7.4392 C.ar    1  UNL1        0.0929
      9 O          13.2311   43.2143    6.2122 O.2     1  UNL1       -0.4476
     10 C          11.5949   41.4772    6.7960 C.2     1  UNL1        0.2856
     11 O          11.4220   40.3246    6.3166 O.2     1  UNL1       -0.2664
     12 N          10.4956   42.2254    7.3331 N.am    1  UNL1       -0.2755
     13 H          10.7078   43.1208    7.6831 H       1  UNL1        0.1554
     14 C           9.1211   41.8188    7.4191 C.ar    1  UNL1        0.0851
     15 C           8.3163   41.7866    6.2687 C.ar    1  UNL1        0.0178
     16 C           6.9706   41.4274    6.3440 C.ar    1  UNL1        0.0015
     17 C           6.4074   41.0994    7.5754 C.ar    1  UNL1        0.0032
     18 C           7.1923   41.1249    8.7286 C.ar    1  UNL1        0.0382
     19 C           8.5474   41.4723    8.6710 C.ar    1  UNL1        0.1519
     20 O           9.2563   41.4652    9.8840 O.3     1  UNL1       -0.4742
     21 C           9.0936   42.4049   10.9400 C.3     1  UNL1        0.2056
     22 C           9.6727   43.7476   10.5360 C.3     1  UNL1        0.0512
     23 C          15.1167   40.0823    9.2354 C.2     1  UNL1        0.2262
     24 O          16.2148   40.6985    9.2535 O.2     1  UNL1       -0.2748
     25 N          14.1185   40.3846    8.2562 N.am    1  UNL1       -0.2813
     26 H          13.3989   39.7243    8.1320 H       1  UNL1        0.1549
     27 C          14.8928   38.9583   10.1834 C.3     1  UNL1        0.0854
     28 C          14.1547   39.4573   11.4095 C.3     1  UNL1        0.0096
     29 C          12.7078   39.7241   11.0534 C.3     1  UNL1        0.0005
@<TRIPOS>BOND
     1     1    10    1
     2     1     9   ar
     3    10    12   am
     4    15    16   ar
     5    17    18   ar
     6    19    20    1
     7    19    14   ar
     8    21    20    1
     9    21    22    1
    10     2     9   ar
    11     3     4   ar
    12     3     8   ar
    13     5     6   ar
    14     7     2   ar
    15     8    25    1
    16    27    23    1
    17    27    28    1
    18    28    29    1
    19    12    14    1
    20    25    23   am
    21    10    11    2
    22    14    15   ar
    23    16    17   ar
    24    18    19   ar
    25     2     3   ar
    26     4     5   ar
    27     6     7   ar
    28     8     1   ar
    29    23    24    2
    30    12    13    1
    31    25    26    1
@<TRIPOS>MOLECULE
MolPort-003-082-970 4341985 CSSS03437139713 MCULE-6851591878 PubChem-7200170 ZINC000004341985
 29 31 0 0 0
SMALL
GASTEIGER

@<TRIPOS>ATOM
      1 C          12.6378   41.6095    6.9281 C.ar    1  UNL1        0.2119
      2 C          14.1790   42.8588    6.1576 C.ar    1  UNL1        0.1468
      3 C          14.7132   42.2737    7.2799 C.ar    1  UNL1        0.0512
      4 C          15.9916   42.5933    7.7356 C.ar    1  UNL1        0.0044
      5 C          16.7410   43.5148    6.9830 C.ar    1  UNL1        0.0002
      6 C          16.2000   44.0977    5.8169 C.ar    1  UNL1        0.0031
      7 C          14.8987   43.7738    5.3927 C.ar    1  UNL1        0.0375
      8 C          13.7263   41.4487    7.7820 C.ar    1  UNL1        0.0929
      9 O          12.9469   42.4526    5.9587 O.2     1  UNL1       -0.4476
     10 C          11.3235   40.9631    7.0457 C.2     1  UNL1        0.2856
     11 O          11.2427   39.7103    7.1563 O.2     1  UNL1       -0.2664
     12 N          10.1451   41.7803    7.0340 N.am    1  UNL1       -0.2755
     13 H          10.2880   42.7495    6.9374 H       1  UNL1        0.1554
     14 C           8.7805   41.3474    7.1471 C.ar    1  UNL1        0.0851
     15 C           8.0397   41.6284    8.3066 C.ar    1  UNL1        0.0178
     16 C           6.7249   41.1834    8.4437 C.ar    1  UNL1        0.0015
     17 C           6.1319   40.4443    7.4222 C.ar    1  UNL1        0.0032
     18 C           6.8526   40.1568    6.2627 C.ar    1  UNL1        0.0382
     19 C           8.1696   40.6044    6.1026 C.ar    1  UNL1        0.1519
     20 O           8.8118   40.2689    4.8989 O.3     1  UNL1       -0.4742
     21 C           9.2882   38.9741    4.5511 C.3     1  UNL1        0.2056
     22 C           9.5035   38.8838    3.0521 C.3     1  UNL1        0.0512
     23 C          12.7288   40.6843   10.0027 C.2     1  UNL1        0.2262
     24 O          11.8740   41.6073   10.0575 O.2     1  UNL1       -0.2748
     25 N          13.7388   40.6750    8.9895 N.am    1  UNL1       -0.2813
     26 H          14.5125   40.0837    9.1342 H       1  UNL1        0.1549
     27 C          12.7492   39.6420   11.0635 C.3     1  UNL1        0.0854
     28 C          14.1754   39.2007   11.3252 C.3     1  UNL1        0.0096
     29 C          14.2056   37.7057   11.5613 C.3     1  UNL1        0.0005
@<TRIPOS>BOND
     1     1    10    1
     2     1     9   ar
     3    10    12   am
     4    15    16   ar
     5    17    18   ar
     6    19    20    1
     7    19    14   ar
     8    21    20    1
     9    21    22    1
    10     2     9   ar
    11     3     4   ar
    12     3     8   ar
    13     5     6   ar
    14     7     2   ar
    15     8    25    1
    16    27    23    1
    17    27    28    1
    18    28    29    1
    19    12    14    1
    20    25    23   am
    21    10    11    2
    22    14    15   ar
    23    16    17   ar
    24    18    19   ar
    25     2     3   ar
    26     4     5   ar
    27     6     7   ar
    28     8     1   ar
    29    23    24    2
    30    12    13    1
    31    25    26    1
@<TRIPOS>MOLECULE
MolPort-003-082-970 4341985 CSSS03437139713 MCULE-6851591878 PubChem-7200170 ZINC000004341985
 29 31 0 0 0
SMALL
GASTEIGER

@<TRIPOS>ATOM
      1 C          11.6330   40.7746    7.6969 C.ar    1  UNL1        0.2119
      2 C          10.2804   39.8987    6.3066 C.ar    1  UNL1        0.1468
      3 C           9.4987   40.3314    7.3500 C.ar    1  UNL1        0.0512
      4 C           8.1238   40.1016    7.3806 C.ar    1  UNL1        0.0044
      5 C           7.5485   39.4392    6.2817 C.ar    1  UNL1        0.0002
      6 C           8.3493   39.0159    5.1992 C.ar    1  UNL1        0.0031
      7 C           9.7375   39.2412    5.2051 C.ar    1  UNL1        0.0375
      8 C          10.3642   40.9150    8.2539 C.ar    1  UNL1        0.0929
      9 O          11.5457   40.1716    6.5244 O.2     1  UNL1       -0.4476
     10 C          12.9063   41.2126    8.2852 C.2     1  UNL1        0.2856
     11 O          13.0911   41.1260    9.5288 O.2     1  UNL1       -0.2664
     12 N          13.9260   41.7343    7.4223 N.am    1  UNL1       -0.2755
     13 H          13.7055   41.7774    6.4638 H       1  UNL1        0.1554
     14 C          15.2318   42.2011    7.7955 C.ar    1  UNL1        0.0851
     15 C          16.1271   41.3492    8.4624 C.ar    1  UNL1        0.0178
     16 C          17.3851   41.8006    8.8616 C.ar    1  UNL1        0.0015
     17 C          17.7648   43.1161    8.6035 C.ar    1  UNL1        0.0032
     18 C          16.8885   43.9761    7.9409 C.ar    1  UNL1        0.0382
     19 C          15.6262   43.5377    7.5230 C.ar    1  UNL1        0.1519
     20 O          14.8165   44.4751    6.8600 O.3     1  UNL1       -0.4742
     21 C          15.0140   44.9417    5.5304 C.3     1  UNL1        0.2056
     22 C          15.0299   43.7717    4.5650 C.3     1  UNL1        0.0512
     23 C           9.1940   42.5425    9.8327 C.2     1  UNL1        0.2262
     24 O           8.8264   43.3286    8.9202 O.2     1  UNL1       -0.2748
     25 N          10.0721   41.4483    9.5527 N.am    1  UNL1       -0.2813
     26 H          10.5161   41.0227   10.3215 H       1  UNL1        0.1549
     27 C           8.7885   42.8121   11.2381 C.3     1  UNL1        0.0854
     28 C           8.0541   41.6121   11.8018 C.3     1  UNL1        0.0096
     29 C           8.7911   41.0958   13.0192 C.3     1  UNL1        0.0005
@<TRIPOS>BOND
     1     1    10    1
     2     1     9   ar
     3    10    12   am
     4    15    16   ar
     5    17    18   ar
     6    19    20    1
     7    19    14   ar
     8    21    20    1
     9    21    22    1
    10     2     9   ar
    11     3     4   ar
    12     3     8   ar
    13     5     6   ar
    14     7     2   ar
    15     8    25    1
    16    27    23    1
    17    27    28    1
    18    28    29    1
    19    12    14    1
    20    25    23   am
    21    10    11    2
    22    14    15   ar
    23    16    17   ar
    24    18    19   ar
    25     2     3   ar
    26     4     5   ar
    27     6     7   ar
    28     8     1   ar
    29    23    24    2
    30    12    13    1
    31    25    26    1
@<TRIPOS>MOLECULE
MolPort-003-082-970 4341985 CSSS03437139713 MCULE-6851591878 PubChem-7200170 ZINC000004341985
 29 31 0 0 0
SMALL
GASTEIGER

@<TRIPOS>ATOM
      1 C          12.2125   41.1859    9.8188 C.ar    1  UNL1        0.2119
      2 C          13.3219   39.7106   10.8784 C.ar    1  UNL1        0.1468
      3 C          14.1731   40.1754    9.9054 C.ar    1  UNL1        0.0512
      4 C          15.4465   39.6365    9.7268 C.ar    1  UNL1        0.0044
      5 C          15.8528   38.6171   10.6059 C.ar    1  UNL1        0.0002
      6 C          14.9861   38.1565   11.6203 C.ar    1  UNL1        0.0031
      7 C          13.6980   38.7029   11.7634 C.ar    1  UNL1        0.0375
      8 C          13.4688   41.1445    9.2188 C.ar    1  UNL1        0.0929
      9 O          12.1620   40.3220   10.8175 O.2     1  UNL1       -0.4476
     10 C          11.0813   42.0416    9.4353 C.2     1  UNL1        0.2856
     11 O          11.1257   43.2825    9.6506 O.2     1  UNL1       -0.2664
     12 N           9.9364   41.4410    8.8146 N.am    1  UNL1       -0.2755
     13 H           9.9723   40.4656    8.6858 H       1  UNL1        0.1554
     14 C           8.7438   42.0987    8.3593 C.ar    1  UNL1        0.0851
     15 C           8.4567   42.1796    6.9870 C.ar    1  UNL1        0.0178
     16 C           7.3199   42.8459    6.5296 C.ar    1  UNL1        0.0015
     17 C           6.4540   43.4473    7.4406 C.ar    1  UNL1        0.0032
     18 C           6.7229   43.3759    8.8077 C.ar    1  UNL1        0.0382
     19 C           7.8531   42.7021    9.2861 C.ar    1  UNL1        0.1519
     20 O           8.0367   42.6805   10.6789 O.3     1  UNL1       -0.4742
     21 C           7.5999   41.6460   11.5526 C.3     1  UNL1        0.2056
     22 C           8.7365   41.2176   12.4615 C.3     1  UNL1        0.0512
     23 C          13.1833   41.9007    6.7986 C.2     1  UNL1        0.2262
     24 O          12.3217   41.0269    6.5161 O.2     1  UNL1       -0.2748
     25 N          13.8676   41.8813    8.0548 N.am    1  UNL1       -0.2813
     26 H          14.6865   42.4229    8.1268 H       1  UNL1        0.1549
     27 C          13.5656   42.9092    5.7745 C.3     1  UNL1        0.0854
     28 C          14.9498   43.4491    6.0743 C.3     1  UNL1        0.0096
     29 C          14.9936   44.9288    5.7576 C.3     1  UNL1        0.0005
@<TRIPOS>BOND
     1     1    10    1
     2     1     9   ar
     3    10    12   am
     4    15    16   ar
     5    17    18   ar
     6    19    20    1
     7    19    14   ar
     8    21    20    1
     9    21    22    1
    10     2     9   ar
    11     3     4   ar
    12     3     8   ar
    13     5     6   ar
    14     7     2   ar
    15     8    25    1
    16    27    23    1
    17    27    28    1
    18    28    29    1
    19    12    14    1
    20    25    23   am
    21    10    11    2
    22    14    15   ar
    23    16    17   ar
    24    18    19   ar
    25     2     3   ar
    26     4     5   ar
    27     6     7   ar
    28     8     1   ar
    29    23    24    2
    30    12    13    1
    31    25    26    1
@<TRIPOS>MOLECULE
MolPort-003-082-970 4341985 CSSS03437139713 MCULE-6851591878 PubChem-7200170 ZINC000004341985
 29 31 0 0 0
SMALL
GASTEIGER

@<TRIPOS>ATOM
      1 C          12.8554   42.2596    6.9078 C.ar    1  UNL1        0.2119
      2 C          14.7875   43.0425    6.4791 C.ar    1  UNL1        0.1468
      3 C          14.9573   42.2409    7.5817 C.ar    1  UNL1        0.0512
      4 C          16.1905   42.1261    8.2220 C.ar    1  UNL1        0.0044
      5 C          17.2766   42.8340    7.6776 C.ar    1  UNL1        0.0002
      6 C          17.1063   43.6389    6.5306 C.ar    1  UNL1        0.0031
      7 C          15.8455   43.7540    5.9181 C.ar    1  UNL1        0.0375
      8 C          13.7116   41.7151    7.8619 C.ar    1  UNL1        0.0929
      9 O          13.5348   43.0416    6.0874 O.2     1  UNL1       -0.4476
     10 C          11.4087   42.0311    6.7902 C.2     1  UNL1        0.2856
     11 O          10.9104   41.6898    5.6842 O.2     1  UNL1       -0.2664
     12 N          10.5830   42.2011    7.9504 N.am    1  UNL1       -0.2755
     13 H          11.0434   42.4756    8.7762 H       1  UNL1        0.1554
     14 C           9.1621   42.0170    8.0461 C.ar    1  UNL1        0.0851
     15 C           8.3109   43.1236    8.1975 C.ar    1  UNL1        0.0178
     16 C           6.9321   42.9562    8.3269 C.ar    1  UNL1        0.0015
     17 C           6.3838   41.6755    8.3119 C.ar    1  UNL1        0.0032
     18 C           7.2143   40.5646    8.1613 C.ar    1  UNL1        0.0382
     19 C           8.5992   40.7137    8.0191 C.ar    1  UNL1        0.1519
     20 O           9.3518   39.5368    7.8687 O.3     1  UNL1       -0.4742
     21 C           8.9945   38.4278    7.0520 C.3     1  UNL1        0.2056
     22 C           9.3481   38.7120    5.6043 C.3     1  UNL1        0.0512
     23 C          12.9974   39.4926    8.8922 C.2     1  UNL1        0.2262
     24 O          12.7415   38.9424    7.7888 O.2     1  UNL1       -0.2748
     25 N          13.3207   40.8844    8.9637 N.am    1  UNL1       -0.2813
     26 H          13.2703   41.3106    9.8497 H       1  UNL1        0.1549
     27 C          12.8666   38.7079   10.1489 C.3     1  UNL1        0.0854
     28 C          13.4669   39.4826   11.3051 C.3     1  UNL1        0.0096
     29 C          14.5759   38.6681   11.9362 C.3     1  UNL1        0.0005
@<TRIPOS>BOND
     1     1    10    1
     2     1     9   ar
     3    10    12   am
     4    15    16   ar
     5    17    18   ar
     6    19    20    1
     7    19    14   ar
     8    21    20    1
     9    21    22    1
    10     2     9   ar
    11     3     4   ar
    12     3     8   ar
    13     5     6   ar
    14     7     2   ar
    15     8    25    1
    16    27    23    1
    17    27    28    1
    18    28    29    1
    19    12    14    1
    20    25    23   am
    21    10    11    2
    22    14    15   ar
    23    16    17   ar
    24    18    19   ar
    25     2     3   ar
    26     4     5   ar
    27     6     7   ar
    28     8     1   ar
    29    23    24    2
    30    12    13    1
    31    25    26    1
@<TRIPOS>MOLECULE
MolPort-003-082-970 4341985 CSSS03437139713 MCULE-6851591878 PubChem-7200170 ZINC000004341985
 29 31 0 0 0
SMALL
GASTEIGER

@<TRIPOS>ATOM
      1 C          11.2207   41.3907    7.4449 C.ar    1  UNL1        0.2119
      2 C           9.8915   40.4218    6.0943 C.ar    1  UNL1        0.1468
      3 C           9.1659   40.6095    7.2456 C.ar    1  UNL1        0.0512
      4 C           7.8605   40.1373    7.3748 C.ar    1  UNL1        0.0044
      5 C           7.2886   39.4885    6.2660 C.ar    1  UNL1        0.0002
      6 C           8.0270   39.3170    5.0754 C.ar    1  UNL1        0.0031
      7 C           9.3503   39.7838    4.9806 C.ar    1  UNL1        0.0375
      8 C          10.0142   41.2509    8.1265 C.ar    1  UNL1        0.0929
      9 O          11.1092   40.8937    6.2256 O.2     1  UNL1       -0.4476
     10 C          12.4587   41.9912    7.9605 C.2     1  UNL1        0.2856
     11 O          12.4304   42.7058    8.9982 O.2     1  UNL1       -0.2664
     12 N          13.6894   41.7479    7.2656 N.am    1  UNL1       -0.2755
     13 H          13.6308   41.1859    6.4595 H       1  UNL1        0.1554
     14 C          14.9975   42.2298    7.6104 C.ar    1  UNL1        0.0851
     15 C          15.4479   43.4695    7.1284 C.ar    1  UNL1        0.0178
     16 C          16.7291   43.9332    7.4270 C.ar    1  UNL1        0.0015
     17 C          17.5828   43.1589    8.2099 C.ar    1  UNL1        0.0032
     18 C          17.1517   41.9252    8.6983 C.ar    1  UNL1        0.0382
     19 C          15.8654   41.4483    8.4181 C.ar    1  UNL1        0.1519
     20 O          15.5210   40.1976    8.9576 O.3     1  UNL1       -0.4742
     21 C          14.7381   39.9911   10.1276 C.3     1  UNL1        0.2056
     22 C          15.4641   39.0625   11.0827 C.3     1  UNL1        0.0512
     23 C           8.9311   42.6550    9.9611 C.2     1  UNL1        0.2262
     24 O           8.5439   43.5656    9.1823 O.2     1  UNL1       -0.2748
     25 N           9.7792   41.6003    9.4974 N.am    1  UNL1       -0.2813
     26 H          10.2437   41.0659   10.1814 H       1  UNL1        0.1549
     27 C           8.5822   42.7299   11.4050 C.3     1  UNL1        0.0854
     28 C           7.8212   41.4854   11.8166 C.3     1  UNL1        0.0096
     29 C           6.4641   41.4791   11.1460 C.3     1  UNL1        0.0005
@<TRIPOS>BOND
     1     1    10    1
     2     1     9   ar
     3    10    12   am
     4    15    16   ar
     5    17    18   ar
     6    19    20    1
     7    19    14   ar
     8    21    20    1
     9    21    22    1
    10     2     9   ar
    11     3     4   ar
    12     3     8   ar
    13     5     6   ar
    14     7     2   ar
    15     8    25    1
    16    27    23    1
    17    27    28    1
    18    28    29    1
    19    12    14    1
    20    25    23   am
    21    10    11    2
    22    14    15   ar
    23    16    17   ar
    24    18    19   ar
    25     2     3   ar
    26     4     5   ar
    27     6     7   ar
    28     8     1   ar
    29    23    24    2
    30    12    13    1
    31    25    26    1
