@<TRIPOS>MOLECULE
MolPort-008-295-419 17030887 CSSS00160395729 ChemDiv-Y200-4684 MCULE-7472541371 PubChem-17349438 ZINC000017030887 ZINC17030887
 23 24 0 0 0
SMALL
GASTEIGER

@<TRIPOS>ATOM
      1 C           4.7636   42.1801    9.9101 C.ar    1  UNL1        0.1198
      2 C           4.8035   41.4818   11.1121 C.ar    1  UNL1        0.1318
      3 C           3.6707   41.2744   12.0572 C.3     1  UNL1        0.0728
      4 C           6.7729   41.3609   10.3121 C.ar    1  UNL1        0.2112
      5 C           6.0481   42.0953    9.3984 C.ar    1  UNL1        0.1265
      6 O           6.0115   41.0073   11.3222 O.2     1  UNL1       -0.4431
      7 C           9.2351   41.9058   10.5310 C.2     1  UNL1        0.2727
      8 O           9.0024   43.0588   10.9841 O.2     1  UNL1       -0.2680
      9 N           8.1586   41.0280   10.1838 N.am    1  UNL1       -0.2498
     10 H           8.3868   40.1366    9.8337 H       1  UNL1        0.1581
     11 C          10.6223   41.4606   10.3585 C.ar    1  UNL1        0.1761
     12 C          12.5120   40.4655   10.5507 C.ar    1  UNL1        0.1550
     13 C          13.6345   39.5897   10.9777 C.3     1  UNL1        0.0754
     14 C          11.2550   40.4922   11.1210 C.ar    1  UNL1        0.0627
     15 O          12.5836   41.3289    9.5679 O.2     1  UNL1       -0.3576
     16 N          11.4546   41.9527    9.4209 N.ar    1  UNL1       -0.0727
     17 C           3.6038   42.8666    9.3062 C.2     1  UNL1        0.3447
     18 O           2.5679   42.2120    9.0072 O.2     1  UNL1       -0.2448
     19 O           3.6570   44.2415    9.0678 O.3     1  UNL1       -0.4454
     20 C           4.6001   45.5757    7.3147 C.3     1  UNL1        0.0513
     21 C           3.3924   44.7938    7.7870 C.3     1  UNL1        0.2089
     22 C           6.5463   42.6546    8.1681 C.1     1  UNL1        0.1052
     23 N           6.9468   43.1044    7.1800 N.1     1  UNL1       -0.1907
@<TRIPOS>BOND
     1    20    21    1
     2    21    19    1
     3    17    19    1
     4    17     1    1
     5     2     6   ar
     6     3     2    1
     7     4     6   ar
     8     4     9    1
     9     7    11    1
    10    12    15   ar
    11    13    12    1
    12    14    11   ar
    13     5    22    1
    14     5     1   ar
    15     9     7   am
    16    16    15   ar
    17    17    18    2
    18     1     2   ar
    19     4     5   ar
    20     7     8    2
    21    11    16   ar
    22    12    14   ar
    23    22    23    3
    24     9    10    1
@<TRIPOS>MOLECULE
MolPort-008-295-419 17030887 CSSS00160395729 ChemDiv-Y200-4684 MCULE-7472541371 PubChem-17349438 ZINC000017030887 ZINC17030887
 23 24 0 0 0
SMALL
GASTEIGER

@<TRIPOS>ATOM
      1 C           6.7445   42.7113    8.7425 C.ar    1  UNL1        0.1198
      2 C           7.2969   42.7089    7.4663 C.ar    1  UNL1        0.1318
      3 C           6.6824   43.2711    6.2310 C.3     1  UNL1        0.0728
      4 C           8.7275   41.7433    8.7130 C.ar    1  UNL1        0.2112
      5 C           7.6820   42.0817    9.5449 C.ar    1  UNL1        0.1265
      6 O           8.4755   42.1265    7.4823 O.2     1  UNL1       -0.4431
      7 C          11.1409   41.7313    9.4763 C.2     1  UNL1        0.2727
      8 O          11.2241   42.9885    9.4355 O.2     1  UNL1       -0.2680
      9 N           9.9204   41.0698    9.1260 N.am    1  UNL1       -0.2498
     10 H           9.9007   40.0866    9.1724 H       1  UNL1        0.1581
     11 C          12.3062   40.9404    9.8868 C.ar    1  UNL1        0.1761
     12 C          13.6536   39.6271   10.9154 C.ar    1  UNL1        0.1550
     13 C          14.2782   38.6745   11.8703 C.3     1  UNL1        0.0754
     14 C          12.3650   40.1156   10.9985 C.ar    1  UNL1        0.0627
     15 O          14.2611   40.1237    9.8663 O.2     1  UNL1       -0.3576
     16 N          13.4742   40.9260    9.2163 N.ar    1  UNL1       -0.0727
     17 C           5.4392   43.2640    9.1571 C.2     1  UNL1        0.3447
     18 O           5.1031   44.4259    8.7994 O.2     1  UNL1       -0.2448
     19 O           4.5786   42.4970    9.9453 O.3     1  UNL1       -0.4454
     20 C           3.9029   40.3203   10.6858 C.3     1  UNL1        0.0513
     21 C           4.0622   41.2511    9.5020 C.3     1  UNL1        0.2089
     22 C           7.6002   41.8213   10.9592 C.1     1  UNL1        0.1052
     23 N           7.5344   41.6114   12.0952 N.1     1  UNL1       -0.1907
@<TRIPOS>BOND
     1    20    21    1
     2    21    19    1
     3    17    19    1
     4    17     1    1
     5     2     6   ar
     6     3     2    1
     7     4     6   ar
     8     4     9    1
     9     7    11    1
    10    12    15   ar
    11    13    12    1
    12    14    11   ar
    13     5    22    1
    14     5     1   ar
    15     9     7   am
    16    16    15   ar
    17    17    18    2
    18     1     2   ar
    19     4     5   ar
    20     7     8    2
    21    11    16   ar
    22    12    14   ar
    23    22    23    3
    24     9    10    1
@<TRIPOS>MOLECULE
MolPort-008-295-419 17030887 CSSS00160395729 ChemDiv-Y200-4684 MCULE-7472541371 PubChem-17349438 ZINC000017030887 ZINC17030887
 23 24 0 0 0
SMALL
GASTEIGER

@<TRIPOS>ATOM
      1 C          15.4394   42.1219    7.9574 C.ar    1  UNL1        0.1198
      2 C          15.2581   40.9536    8.6897 C.ar    1  UNL1        0.1318
      3 C          16.2178   40.3546    9.6592 C.3     1  UNL1        0.0728
      4 C          13.4891   41.1831    7.5273 C.ar    1  UNL1        0.2112
      5 C          14.2844   42.2618    7.2056 C.ar    1  UNL1        0.1265
      6 O          14.0893   40.4197    8.4116 O.2     1  UNL1       -0.4431
      7 C          11.3655   39.8173    7.3474 C.2     1  UNL1        0.2727
      8 O          11.7568   38.9826    8.2072 O.2     1  UNL1       -0.2680
      9 N          12.1928   40.9262    6.9787 N.am    1  UNL1       -0.2498
     10 H          11.8469   41.5533    6.3032 H       1  UNL1        0.1581
     11 C          10.0502   39.6496    6.7200 C.ar    1  UNL1        0.1761
     12 C           7.9484   39.6518    6.2947 C.ar    1  UNL1        0.1550
     13 C           6.4731   39.8219    6.3565 C.3     1  UNL1        0.0754
     14 C           8.8402   40.0271    7.2795 C.ar    1  UNL1        0.0627
     15 O           8.5868   39.1174    5.2831 O.2     1  UNL1       -0.3576
     16 N           9.8659   39.0988    5.5048 N.ar    1  UNL1       -0.0727
     17 C          16.6104   43.0217    7.9739 C.2     1  UNL1        0.3447
     18 O          16.6082   44.0476    8.7078 O.2     1  UNL1       -0.2448
     19 O          17.7194   42.7337    7.1756 O.3     1  UNL1       -0.4454
     20 C          17.1165   44.6386    5.8524 C.3     1  UNL1        0.0513
     21 C          17.9235   43.3589    5.9175 C.3     1  UNL1        0.2089
     22 C          13.9613   43.3097    6.2716 C.1     1  UNL1        0.1052
     23 N          13.7021   44.1519    5.5216 N.1     1  UNL1       -0.1907
@<TRIPOS>BOND
     1    20    21    1
     2    21    19    1
     3    17    19    1
     4    17     1    1
     5     2     6   ar
     6     3     2    1
     7     4     6   ar
     8     4     9    1
     9     7    11    1
    10    12    15   ar
    11    13    12    1
    12    14    11   ar
    13     5    22    1
    14     5     1   ar
    15     9     7   am
    16    16    15   ar
    17    17    18    2
    18     1     2   ar
    19     4     5   ar
    20     7     8    2
    21    11    16   ar
    22    12    14   ar
    23    22    23    3
    24     9    10    1
@<TRIPOS>MOLECULE
MolPort-008-295-419 17030887 CSSS00160395729 ChemDiv-Y200-4684 MCULE-7472541371 PubChem-17349438 ZINC000017030887 ZINC17030887
 23 24 0 0 0
SMALL
GASTEIGER

@<TRIPOS>ATOM
      1 C          14.0705   41.2616    8.5404 C.ar    1  UNL1        0.1198
      2 C          13.4068   42.0028    7.5687 C.ar    1  UNL1        0.1318
      3 C          14.0192   42.6605    6.3804 C.3     1  UNL1        0.0728
      4 C          11.9040   41.3810    8.9428 C.ar    1  UNL1        0.2112
      5 C          13.0850   40.8623    9.4283 C.ar    1  UNL1        0.1265
      6 O          12.1207   42.0549    7.8365 O.2     1  UNL1       -0.4431
      7 C           9.9682   42.2087   10.3480 C.2     1  UNL1        0.2727
      8 O          10.5158   43.3252   10.5547 O.2     1  UNL1       -0.2680
      9 N          10.6209   41.2126    9.5534 N.am    1  UNL1       -0.2498
     10 H          10.1563   40.3553    9.4181 H       1  UNL1        0.1581
     11 C           8.6499   41.9292   10.9277 C.ar    1  UNL1        0.1761
     12 C           6.5597   41.5501   11.2204 C.ar    1  UNL1        0.1550
     13 C           5.1026   41.3263   11.0304 C.3     1  UNL1        0.0754
     14 C           7.4691   41.8053   10.2136 C.ar    1  UNL1        0.0627
     15 O           7.1626   41.5317   12.3834 O.2     1  UNL1       -0.3576
     16 N           8.4335   41.7580   12.2460 N.ar    1  UNL1       -0.0727
     17 C          15.5150   40.9632    8.6141 C.2     1  UNL1        0.3447
     18 O          15.9164   39.9288    9.2141 O.2     1  UNL1       -0.2448
     19 O          16.4346   41.8287    8.0179 O.3     1  UNL1       -0.4454
     20 C          17.5068   43.9374    8.4010 C.3     1  UNL1        0.0513
     21 C          17.4592   42.4680    8.7640 C.3     1  UNL1        0.2089
     22 C          13.2407   40.0702   10.6212 C.1     1  UNL1        0.1052
     23 N          13.3658   39.4333   11.5792 N.1     1  UNL1       -0.1907
@<TRIPOS>BOND
     1    20    21    1
     2    21    19    1
     3    17    19    1
     4    17     1    1
     5     2     6   ar
     6     3     2    1
     7     4     6   ar
     8     4     9    1
     9     7    11    1
    10    12    15   ar
    11    13    12    1
    12    14    11   ar
    13     5    22    1
    14     5     1   ar
    15     9     7   am
    16    16    15   ar
    17    17    18    2
    18     1     2   ar
    19     4     5   ar
    20     7     8    2
    21    11    16   ar
    22    12    14   ar
    23    22    23    3
    24     9    10    1
@<TRIPOS>MOLECULE
MolPort-008-295-419 17030887 CSSS00160395729 ChemDiv-Y200-4684 MCULE-7472541371 PubChem-17349438 ZINC000017030887 ZINC17030887
 23 24 0 0 0
SMALL
GASTEIGER

@<TRIPOS>ATOM
      1 C           8.6415   41.7474    8.8679 C.ar    1  UNL1        0.1198
      2 C           9.0499   41.9124   10.1870 C.ar    1  UNL1        0.1318
      3 C           8.1978   41.7891   11.4029 C.3     1  UNL1        0.0728
      4 C          10.7893   42.2364    9.0026 C.ar    1  UNL1        0.2112
      5 C           9.7792   41.9600    8.1066 C.ar    1  UNL1        0.1265
      6 O          10.3314   42.2022   10.2332 O.2     1  UNL1       -0.4431
      7 C          13.0784   41.5441    8.1734 C.2     1  UNL1        0.2727
      8 O          12.7332   40.3390    8.0400 O.2     1  UNL1       -0.2680
      9 N          12.1460   42.5212    8.6483 N.am    1  UNL1       -0.2498
     10 H          12.4589   43.4505    8.7369 H       1  UNL1        0.1581
     11 C          14.4486   41.9472    7.8384 C.ar    1  UNL1        0.1761
     12 C          16.5751   42.2225    7.8189 C.ar    1  UNL1        0.1550
     13 C          18.0286   42.1857    8.1274 C.3     1  UNL1        0.0754
     14 C          15.5854   41.5920    8.5461 C.ar    1  UNL1        0.0627
     15 O          16.0531   42.8677    6.8051 O.2     1  UNL1       -0.3576
     16 N          14.7630   42.7238    6.7838 N.ar    1  UNL1       -0.0727
     17 C           7.2873   41.4177    8.3796 C.2     1  UNL1        0.3447
     18 O           6.4180   40.9750    9.1793 O.2     1  UNL1       -0.2448
     19 O           6.9720   41.5975    7.0311 O.3     1  UNL1       -0.4454
     20 C           6.0575   39.5550    6.1737 C.3     1  UNL1        0.0513
     21 C           7.1730   40.5737    6.0684 C.3     1  UNL1        0.2089
     22 C           9.9030   41.9102    6.6724 C.1     1  UNL1        0.1052
     23 N          10.0023   41.8708    5.5202 N.1     1  UNL1       -0.1907
@<TRIPOS>BOND
     1    20    21    1
     2    21    19    1
     3    17    19    1
     4    17     1    1
     5     2     6   ar
     6     3     2    1
     7     4     6   ar
     8     4     9    1
     9     7    11    1
    10    12    15   ar
    11    13    12    1
    12    14    11   ar
    13     5    22    1
    14     5     1   ar
    15     9     7   am
    16    16    15   ar
    17    17    18    2
    18     1     2   ar
    19     4     5   ar
    20     7     8    2
    21    11    16   ar
    22    12    14   ar
    23    22    23    3
    24     9    10    1
@<TRIPOS>MOLECULE
MolPort-008-295-419 17030887 CSSS00160395729 ChemDiv-Y200-4684 MCULE-7472541371 PubChem-17349438 ZINC000017030887 ZINC17030887
 23 24 0 0 0
SMALL
GASTEIGER

@<TRIPOS>ATOM
      1 C          13.9602   40.6911    9.2053 C.ar    1  UNL1        0.1198
      2 C          13.1940   40.2242   10.2679 C.ar    1  UNL1        0.1318
      3 C          13.6727   39.4030   11.4152 C.3     1  UNL1        0.0728
      4 C          11.8506   41.3134    9.0262 C.ar    1  UNL1        0.2112
      5 C          13.0778   41.3975    8.4045 C.ar    1  UNL1        0.1265
      6 O          11.9449   40.6111   10.1320 O.2     1  UNL1       -0.4431
      7 C           9.8290   41.3449    7.5032 C.2     1  UNL1        0.2727
      8 O          10.1539   40.2607    6.9481 O.2     1  UNL1       -0.2680
      9 N          10.6418   41.9050    8.5402 N.am    1  UNL1       -0.2498
     10 H          10.3497   42.7533    8.9457 H       1  UNL1        0.1581
     11 C           8.6065   42.0376    7.0817 C.ar    1  UNL1        0.1761
     12 C           6.8589   43.2774    6.9964 C.ar    1  UNL1        0.1550
     13 C           5.7606   44.2306    7.3039 C.3     1  UNL1        0.0754
     14 C           7.8870   42.9364    7.8524 C.ar    1  UNL1        0.0627
     15 O           6.9831   42.6380    5.8596 O.2     1  UNL1       -0.3576
     16 N           8.0334   41.8750    5.8737 N.ar    1  UNL1       -0.0727
     17 C          15.4038   40.4803    8.9758 C.2     1  UNL1        0.3447
     18 O          15.9531   39.4086    9.3512 O.2     1  UNL1       -0.2448
     19 O          16.1584   41.4699    8.3422 O.3     1  UNL1       -0.4454
     20 C          17.4892   43.4217    8.7455 C.3     1  UNL1        0.0513
     21 C          17.4032   41.9142    8.8604 C.3     1  UNL1        0.2089
     22 C          13.3622   42.0839    7.1706 C.1     1  UNL1        0.1052
     23 N          13.5905   42.6348    6.1789 N.1     1  UNL1       -0.1907
@<TRIPOS>BOND
     1    20    21    1
     2    21    19    1
     3    17    19    1
     4    17     1    1
     5     2     6   ar
     6     3     2    1
     7     4     6   ar
     8     4     9    1
     9     7    11    1
    10    12    15   ar
    11    13    12    1
    12    14    11   ar
    13     5    22    1
    14     5     1   ar
    15     9     7   am
    16    16    15   ar
    17    17    18    2
    18     1     2   ar
    19     4     5   ar
    20     7     8    2
    21    11    16   ar
    22    12    14   ar
    23    22    23    3
    24     9    10    1
@<TRIPOS>MOLECULE
MolPort-008-295-419 17030887 CSSS00160395729 ChemDiv-Y200-4684 MCULE-7472541371 PubChem-17349438 ZINC000017030887 ZINC17030887
 23 24 0 0 0
SMALL
GASTEIGER

@<TRIPOS>ATOM
      1 C          16.1427   42.6540    7.6965 C.ar    1  UNL1        0.1198
      2 C          17.2961   42.3174    8.3968 C.ar    1  UNL1        0.1318
      3 C          18.5499   43.1177    8.4810 C.3     1  UNL1        0.0728
      4 C          15.9337   40.7156    8.7303 C.ar    1  UNL1        0.2112
      5 C          15.2639   41.6068    7.9199 C.ar    1  UNL1        0.1265
      6 O          17.1398   41.1599    9.0003 O.2     1  UNL1       -0.4431
      7 C          14.3607   39.3789   10.1953 C.2     1  UNL1        0.2727
      8 O          13.8537   40.4156   10.7025 O.2     1  UNL1       -0.2680
      9 N          15.3964   39.4800    9.2120 N.am    1  UNL1       -0.2498
     10 H          15.7631   38.6442    8.8429 H       1  UNL1        0.1581
     11 C          13.8837   38.0574   10.6175 C.ar    1  UNL1        0.1761
     12 C          12.6995   36.3067   10.9793 C.ar    1  UNL1        0.1550
     13 C          11.6047   35.3031   11.0383 C.3     1  UNL1        0.0754
     14 C          12.6137   37.5523   10.3903 C.ar    1  UNL1        0.0627
     15 O          13.8935   36.1254   11.4873 O.2     1  UNL1       -0.3576
     16 N          14.6413   37.1676   11.2871 N.ar    1  UNL1       -0.0727
     17 C          15.9029   43.8656    6.8869 C.2     1  UNL1        0.3447
     18 O          15.5639   44.9433    7.4480 O.2     1  UNL1       -0.2448
     19 O          16.0526   43.8151    5.4994 O.3     1  UNL1       -0.4454
     20 C          13.6917   44.2105    5.3882 C.3     1  UNL1        0.0513
     21 C          14.9369   43.8169    4.6217 C.3     1  UNL1        0.2089
     22 C          13.9226   41.4580    7.4165 C.1     1  UNL1        0.1052
     23 N          12.8450   41.3392    7.0119 N.1     1  UNL1       -0.1907
@<TRIPOS>BOND
     1    20    21    1
     2    21    19    1
     3    17    19    1
     4    17     1    1
     5     2     6   ar
     6     3     2    1
     7     4     6   ar
     8     4     9    1
     9     7    11    1
    10    12    15   ar
    11    13    12    1
    12    14    11   ar
    13     5    22    1
    14     5     1   ar
    15     9     7   am
    16    16    15   ar
    17    17    18    2
    18     1     2   ar
    19     4     5   ar
    20     7     8    2
    21    11    16   ar
    22    12    14   ar
    23    22    23    3
    24     9    10    1
@<TRIPOS>MOLECULE
MolPort-008-295-419 17030887 CSSS00160395729 ChemDiv-Y200-4684 MCULE-7472541371 PubChem-17349438 ZINC000017030887 ZINC17030887
 23 24 0 0 0
SMALL
GASTEIGER

@<TRIPOS>ATOM
      1 C           6.7610   42.0443    9.2072 C.ar    1  UNL1        0.1198
      2 C           7.5464   41.7445   10.3151 C.ar    1  UNL1        0.1318
      3 C           7.0665   41.4975   11.7038 C.3     1  UNL1        0.0728
      4 C           8.9049   41.9632    8.6904 C.ar    1  UNL1        0.2112
      5 C           7.6535   42.1843    8.1570 C.ar    1  UNL1        0.1265
      6 O           8.8156   41.7036    9.9748 O.2     1  UNL1       -0.4431
      7 C          11.3400   42.6057    8.4360 C.2     1  UNL1        0.2727
      8 O          11.3818   43.1398    9.5771 O.2     1  UNL1       -0.2680
      9 N          10.1310   42.0090    7.9542 N.am    1  UNL1       -0.2498
     10 H          10.1442   41.6034    7.0572 H       1  UNL1        0.1581
     11 C          12.5422   42.5964    7.5952 C.ar    1  UNL1        0.1761
     12 C          14.5330   42.8314    6.8339 C.ar    1  UNL1        0.1550
     13 C          15.9741   43.1526    6.6627 C.3     1  UNL1        0.0754
     14 C          13.7858   43.0803    7.9677 C.ar    1  UNL1        0.0627
     15 O          13.7899   42.2657    5.9150 O.2     1  UNL1       -0.3576
     16 N          12.5739   42.1065    6.3410 N.ar    1  UNL1       -0.0727
     17 C           5.2918   42.1851    9.1572 C.2     1  UNL1        0.3447
     18 O           4.7688   43.3315    9.0989 O.2     1  UNL1       -0.2448
     19 O           4.4836   41.0463    9.1741 O.3     1  UNL1       -0.4454
     20 C           3.8586   40.0877   11.2797 C.3     1  UNL1        0.0513
     21 C           3.4054   40.9025   10.0864 C.3     1  UNL1        0.2089
     22 C           7.3567   42.4989    6.7831 C.1     1  UNL1        0.1052
     23 N           7.1182   42.7509    5.6792 N.1     1  UNL1       -0.1907
@<TRIPOS>BOND
     1    20    21    1
     2    21    19    1
     3    17    19    1
     4    17     1    1
     5     2     6   ar
     6     3     2    1
     7     4     6   ar
     8     4     9    1
     9     7    11    1
    10    12    15   ar
    11    13    12    1
    12    14    11   ar
    13     5    22    1
    14     5     1   ar
    15     9     7   am
    16    16    15   ar
    17    17    18    2
    18     1     2   ar
    19     4     5   ar
    20     7     8    2
    21    11    16   ar
    22    12    14   ar
    23    22    23    3
    24     9    10    1
@<TRIPOS>MOLECULE
MolPort-008-295-419 17030887 CSSS00160395729 ChemDiv-Y200-4684 MCULE-7472541371 PubChem-17349438 ZINC000017030887 ZINC17030887
 23 24 0 0 0
SMALL
GASTEIGER

@<TRIPOS>ATOM
      1 C          14.5834   38.8254    9.8703 C.ar    1  UNL1        0.1198
      2 C          14.8848   39.9770    9.1512 C.ar    1  UNL1        0.1318
      3 C          16.1262   40.7935    9.2607 C.3     1  UNL1        0.0728
      4 C          12.9623   39.3632    8.4728 C.ar    1  UNL1        0.2112
      5 C          13.3322   38.4347    9.4218 C.ar    1  UNL1        0.1265
      6 O          13.9014   40.2701    8.3294 O.2     1  UNL1       -0.4431
      7 C          10.9081   40.4973    7.5235 C.2     1  UNL1        0.2727
      8 O          11.2442   41.6237    7.9790 O.2     1  UNL1       -0.2680
      9 N          11.7309   39.3466    7.7443 N.am    1  UNL1       -0.2498
     10 H          11.4295   38.4873    7.3702 H       1  UNL1        0.1581
     11 C           9.6621   40.3662    6.7602 C.ar    1  UNL1        0.1761
     12 C           7.6326   40.0186    6.1616 C.ar    1  UNL1        0.1550
     13 C           6.1837   39.6882    6.1290 C.3     1  UNL1        0.0754
     14 C           8.4397   39.9735    7.2807 C.ar    1  UNL1        0.0627
     15 O           8.3258   40.3972    5.1163 O.2     1  UNL1       -0.3576
     16 N           9.5633   40.6176    5.4407 N.ar    1  UNL1       -0.0727
     17 C          15.4148   38.1598   10.8933 C.2     1  UNL1        0.3447
     18 O          15.4795   38.6335   12.0606 O.2     1  UNL1       -0.2448
     19 O          16.1285   37.0052   10.5652 O.3     1  UNL1       -0.4454
     20 C          18.2384   38.1234   10.7670 C.3     1  UNL1        0.0513
     21 C          17.4454   37.0591   10.0379 C.3     1  UNL1        0.2089
     22 C          12.5579   37.2974    9.8479 C.1     1  UNL1        0.1052
     23 N          11.9360   36.3834   10.1897 N.1     1  UNL1       -0.1907
@<TRIPOS>BOND
     1    20    21    1
     2    21    19    1
     3    17    19    1
     4    17     1    1
     5     2     6   ar
     6     3     2    1
     7     4     6   ar
     8     4     9    1
     9     7    11    1
    10    12    15   ar
    11    13    12    1
    12    14    11   ar
    13     5    22    1
    14     5     1   ar
    15     9     7   am
    16    16    15   ar
    17    17    18    2
    18     1     2   ar
    19     4     5   ar
    20     7     8    2
    21    11    16   ar
    22    12    14   ar
    23    22    23    3
    24     9    10    1
@<TRIPOS>MOLECULE
MolPort-008-295-419 17030887 CSSS00160395729 ChemDiv-Y200-4684 MCULE-7472541371 PubChem-17349438 ZINC000017030887 ZINC17030887
 23 24 0 0 0
SMALL
GASTEIGER

@<TRIPOS>ATOM
      1 C           7.9311   42.7421    8.4116 C.ar    1  UNL1        0.1198
      2 C           8.4281   43.8090    9.1523 C.ar    1  UNL1        0.1318
      3 C           7.8014   45.1517    9.3071 C.3     1  UNL1        0.0728
      4 C           9.8418   42.2351    9.3925 C.ar    1  UNL1        0.2112
      5 C           8.8570   41.7247    8.5745 C.ar    1  UNL1        0.1265
      6 O           9.5646   43.4757    9.7230 O.2     1  UNL1       -0.4431
      7 C          12.2204   41.4300    9.0745 C.2     1  UNL1        0.2727
      8 O          12.3288   42.0001    7.9555 O.2     1  UNL1       -0.2680
      9 N          11.0036   41.5198    9.8236 N.am    1  UNL1       -0.2498
     10 H          10.9637   41.0589   10.6927 H       1  UNL1        0.1581
     11 C          13.3525   40.6680    9.6128 C.ar    1  UNL1        0.1761
     12 C          14.6147   39.4017   10.7967 C.ar    1  UNL1        0.1550
     13 C          15.1595   38.4826   11.8301 C.3     1  UNL1        0.0754
     14 C          13.3175   39.8714   10.7458 C.ar    1  UNL1        0.0627
     15 O          15.3117   39.8824    9.7969 O.2     1  UNL1       -0.3576
     16 N          14.5787   40.6560    9.0556 N.ar    1  UNL1       -0.0727
     17 C           6.6854   42.6993    7.6195 C.2     1  UNL1        0.3447
     18 O           6.7288   42.8360    6.3663 O.2     1  UNL1       -0.2448
     19 O           5.4601   42.5069    8.2613 O.3     1  UNL1       -0.4454
     20 C           3.7001   41.3459    9.4002 C.3     1  UNL1        0.0513
     21 C           5.1223   41.2771    8.8848 C.3     1  UNL1        0.2089
     22 C           8.8196   40.3993    8.0116 C.1     1  UNL1        0.1052
     23 N           8.7889   39.3346    7.5596 N.1     1  UNL1       -0.1907
@<TRIPOS>BOND
     1    20    21    1
     2    21    19    1
     3    17    19    1
     4    17     1    1
     5     2     6   ar
     6     3     2    1
     7     4     6   ar
     8     4     9    1
     9     7    11    1
    10    12    15   ar
    11    13    12    1
    12    14    11   ar
    13     5    22    1
    14     5     1   ar
    15     9     7   am
    16    16    15   ar
    17    17    18    2
    18     1     2   ar
    19     4     5   ar
    20     7     8    2
    21    11    16   ar
    22    12    14   ar
    23    22    23    3
    24     9    10    1
