@<TRIPOS>MOLECULE
Molport-051-950-059 CSSS20538622895
 29 32 0 0 0
SMALL
GASTEIGER

@<TRIPOS>ATOM
      1 C          16.0670   40.6311    9.3877 C.ar    1  UNL1        0.1709
      2 C          16.4446   42.1977    7.9579 C.ar    1  UNL1        0.1617
      3 C          14.9472   43.4101    6.6411 C.ar    1  UNL1        0.1412
      4 C          14.6709   44.4862    5.6544 C.3     1  UNL1        0.0737
      5 C          14.1156   41.6502    8.0375 C.ar    1  UNL1        0.0883
      6 C          15.4338   41.4354    8.4622 C.ar    1  UNL1        0.0874
      7 N          17.3905   40.9170    9.3997 N.ar    1  UNL1       -0.1550
      8 N          17.6254   41.8825    8.5165 N.ar    1  UNL1       -0.2583
      9 N          16.2277   43.1833    7.0563 N.ar    1  UNL1       -0.2123
     10 N          13.9144   42.6546    7.1304 N.ar    1  UNL1       -0.2305
     11 H          18.4981   42.2891    8.3109 H       1  UNL1        0.1906
     12 C          12.9608   40.8542    8.4981 C.ar    1  UNL1        0.0179
     13 C          12.1763   41.2720    9.5827 C.ar    1  UNL1        0.0015
     14 C          11.1148   40.4835   10.0357 C.ar    1  UNL1        0.0000
     15 C          10.8386   39.2622    9.4161 C.ar    1  UNL1        0.0000
     16 C          11.6276   38.8271    8.3483 C.ar    1  UNL1        0.0000
     17 C          12.6885   39.6172    7.8959 C.ar    1  UNL1        0.0015
     18 N          15.4408   39.7107   10.2809 N.pl3   1  UNL1       -0.1974
     19 H          14.4912   39.8383   10.5069 H       1  UNL1        0.1753
     20 S          16.2948   38.3783   10.9795 S.O2    1  UNL1        0.0747
     21 O          17.7307   38.7647   11.1926 O.2     1  UNL1       -0.1499
     22 O          15.6746   38.0375   12.3057 O.2     1  UNL1       -0.1499
     23 C          16.0329   33.6152    7.2769 C.3     1  UNL1        0.0310
     24 C          16.0989   34.7887    8.1862 C.ar    1  UNL1       -0.0218
     25 C          14.9265   35.3065    8.7453 C.ar    1  UNL1       -0.0029
     26 C          14.9886   36.4102    9.6010 C.ar    1  UNL1        0.0199
     27 C          16.2230   36.9979    9.8996 C.ar    1  UNL1        0.1252
     28 C          17.3951   36.4789    9.3381 C.ar    1  UNL1        0.0199
     29 C          17.3331   35.3752    8.4822 C.ar    1  UNL1       -0.0029
@<TRIPOS>BOND
     1    23    24    1
     2    25    26   ar
     3    27    28   ar
     4    29    24   ar
     5     3     9   ar
     6     4     3    1
     7     5    10   ar
     8     5    12    1
     9     6     1   ar
    10     6     2   ar
    11    13    14   ar
    12    15    16   ar
    13    17    12   ar
    14    20    27    1
    15    20    18    1
    16    18     1    1
    17     8     7   ar
    18     8     2   ar
    19    24    25   ar
    20    26    27   ar
    21    28    29   ar
    22     1     7   ar
    23     2     9   ar
    24     3    10   ar
    25     5     6   ar
    26    12    13   ar
    27    14    15   ar
    28    16    17   ar
    29    20    21    2
    30    20    22    2
    31    18    19    1
    32     8    11    1
@<TRIPOS>MOLECULE
Molport-051-950-059 CSSS20538622895
 29 32 0 0 0
SMALL
GASTEIGER

@<TRIPOS>ATOM
      1 C          13.5034   41.8018    7.4644 C.ar    1  UNL1        0.1709
      2 C          15.0635   43.1889    6.9322 C.ar    1  UNL1        0.1617
      3 C          17.2783   43.2961    7.6597 C.ar    1  UNL1        0.1412
      4 C          18.6283   43.9145    7.6064 C.3     1  UNL1        0.0737
      5 C          15.8191   41.6435    8.5968 C.ar    1  UNL1        0.0883
      6 C          14.8072   42.1405    7.7642 C.ar    1  UNL1        0.0874
      7 N          13.0323   42.6350    6.5067 N.ar    1  UNL1       -0.1550
      8 N          13.9934   43.4929    6.1784 N.ar    1  UNL1       -0.2583
      9 N          16.2805   43.7764    6.8614 N.ar    1  UNL1       -0.2123
     10 N          17.0444   42.2456    8.5074 N.ar    1  UNL1       -0.2305
     11 H          13.9327   44.2135    5.5103 H       1  UNL1        0.1906
     12 C          15.6288   40.5372    9.5555 C.ar    1  UNL1        0.0179
     13 C          14.3655   40.2496   10.0920 C.ar    1  UNL1        0.0015
     14 C          14.2107   39.2285   11.0339 C.ar    1  UNL1        0.0000
     15 C          15.3222   38.4961   11.4584 C.ar    1  UNL1        0.0000
     16 C          16.5884   38.7890   10.9456 C.ar    1  UNL1        0.0000
     17 C          16.7415   39.8101   10.0031 C.ar    1  UNL1        0.0015
     18 N          12.7747   40.6905    7.9850 N.pl3   1  UNL1       -0.1974
     19 H          13.2718   39.9415    8.3864 H       1  UNL1        0.1753
     20 S          11.0472   40.6157    7.9341 S.O2    1  UNL1        0.0747
     21 O          10.5528   39.7623    9.0671 O.2     1  UNL1       -0.1499
     22 O          10.4900   42.0038    8.0839 O.2     1  UNL1       -0.1499
     23 C           9.2658   38.2131    2.6884 C.3     1  UNL1        0.0310
     24 C           9.7045   38.8018    3.9803 C.ar    1  UNL1       -0.0218
     25 C          10.7012   39.7821    3.9990 C.ar    1  UNL1       -0.0029
     26 C          11.1137   40.3362    5.2143 C.ar    1  UNL1        0.0199
     27 C          10.5300   39.9115    6.4131 C.ar    1  UNL1        0.1252
     28 C           9.5333   38.9293    6.3925 C.ar    1  UNL1        0.0199
     29 C           9.1209   38.3750    5.1770 C.ar    1  UNL1       -0.0029
@<TRIPOS>BOND
     1    23    24    1
     2    25    26   ar
     3    27    28   ar
     4    29    24   ar
     5     3     9   ar
     6     4     3    1
     7     5    10   ar
     8     5    12    1
     9     6     1   ar
    10     6     2   ar
    11    13    14   ar
    12    15    16   ar
    13    17    12   ar
    14    20    27    1
    15    20    18    1
    16    18     1    1
    17     8     7   ar
    18     8     2   ar
    19    24    25   ar
    20    26    27   ar
    21    28    29   ar
    22     1     7   ar
    23     2     9   ar
    24     3    10   ar
    25     5     6   ar
    26    12    13   ar
    27    14    15   ar
    28    16    17   ar
    29    20    21    2
    30    20    22    2
    31    18    19    1
    32     8    11    1
@<TRIPOS>MOLECULE
Molport-051-950-059 CSSS20538622895
 29 32 0 0 0
SMALL
GASTEIGER

@<TRIPOS>ATOM
      1 C          13.9068   40.3904    8.4112 C.ar    1  UNL1        0.1709
      2 C          15.1865   42.0141    7.8053 C.ar    1  UNL1        0.1617
      3 C          14.7415   43.8202    6.3961 C.ar    1  UNL1        0.1412
      4 C          15.1628   45.0894    5.7484 C.3     1  UNL1        0.0737
      5 C          13.0553   42.1505    6.7238 C.ar    1  UNL1        0.0883
      6 C          13.9460   41.4950    7.5848 C.ar    1  UNL1        0.0874
      7 N          15.0859   40.2789    9.0674 N.ar    1  UNL1       -0.1550
      8 N          15.8775   41.2793    8.6931 N.ar    1  UNL1       -0.2583
      9 N          15.6024   43.1658    7.2293 N.ar    1  UNL1       -0.2123
     10 N          13.4904   43.3165    6.1554 N.ar    1  UNL1       -0.2305
     11 H          16.7951   41.4493    9.0067 H       1  UNL1        0.1906
     12 C          11.7065   41.6487    6.3949 C.ar    1  UNL1        0.0179
     13 C          10.6105   41.9089    7.2301 C.ar    1  UNL1        0.0015
     14 C           9.3493   41.3873    6.9285 C.ar    1  UNL1        0.0000
     15 C           9.1773   40.5879    5.7957 C.ar    1  UNL1        0.0000
     16 C          10.2675   40.3053    4.9688 C.ar    1  UNL1        0.0000
     17 C          11.5282   40.8283    5.2714 C.ar    1  UNL1        0.0015
     18 N          12.7818   39.5426    8.6409 N.pl3   1  UNL1       -0.1974
     19 H          12.0115   39.5983    8.0304 H       1  UNL1        0.1753
     20 S          12.7268   38.4203    9.9561 S.O2    1  UNL1        0.0747
     21 O          13.4036   39.0240   11.1536 O.2     1  UNL1       -0.1499
     22 O          11.2914   38.1305   10.2958 O.2     1  UNL1       -0.1499
     23 C          15.5911   33.3400    8.3906 C.3     1  UNL1        0.0310
     24 C          14.8861   34.5893    8.7785 C.ar    1  UNL1       -0.0218
     25 C          15.4006   35.8308    8.3924 C.ar    1  UNL1       -0.0029
     26 C          14.7373   37.0061    8.7570 C.ar    1  UNL1        0.0199
     27 C          13.5581   36.9421    9.5078 C.ar    1  UNL1        0.1252
     28 C          13.0454   35.6987    9.8942 C.ar    1  UNL1        0.0199
     29 C          13.7088   34.5232    9.5297 C.ar    1  UNL1       -0.0029
@<TRIPOS>BOND
     1    23    24    1
     2    25    26   ar
     3    27    28   ar
     4    29    24   ar
     5     3     9   ar
     6     4     3    1
     7     5    10   ar
     8     5    12    1
     9     6     1   ar
    10     6     2   ar
    11    13    14   ar
    12    15    16   ar
    13    17    12   ar
    14    20    27    1
    15    20    18    1
    16    18     1    1
    17     8     7   ar
    18     8     2   ar
    19    24    25   ar
    20    26    27   ar
    21    28    29   ar
    22     1     7   ar
    23     2     9   ar
    24     3    10   ar
    25     5     6   ar
    26    12    13   ar
    27    14    15   ar
    28    16    17   ar
    29    20    21    2
    30    20    22    2
    31    18    19    1
    32     8    11    1
@<TRIPOS>MOLECULE
Molport-051-950-059 CSSS20538622895
 29 32 0 0 0
SMALL
GASTEIGER

@<TRIPOS>ATOM
      1 C          13.0816   40.8502    7.5317 C.ar    1  UNL1        0.1709
      2 C          14.5874   42.3429    7.1498 C.ar    1  UNL1        0.1617
      3 C          16.7266   42.5713    8.0540 C.ar    1  UNL1        0.1412
      4 C          18.0345   43.2734    8.1195 C.3     1  UNL1        0.0737
      5 C          15.3063   40.8110    8.8430 C.ar    1  UNL1        0.0883
      6 C          14.3336   41.2625    7.9406 C.ar    1  UNL1        0.0874
      7 N          12.6354   41.6734    6.5537 N.ar    1  UNL1       -0.1550
      8 N          13.5628   42.5963    6.3180 N.ar    1  UNL1       -0.2583
      9 N          15.7663   43.0063    7.1867 N.ar    1  UNL1       -0.2123
     10 N          16.4940   41.4899    8.8622 N.ar    1  UNL1       -0.2305
     11 H          13.5093   43.3263    5.6596 H       1  UNL1        0.1906
     12 C          15.1118   39.6742    9.7644 C.ar    1  UNL1        0.0179
     13 C          15.6665   38.4153    9.4927 C.ar    1  UNL1        0.0015
     14 C          15.4342   37.3374   10.3517 C.ar    1  UNL1        0.0000
     15 C          14.6318   37.5068   11.4829 C.ar    1  UNL1        0.0000
     16 C          14.0573   38.7518   11.7510 C.ar    1  UNL1        0.0000
     17 C          14.2912   39.8291   10.8912 C.ar    1  UNL1        0.0015
     18 N          12.3864   39.6846    7.9733 N.pl3   1  UNL1       -0.1974
     19 H          12.6675   38.8050    7.6319 H       1  UNL1        0.1753
     20 S          11.0662   39.7658    9.0882 S.O2    1  UNL1        0.0747
     21 O          11.0787   38.5450    9.9635 O.2     1  UNL1       -0.1499
     22 O          11.2225   40.9893    9.9475 O.2     1  UNL1       -0.1499
     23 C           5.8372   39.9831    6.0759 C.3     1  UNL1        0.0310
     24 C           7.1253   39.9297    6.8147 C.ar    1  UNL1       -0.0218
     25 C           7.3677   40.8234    7.8624 C.ar    1  UNL1       -0.0029
     26 C           8.5794   40.7728    8.5578 C.ar    1  UNL1        0.0199
     27 C           9.5507   39.8284    8.2072 C.ar    1  UNL1        0.1252
     28 C           9.3067   38.9356    7.1576 C.ar    1  UNL1        0.0199
     29 C           8.0950   38.9861    6.4620 C.ar    1  UNL1       -0.0029
@<TRIPOS>BOND
     1    23    24    1
     2    25    26   ar
     3    27    28   ar
     4    29    24   ar
     5     3     9   ar
     6     4     3    1
     7     5    10   ar
     8     5    12    1
     9     6     1   ar
    10     6     2   ar
    11    13    14   ar
    12    15    16   ar
    13    17    12   ar
    14    20    27    1
    15    20    18    1
    16    18     1    1
    17     8     7   ar
    18     8     2   ar
    19    24    25   ar
    20    26    27   ar
    21    28    29   ar
    22     1     7   ar
    23     2     9   ar
    24     3    10   ar
    25     5     6   ar
    26    12    13   ar
    27    14    15   ar
    28    16    17   ar
    29    20    21    2
    30    20    22    2
    31    18    19    1
    32     8    11    1
@<TRIPOS>MOLECULE
Molport-051-950-059 CSSS20538622895
 29 32 0 0 0
SMALL
GASTEIGER

@<TRIPOS>ATOM
      1 C          12.7200   41.0488    7.1120 C.ar    1  UNL1        0.1709
      2 C          14.2612   42.5016    6.7176 C.ar    1  UNL1        0.1617
      3 C          16.3545   42.7658    7.7146 C.ar    1  UNL1        0.1412
      4 C          17.6659   43.4587    7.8042 C.3     1  UNL1        0.0737
      5 C          14.8749   41.0701    8.5355 C.ar    1  UNL1        0.0883
      6 C          13.9546   41.4741    7.5586 C.ar    1  UNL1        0.0874
      7 N          12.3338   41.8144    6.0641 N.ar    1  UNL1       -0.1550
      8 N          13.2832   42.7127    5.8206 N.ar    1  UNL1       -0.2583
      9 N          15.4447   43.1553    6.7744 N.ar    1  UNL1       -0.2123
     10 N          16.0683   41.7382    8.5741 N.ar    1  UNL1       -0.2305
     11 H          13.2718   43.4014    5.1171 H       1  UNL1        0.1906
     12 C          14.6203   39.9938    9.5132 C.ar    1  UNL1        0.0179
     13 C          13.6865   40.1565   10.5466 C.ar    1  UNL1        0.0015
     14 C          13.4910   39.1453   11.4916 C.ar    1  UNL1        0.0000
     15 C          14.2396   37.9680   11.4190 C.ar    1  UNL1        0.0000
     16 C          15.1874   37.8049   10.4055 C.ar    1  UNL1        0.0000
     17 C          15.3813   38.8169    9.4607 C.ar    1  UNL1        0.0015
     18 N          11.9893   39.9188    7.5874 N.pl3   1  UNL1       -0.1974
     19 H          12.4313   39.2914    8.2040 H       1  UNL1        0.1753
     20 S          10.3527   39.6148    7.1164 S.O2    1  UNL1        0.0747
     21 O          10.2968   39.3842    5.6331 O.2     1  UNL1       -0.1499
     22 O           9.8573   38.3850    7.8249 O.2     1  UNL1       -0.1499
     23 C           6.9039   44.3638    8.5364 C.3     1  UNL1        0.0310
     24 C           7.7537   43.1966    8.1849 C.ar    1  UNL1       -0.0218
     25 C           8.5000   42.5518    9.1760 C.ar    1  UNL1       -0.0029
     26 C           9.2993   41.4535    8.8454 C.ar    1  UNL1        0.0199
     27 C           9.3533   40.9977    7.5234 C.ar    1  UNL1        0.1252
     28 C           8.6065   41.6451    6.5327 C.ar    1  UNL1        0.0199
     29 C           7.8073   42.7436    6.8632 C.ar    1  UNL1       -0.0029
@<TRIPOS>BOND
     1    23    24    1
     2    25    26   ar
     3    27    28   ar
     4    29    24   ar
     5     3     9   ar
     6     4     3    1
     7     5    10   ar
     8     5    12    1
     9     6     1   ar
    10     6     2   ar
    11    13    14   ar
    12    15    16   ar
    13    17    12   ar
    14    20    27    1
    15    20    18    1
    16    18     1    1
    17     8     7   ar
    18     8     2   ar
    19    24    25   ar
    20    26    27   ar
    21    28    29   ar
    22     1     7   ar
    23     2     9   ar
    24     3    10   ar
    25     5     6   ar
    26    12    13   ar
    27    14    15   ar
    28    16    17   ar
    29    20    21    2
    30    20    22    2
    31    18    19    1
    32     8    11    1
@<TRIPOS>MOLECULE
Molport-051-950-059 CSSS20538622895
 29 32 0 0 0
SMALL
GASTEIGER

@<TRIPOS>ATOM
      1 C          12.6689   40.9186    7.2433 C.ar    1  UNL1        0.1709
      2 C          14.2434   42.3446    6.8847 C.ar    1  UNL1        0.1617
      3 C          16.3582   42.5100    7.8574 C.ar    1  UNL1        0.1412
      4 C          17.6894   43.1629    7.9543 C.3     1  UNL1        0.0737
      5 C          14.8449   40.8218    8.6309 C.ar    1  UNL1        0.0883
      6 C          13.9214   41.2913    7.6870 C.ar    1  UNL1        0.0874
      7 N          12.2880   41.7379    6.2347 N.ar    1  UNL1       -0.1550
      8 N          13.2580   42.6197    6.0134 N.ar    1  UNL1       -0.2583
      9 N          15.4452   42.9632    6.9493 N.ar    1  UNL1       -0.2123
     10 N          16.0568   41.4552    8.6779 N.ar    1  UNL1       -0.2305
     11 H          13.2550   43.3374    5.3395 H       1  UNL1        0.1906
     12 C          14.5756   39.7125    9.5669 C.ar    1  UNL1        0.0179
     13 C          14.9705   38.3998    9.2711 C.ar    1  UNL1        0.0015
     14 C          14.6668   37.3534   10.1467 C.ar    1  UNL1        0.0000
     15 C          13.9516   37.6097   11.3191 C.ar    1  UNL1        0.0000
     16 C          13.5352   38.9108   11.6124 C.ar    1  UNL1        0.0000
     17 C          13.8404   39.9564   10.7361 C.ar    1  UNL1        0.0015
     18 N          11.9145   39.7897    7.6831 N.pl3   1  UNL1       -0.1974
     19 H          12.3407   39.1380    8.2856 H       1  UNL1        0.1753
     20 S          10.2762   39.5282    7.1930 S.O2    1  UNL1        0.0747
     21 O          10.2316   39.2992    5.7090 O.2     1  UNL1       -0.1499
     22 O           9.7408   38.3117    7.8952 O.2     1  UNL1       -0.1499
     23 C           6.9516   44.3871    8.5355 C.3     1  UNL1        0.0310
     24 C           7.7687   43.1901    8.2074 C.ar    1  UNL1       -0.0218
     25 C           7.7556   42.6693    6.9098 C.ar    1  UNL1       -0.0029
     26 C           8.5246   41.5435    6.6009 C.ar    1  UNL1        0.0199
     27 C           9.3083   40.9366    7.5888 C.ar    1  UNL1        0.1252
     28 C           9.3191   41.4585    8.8871 C.ar    1  UNL1        0.0199
     29 C           8.5500   42.5845    9.1961 C.ar    1  UNL1       -0.0029
@<TRIPOS>BOND
     1    23    24    1
     2    25    26   ar
     3    27    28   ar
     4    29    24   ar
     5     3     9   ar
     6     4     3    1
     7     5    10   ar
     8     5    12    1
     9     6     1   ar
    10     6     2   ar
    11    13    14   ar
    12    15    16   ar
    13    17    12   ar
    14    20    27    1
    15    20    18    1
    16    18     1    1
    17     8     7   ar
    18     8     2   ar
    19    24    25   ar
    20    26    27   ar
    21    28    29   ar
    22     1     7   ar
    23     2     9   ar
    24     3    10   ar
    25     5     6   ar
    26    12    13   ar
    27    14    15   ar
    28    16    17   ar
    29    20    21    2
    30    20    22    2
    31    18    19    1
    32     8    11    1
@<TRIPOS>MOLECULE
Molport-051-950-059 CSSS20538622895
 29 32 0 0 0
SMALL
GASTEIGER

@<TRIPOS>ATOM
      1 C          12.9336   41.1001    7.1768 C.ar    1  UNL1        0.1709
      2 C          14.5674   42.4850    6.9450 C.ar    1  UNL1        0.1617
      3 C          16.6393   42.5429    8.0174 C.ar    1  UNL1        0.1412
      4 C          17.9847   43.1469    8.1992 C.3     1  UNL1        0.0737
      5 C          15.0391   40.8786    8.6559 C.ar    1  UNL1        0.0883
      6 C          14.1755   41.4137    7.6904 C.ar    1  UNL1        0.0874
      7 N          12.6259   41.9688    6.1848 N.ar    1  UNL1       -0.1550
      8 N          13.6325   42.8253    6.0417 N.ar    1  UNL1       -0.2583
      9 N          15.7840   43.0602    7.0875 N.ar    1  UNL1       -0.2123
     10 N          16.2670   41.4688    8.7818 N.ar    1  UNL1       -0.2305
     11 H          13.6834   43.5675    5.3968 H       1  UNL1        0.1906
     12 C          14.6918   39.7446    9.5349 C.ar    1  UNL1        0.0179
     13 C          13.8879   39.9244   10.6698 C.ar    1  UNL1        0.0015
     14 C          13.6067   38.8491   11.5174 C.ar    1  UNL1        0.0000
     15 C          14.1404   37.5871   11.2444 C.ar    1  UNL1        0.0000
     16 C          14.9598   37.4024   10.1279 C.ar    1  UNL1        0.0000
     17 C          15.2395   38.4788    9.2807 C.ar    1  UNL1        0.0015
     18 N          12.1242   39.9814    7.5380 N.pl3   1  UNL1       -0.1974
     19 H          12.5636   39.1550    7.8434 H       1  UNL1        0.1753
     20 S          10.3969   40.0290    7.4572 S.O2    1  UNL1        0.0747
     21 O           9.9764   40.9224    6.3250 O.2     1  UNL1       -0.1499
     22 O           9.8776   38.6406    7.2076 O.2     1  UNL1       -0.1499
     23 C           8.1815   42.1841   12.6448 C.3     1  UNL1        0.0310
     24 C           8.7261   41.6562   11.3670 C.ar    1  UNL1       -0.0218
     25 C           9.9909   41.0607   11.3393 C.ar    1  UNL1       -0.0029
     26 C          10.5030   40.5637   10.1372 C.ar    1  UNL1        0.0199
     27 C           9.7514   40.6608    8.9609 C.ar    1  UNL1        0.1252
     28 C           8.4862   41.2582    8.9904 C.ar    1  UNL1        0.0199
     29 C           7.9740   41.7554   10.1926 C.ar    1  UNL1       -0.0029
@<TRIPOS>BOND
     1    23    24    1
     2    25    26   ar
     3    27    28   ar
     4    29    24   ar
     5     3     9   ar
     6     4     3    1
     7     5    10   ar
     8     5    12    1
     9     6     1   ar
    10     6     2   ar
    11    13    14   ar
    12    15    16   ar
    13    17    12   ar
    14    20    27    1
    15    20    18    1
    16    18     1    1
    17     8     7   ar
    18     8     2   ar
    19    24    25   ar
    20    26    27   ar
    21    28    29   ar
    22     1     7   ar
    23     2     9   ar
    24     3    10   ar
    25     5     6   ar
    26    12    13   ar
    27    14    15   ar
    28    16    17   ar
    29    20    21    2
    30    20    22    2
    31    18    19    1
    32     8    11    1
@<TRIPOS>MOLECULE
Molport-051-950-059 CSSS20538622895
 29 32 0 0 0
SMALL
GASTEIGER

@<TRIPOS>ATOM
      1 C          13.1842   39.1741    8.2725 C.ar    1  UNL1        0.1709
      2 C          13.3436   37.5954    9.7298 C.ar    1  UNL1        0.1617
      3 C          11.6814   36.2430   10.6539 C.ar    1  UNL1        0.1412
      4 C          11.2698   35.1212   11.5371 C.3     1  UNL1        0.0737
      5 C          11.0591   37.9818    9.1282 C.ar    1  UNL1        0.0883
      6 C          12.4195   38.3003    9.0183 C.ar    1  UNL1        0.0874
      7 N          14.4935   38.9814    8.5589 N.ar    1  UNL1       -0.1550
      8 N          14.5934   38.0085    9.4596 N.ar    1  UNL1       -0.2583
      9 N          13.0021   36.5706   10.5449 N.ar    1  UNL1       -0.2123
     10 N          10.7331   36.9391    9.9519 N.ar    1  UNL1       -0.2305
     11 H          15.4247   37.6576    9.8534 H       1  UNL1        0.1906
     12 C           9.9827   38.7090    8.4269 C.ar    1  UNL1        0.0179
     13 C           9.3451   38.1591    7.3055 C.ar    1  UNL1        0.0015
     14 C           8.3600   38.8805    6.6250 C.ar    1  UNL1        0.0000
     15 C           8.0152   40.1652    7.0523 C.ar    1  UNL1        0.0000
     16 C           8.6597   40.7302    8.1557 C.ar    1  UNL1        0.0000
     17 C           9.6442   40.0072    8.8357 C.ar    1  UNL1        0.0015
     18 N          12.7099   40.0750    7.2723 N.pl3   1  UNL1       -0.1974
     19 H          12.4156   39.7120    6.4059 H       1  UNL1        0.1753
     20 S          12.6349   41.7837    7.5318 S.O2    1  UNL1        0.0747
     21 O          11.5399   42.3677    6.6853 O.2     1  UNL1       -0.1499
     22 O          12.3318   42.0485    8.9802 O.2     1  UNL1       -0.1499
     23 C          17.8939   44.3060    5.9681 C.3     1  UNL1        0.0310
     24 C          16.6002   43.6861    6.3556 C.ar    1  UNL1       -0.0218
     25 C          15.4393   43.9828    5.6348 C.ar    1  UNL1       -0.0029
     26 C          14.2223   43.3994    5.9990 C.ar    1  UNL1        0.0199
     27 C          14.1638   42.5178    7.0842 C.ar    1  UNL1        0.1252
     28 C          15.3265   42.2230    7.8051 C.ar    1  UNL1        0.0199
     29 C          16.5437   42.8066    7.4410 C.ar    1  UNL1       -0.0029
@<TRIPOS>BOND
     1    23    24    1
     2    25    26   ar
     3    27    28   ar
     4    29    24   ar
     5     3     9   ar
     6     4     3    1
     7     5    10   ar
     8     5    12    1
     9     6     1   ar
    10     6     2   ar
    11    13    14   ar
    12    15    16   ar
    13    17    12   ar
    14    20    27    1
    15    20    18    1
    16    18     1    1
    17     8     7   ar
    18     8     2   ar
    19    24    25   ar
    20    26    27   ar
    21    28    29   ar
    22     1     7   ar
    23     2     9   ar
    24     3    10   ar
    25     5     6   ar
    26    12    13   ar
    27    14    15   ar
    28    16    17   ar
    29    20    21    2
    30    20    22    2
    31    18    19    1
    32     8    11    1
@<TRIPOS>MOLECULE
Molport-051-950-059 CSSS20538622895
 29 32 0 0 0
SMALL
GASTEIGER

@<TRIPOS>ATOM
      1 C          14.0585   40.3004    8.3998 C.ar    1  UNL1        0.1709
      2 C          15.2637   41.9786    7.7897 C.ar    1  UNL1        0.1617
      3 C          14.7610   43.7236    6.3241 C.ar    1  UNL1        0.1412
      4 C          15.1303   44.9990    5.6571 C.3     1  UNL1        0.0737
      5 C          13.1609   41.9702    6.6460 C.ar    1  UNL1        0.0883
      6 C          14.0608   41.3858    7.5476 C.ar    1  UNL1        0.0874
      7 N          15.2222   40.2703    9.0913 N.ar    1  UNL1       -0.1550
      8 N          15.9680   41.3045    8.7146 N.ar    1  UNL1       -0.2583
      9 N          15.6320   43.1381    7.1971 N.ar    1  UNL1       -0.2123
     10 N          13.5474   43.1452    6.0611 N.ar    1  UNL1       -0.2305
     11 H          16.8652   41.5329    9.0494 H       1  UNL1        0.1906
     12 C          11.8521   41.3862    6.2920 C.ar    1  UNL1        0.0179
     13 C          10.6814   42.1578    6.3161 C.ar    1  UNL1        0.0015
     14 C           9.4437   41.5780    6.0233 C.ar    1  UNL1        0.0000
     15 C           9.3652   40.2169    5.7183 C.ar    1  UNL1        0.0000
     16 C          10.5231   39.4350    5.7124 C.ar    1  UNL1        0.0000
     17 C          11.7604   40.0165    6.0048 C.ar    1  UNL1        0.0015
     18 N          12.9759   39.3965    8.6189 N.pl3   1  UNL1       -0.1974
     19 H          12.8080   38.6861    7.9583 H       1  UNL1        0.1753
     20 S          11.9490   39.5073   10.0066 S.O2    1  UNL1        0.0747
     21 O          11.1285   38.2541   10.1195 O.2     1  UNL1       -0.1499
     22 O          12.7995   39.6516   11.2377 O.2     1  UNL1       -0.1499
     23 C           8.2487   44.2426    9.4160 C.3     1  UNL1        0.0310
     24 C           9.1602   43.0784    9.5637 C.ar    1  UNL1       -0.0218
     25 C           8.6595   41.7787    9.4408 C.ar    1  UNL1       -0.0029
     26 C           9.5171   40.6835    9.5794 C.ar    1  UNL1        0.0199
     27 C          10.8769   40.8858    9.8406 C.ar    1  UNL1        0.1252
     28 C          11.3759   42.1873    9.9645 C.ar    1  UNL1        0.0199
     29 C          10.5183   43.2827    9.8261 C.ar    1  UNL1       -0.0029
@<TRIPOS>BOND
     1    23    24    1
     2    25    26   ar
     3    27    28   ar
     4    29    24   ar
     5     3     9   ar
     6     4     3    1
     7     5    10   ar
     8     5    12    1
     9     6     1   ar
    10     6     2   ar
    11    13    14   ar
    12    15    16   ar
    13    17    12   ar
    14    20    27    1
    15    20    18    1
    16    18     1    1
    17     8     7   ar
    18     8     2   ar
    19    24    25   ar
    20    26    27   ar
    21    28    29   ar
    22     1     7   ar
    23     2     9   ar
    24     3    10   ar
    25     5     6   ar
    26    12    13   ar
    27    14    15   ar
    28    16    17   ar
    29    20    21    2
    30    20    22    2
    31    18    19    1
    32     8    11    1
@<TRIPOS>MOLECULE
Molport-051-950-059 CSSS20538622895
 29 32 0 0 0
SMALL
GASTEIGER

@<TRIPOS>ATOM
      1 C          13.5209   39.3870    8.5237 C.ar    1  UNL1        0.1709
      2 C          15.3873   40.2219    9.2023 C.ar    1  UNL1        0.1617
      3 C          17.2894   39.1514   10.0281 C.ar    1  UNL1        0.1412
      4 C          18.6868   39.2032   10.5307 C.3     1  UNL1        0.0737
      5 C          15.3570   37.8448    9.4832 C.ar    1  UNL1        0.0883
      6 C          14.7256   39.0352    9.0976 C.ar    1  UNL1        0.0874
      7 N          13.4941   40.7255    8.3213 N.ar    1  UNL1       -0.1550
      8 N          14.6447   41.2426    8.7413 N.ar    1  UNL1       -0.2583
      9 N          16.6587   40.3042    9.6584 N.ar    1  UNL1       -0.2123
     10 N          16.6440   37.9465    9.9360 N.ar    1  UNL1       -0.2305
     11 H          14.9034   42.1922    8.7188 H       1  UNL1        0.1906
     12 C          14.7115   36.5179    9.4405 C.ar    1  UNL1        0.0179
     13 C          13.6358   36.2054   10.2842 C.ar    1  UNL1        0.0015
     14 C          13.0660   34.9292   10.2639 C.ar    1  UNL1        0.0000
     15 C          13.5779   33.9498    9.4092 C.ar    1  UNL1        0.0000
     16 C          14.6629   34.2449    8.5800 C.ar    1  UNL1        0.0000
     17 C          15.2314   35.5220    8.6009 C.ar    1  UNL1        0.0015
     18 N          12.4904   38.4947    8.1005 N.pl3   1  UNL1       -0.1974
     19 H          12.6887   37.8406    7.3919 H       1  UNL1        0.1753
     20 S          10.9047   38.5242    8.7912 S.O2    1  UNL1        0.0747
     21 O           9.9088   38.0520    7.7705 O.2     1  UNL1       -0.1499
     22 O          10.8678   37.6024    9.9781 O.2     1  UNL1       -0.1499
     23 C           9.5051   44.1495   10.4827 C.3     1  UNL1        0.0310
     24 C           9.8509   42.7662   10.0643 C.ar    1  UNL1       -0.0218
     25 C          10.3893   41.8694   10.9921 C.ar    1  UNL1       -0.0029
     26 C          10.7143   40.5679   10.5986 C.ar    1  UNL1        0.0199
     27 C          10.5012   40.1607    9.2769 C.ar    1  UNL1        0.1252
     28 C           9.9634   41.0601    8.3495 C.ar    1  UNL1        0.0199
     29 C           9.6384   42.3618    8.7429 C.ar    1  UNL1       -0.0029
@<TRIPOS>BOND
     1    23    24    1
     2    25    26   ar
     3    27    28   ar
     4    29    24   ar
     5     3     9   ar
     6     4     3    1
     7     5    10   ar
     8     5    12    1
     9     6     1   ar
    10     6     2   ar
    11    13    14   ar
    12    15    16   ar
    13    17    12   ar
    14    20    27    1
    15    20    18    1
    16    18     1    1
    17     8     7   ar
    18     8     2   ar
    19    24    25   ar
    20    26    27   ar
    21    28    29   ar
    22     1     7   ar
    23     2     9   ar
    24     3    10   ar
    25     5     6   ar
    26    12    13   ar
    27    14    15   ar
    28    16    17   ar
    29    20    21    2
    30    20    22    2
    31    18    19    1
    32     8    11    1
