@<TRIPOS>MOLECULE
MolPort-035-706-971 CSSS03437789226 MCULE-7193240938 PubChem-91938296
 31 33 0 0 0
SMALL
GASTEIGER

@<TRIPOS>ATOM
      1 C          15.4148   37.2817    9.7344 C.3     1  UNL1        0.2880
      2 C          16.4067   37.4018    8.5861 C.3     1  UNL1        0.0650
      3 C          13.1456   38.3657    9.6567 C.ar    1  UNL1        0.1542
      4 C          12.4040   39.5505    9.6816 C.ar    1  UNL1        0.0529
      5 C          11.0051   39.5133    9.6688 C.ar    1  UNL1        0.0537
      6 C          10.3518   38.2718    9.6264 C.ar    1  UNL1        0.0162
      7 C          11.0897   37.0852    9.5983 C.ar    1  UNL1        0.0190
      8 C          12.4855   37.1337    9.6143 C.ar    1  UNL1        0.0850
      9 C          14.6715   35.9670    9.6048 C.2     1  UNL1        0.2732
     10 O          14.5434   38.4222    9.6702 O.3     1  UNL1       -0.4618
     11 O          15.3118   34.8829    9.5454 O.2     1  UNL1       -0.2704
     12 N          13.2448   35.9318    9.5727 N.am    1  UNL1       -0.2783
     13 H          12.7809   35.0650    9.5212 H       1  UNL1        0.1551
     14 C           9.5795   41.3654    8.6045 C.2     1  UNL1        0.2503
     15 O           9.5086   40.7806    7.4891 O.2     1  UNL1       -0.2698
     16 N          10.2835   40.7521    9.6940 N.am    1  UNL1       -0.2803
     17 H          10.2696   41.2343   10.5522 H       1  UNL1        0.1552
     18 C           8.8869   42.6648    8.7834 C.ar    1  UNL1        0.0647
     19 C           7.6595   42.8471    8.1257 C.ar    1  UNL1        0.0115
     20 C           6.9425   44.0381    8.2535 C.ar    1  UNL1        0.0254
     21 C           7.4429   45.0686    9.0484 C.ar    1  UNL1        0.0070
     22 C           8.6652   44.9120    9.7019 C.ar    1  UNL1        0.0120
     23 C           9.3951   43.7248    9.5779 C.ar    1  UNL1        0.0621
     24 CL         10.9529   43.6696   10.3919 Cl      1  UNL1       -0.0821
     25 C           4.4631   43.3962    8.7450 C.3     1  UNL1        0.0742
     26 S           5.3750   44.2330    7.4167 S.3     1  UNL1       -0.1127
     27 C          16.1464   37.3052   11.0490 C.2     1  UNL1        0.3623
     28 O          15.5666   36.9280   12.1057 O.2     1  UNL1       -0.2457
     29 O          17.4540   37.8002   11.1004 O.3     1  UNL1       -0.4458
     30 C          19.6522   37.7881   10.1018 C.3     1  UNL1        0.0513
     31 C          18.5932   36.9891   10.8391 C.3     1  UNL1        0.2087
@<TRIPOS>BOND
     1    30    31    1
     2    31    29    1
     3    27    29    1
     4     1    27    1
     5     1     2    1
     6     1    10    1
     7     1     9    1
     8     3    10    1
     9     4     5   ar
    10     5    16    1
    11    14    18    1
    12    19    20   ar
    13    20    26    1
    14    25    26    1
    15    21    22   ar
    16    23    24    1
    17    23    18   ar
    18     6     7   ar
    19     8    12    1
    20     8     3   ar
    21    16    14   am
    22    12     9   am
    23    27    28    2
    24     3     4   ar
    25     5     6   ar
    26    14    15    2
    27    18    19   ar
    28    20    21   ar
    29    22    23   ar
    30     7     8   ar
    31     9    11    2
    32    16    17    1
    33    12    13    1
@<TRIPOS>MOLECULE
MolPort-035-706-971 CSSS03437789226 MCULE-7193240938 PubChem-91938296
 31 33 0 0 0
SMALL
GASTEIGER

@<TRIPOS>ATOM
      1 C          12.3681   41.3478    7.5718 C.3     1  UNL1        0.2880
      2 C          11.9315   41.2811    6.1152 C.3     1  UNL1        0.0650
      3 C          14.3186   40.0181    8.4425 C.ar    1  UNL1        0.1542
      4 C          14.8350   38.7615    8.7721 C.ar    1  UNL1        0.0529
      5 C          16.1080   38.6439    9.3414 C.ar    1  UNL1        0.0537
      6 C          16.8651   39.8023    9.5753 C.ar    1  UNL1        0.0162
      7 C          16.3536   41.0601    9.2443 C.ar    1  UNL1        0.0190
      8 C          15.0807   41.1663    8.6791 C.ar    1  UNL1        0.0850
      9 C          13.2513   42.5647    7.7637 C.2     1  UNL1        0.2732
     10 O          13.0439   40.1166    7.8742 O.3     1  UNL1       -0.4618
     11 O          12.8285   43.7084    7.4446 O.2     1  UNL1       -0.2704
     12 N          14.5571   42.4410    8.3270 N.am    1  UNL1       -0.2783
     13 H          15.1019   43.2479    8.4736 H       1  UNL1        0.1551
     14 C          17.4689   36.5184    8.8660 C.2     1  UNL1        0.2503
     15 O          17.9243   36.9577    7.7747 O.2     1  UNL1       -0.2698
     16 N          16.5998   37.3359    9.6630 N.am    1  UNL1       -0.2803
     17 H          16.3096   36.9576   10.5243 H       1  UNL1        0.1552
     18 C          17.8826   35.1721    9.3309 C.ar    1  UNL1        0.0647
     19 C          17.3050   34.0573    8.7015 C.ar    1  UNL1        0.0115
     20 C          17.6514   32.7578    9.0759 C.ar    1  UNL1        0.0254
     21 C          18.5884   32.5524   10.0878 C.ar    1  UNL1        0.0070
     22 C          19.1662   33.6458   10.7330 C.ar    1  UNL1        0.0120
     23 C          18.8238   34.9529   10.3698 C.ar    1  UNL1        0.0621
     24 CL         19.5654   36.2483   11.2995 Cl      1  UNL1       -0.0821
     25 C          17.7802   31.7129    6.6899 C.3     1  UNL1        0.0742
     26 S          16.9106   31.3596    8.2441 S.3     1  UNL1       -0.1127
     27 C          11.1626   41.4699    8.4638 C.2     1  UNL1        0.3623
     28 O          11.2537   42.0564    9.5786 O.2     1  UNL1       -0.2457
     29 O           9.9551   40.8804    8.0738 O.3     1  UNL1       -0.4458
     30 C           9.2321   40.7459   10.3735 C.3     1  UNL1        0.0513
     31 C           8.8111   40.8417    8.9185 C.3     1  UNL1        0.2087
@<TRIPOS>BOND
     1    30    31    1
     2    31    29    1
     3    27    29    1
     4     1    27    1
     5     1     2    1
     6     1    10    1
     7     1     9    1
     8     3    10    1
     9     4     5   ar
    10     5    16    1
    11    14    18    1
    12    19    20   ar
    13    20    26    1
    14    25    26    1
    15    21    22   ar
    16    23    24    1
    17    23    18   ar
    18     6     7   ar
    19     8    12    1
    20     8     3   ar
    21    16    14   am
    22    12     9   am
    23    27    28    2
    24     3     4   ar
    25     5     6   ar
    26    14    15    2
    27    18    19   ar
    28    20    21   ar
    29    22    23   ar
    30     7     8   ar
    31     9    11    2
    32    16    17    1
    33    12    13    1
@<TRIPOS>MOLECULE
MolPort-035-706-971 CSSS03437789226 MCULE-7193240938 PubChem-91938296
 31 33 0 0 0
SMALL
GASTEIGER

@<TRIPOS>ATOM
      1 C          16.9644   37.9886   10.2915 C.3     1  UNL1        0.2880
      2 C          18.1578   38.9117   10.0903 C.3     1  UNL1        0.0650
      3 C          14.6292   38.6659    9.6443 C.ar    1  UNL1        0.1542
      4 C          13.5230   39.4796    9.9058 C.ar    1  UNL1        0.0529
      5 C          12.3482   39.3432    9.1575 C.ar    1  UNL1        0.0537
      6 C          12.2924   38.3819    8.1364 C.ar    1  UNL1        0.0162
      7 C          13.3974   37.5687    7.8699 C.ar    1  UNL1        0.0190
      8 C          14.5639   37.7113    8.6247 C.ar    1  UNL1        0.0850
      9 C          16.8904   37.0216    9.1265 C.2     1  UNL1        0.2732
     10 O          15.7953   38.8163   10.4026 O.3     1  UNL1       -0.4618
     11 O          17.8826   36.2979    8.8428 O.2     1  UNL1       -0.2704
     12 N          15.6979   36.8970    8.3520 N.am    1  UNL1       -0.2783
     13 H          15.6597   36.2395    7.6202 H       1  UNL1        0.1551
     14 C          10.2136   40.6371    8.5536 C.2     1  UNL1        0.2503
     15 O          10.2037   40.2230    7.3621 O.2     1  UNL1       -0.2698
     16 N          11.2377   40.1990    9.4581 N.am    1  UNL1       -0.2803
     17 H          11.1705   40.5210   10.3860 H       1  UNL1        0.1552
     18 C           9.1294   41.5389    9.0132 C.ar    1  UNL1        0.0647
     19 C           7.8036   41.1131    8.8302 C.ar    1  UNL1        0.0115
     20 C           6.7290   41.9012    9.2462 C.ar    1  UNL1        0.0254
     21 C           6.9653   43.1316    9.8582 C.ar    1  UNL1        0.0070
     22 C           8.2743   43.5779   10.0399 C.ar    1  UNL1        0.0120
     23 C           9.3594   42.7991    9.6232 C.ar    1  UNL1        0.0621
     24 CL         10.9590   43.4958    9.8429 Cl      1  UNL1       -0.0821
     25 C           4.3751   43.0073    9.0540 C.3     1  UNL1        0.0742
     26 S           5.0533   41.3237    9.0140 S.3     1  UNL1       -0.1127
     27 C          17.1282   37.2088   11.5679 C.2     1  UNL1        0.3623
     28 O          16.2372   37.2584   12.4616 O.2     1  UNL1       -0.2457
     29 O          18.2996   36.4738   11.7800 O.3     1  UNL1       -0.4458
     30 C          19.6521   34.7132   12.7289 C.3     1  UNL1        0.0513
     31 C          18.5167   35.6955   12.9509 C.3     1  UNL1        0.2087
@<TRIPOS>BOND
     1    30    31    1
     2    31    29    1
     3    27    29    1
     4     1    27    1
     5     1     2    1
     6     1    10    1
     7     1     9    1
     8     3    10    1
     9     4     5   ar
    10     5    16    1
    11    14    18    1
    12    19    20   ar
    13    20    26    1
    14    25    26    1
    15    21    22   ar
    16    23    24    1
    17    23    18   ar
    18     6     7   ar
    19     8    12    1
    20     8     3   ar
    21    16    14   am
    22    12     9   am
    23    27    28    2
    24     3     4   ar
    25     5     6   ar
    26    14    15    2
    27    18    19   ar
    28    20    21   ar
    29    22    23   ar
    30     7     8   ar
    31     9    11    2
    32    16    17    1
    33    12    13    1
@<TRIPOS>MOLECULE
MolPort-035-706-971 CSSS03437789226 MCULE-7193240938 PubChem-91938296
 31 33 0 0 0
SMALL
GASTEIGER

@<TRIPOS>ATOM
      1 C          15.1184   43.0459    6.9933 C.3     1  UNL1        0.2880
      2 C          15.5407   43.2737    5.5488 C.3     1  UNL1        0.0650
      3 C          15.5210   40.8599    8.1723 C.ar    1  UNL1        0.1542
      4 C          15.1894   39.5072    8.2924 C.ar    1  UNL1        0.0529
      5 C          15.7716   38.7192    9.2918 C.ar    1  UNL1        0.0537
      6 C          16.6972   39.3005   10.1722 C.ar    1  UNL1        0.0162
      7 C          17.0336   40.6518   10.0534 C.ar    1  UNL1        0.0190
      8 C          16.4445   41.4298    9.0542 C.ar    1  UNL1        0.0850
      9 C          16.1837   43.6126    7.9108 C.2     1  UNL1        0.2732
     10 O          14.9289   41.6324    7.1673 O.3     1  UNL1       -0.4618
     11 O          16.5302   44.8200    7.8058 O.2     1  UNL1       -0.2704
     12 N          16.7905   42.8026    8.9174 N.am    1  UNL1       -0.2783
     13 H          17.4566   43.1990    9.5244 H       1  UNL1        0.1551
     14 C          15.4299   36.3660    8.3216 C.2     1  UNL1        0.2503
     15 O          15.8563   36.6880    7.1790 O.2     1  UNL1       -0.2698
     16 N          15.4043   37.3359    9.3787 N.am    1  UNL1       -0.2803
     17 H          15.1016   37.0169   10.2595 H       1  UNL1        0.1552
     18 C          15.0044   34.9661    8.5650 C.ar    1  UNL1        0.0647
     19 C          15.8364   33.9385    8.0915 C.ar    1  UNL1        0.0115
     20 C          15.5095   32.5960    8.2911 C.ar    1  UNL1        0.0254
     21 C          14.3415   32.2592    8.9741 C.ar    1  UNL1        0.0070
     22 C          13.4959   33.2644    9.4433 C.ar    1  UNL1        0.0120
     23 C          13.8105   34.6133    9.2456 C.ar    1  UNL1        0.0621
     24 CL         12.6355   35.7883    9.8210 Cl      1  UNL1       -0.0821
     25 C          15.9352   31.4179    6.0037 C.3     1  UNL1        0.0742
     26 S          16.5979   31.3114    7.6906 S.3     1  UNL1       -0.1127
     27 C          13.8142   43.7458    7.2632 C.2     1  UNL1        0.3623
     28 O          13.4935   44.7707    6.5984 O.2     1  UNL1       -0.2457
     29 O          12.9862   43.2858    8.2930 O.3     1  UNL1       -0.4458
     30 C          11.1899   42.0554    9.3364 C.3     1  UNL1        0.0513
     31 C          12.1139   42.1727    8.1381 C.3     1  UNL1        0.2087
@<TRIPOS>BOND
     1    30    31    1
     2    31    29    1
     3    27    29    1
     4     1    27    1
     5     1     2    1
     6     1    10    1
     7     1     9    1
     8     3    10    1
     9     4     5   ar
    10     5    16    1
    11    14    18    1
    12    19    20   ar
    13    20    26    1
    14    25    26    1
    15    21    22   ar
    16    23    24    1
    17    23    18   ar
    18     6     7   ar
    19     8    12    1
    20     8     3   ar
    21    16    14   am
    22    12     9   am
    23    27    28    2
    24     3     4   ar
    25     5     6   ar
    26    14    15    2
    27    18    19   ar
    28    20    21   ar
    29    22    23   ar
    30     7     8   ar
    31     9    11    2
    32    16    17    1
    33    12    13    1
@<TRIPOS>MOLECULE
MolPort-035-706-971 CSSS03437789226 MCULE-7193240938 PubChem-91938296
 31 33 0 0 0
SMALL
GASTEIGER

@<TRIPOS>ATOM
      1 C           9.4324   40.2294    6.5184 C.3     1  UNL1        0.2880
      2 C          10.8054   39.9280    7.1021 C.3     1  UNL1        0.0650
      3 C           7.5923   41.2533    7.8955 C.ar    1  UNL1        0.1542
      4 C           6.6648   41.0924    8.9290 C.ar    1  UNL1        0.0529
      5 C           5.7563   42.1125    9.2331 C.ar    1  UNL1        0.0537
      6 C           5.7879   43.3036    8.4915 C.ar    1  UNL1        0.0162
      7 C           6.7158   43.4695    7.4595 C.ar    1  UNL1        0.0190
      8 C           7.6161   42.4438    7.1624 C.ar    1  UNL1        0.0850
      9 C           9.4874   41.5621    5.7983 C.2     1  UNL1        0.2732
     10 O           8.4929   40.2227    7.6053 O.3     1  UNL1       -0.4618
     11 O          10.3348   41.7516    4.8846 O.2     1  UNL1       -0.2704
     12 N           8.5725   42.6087    6.1226 N.am    1  UNL1       -0.2783
     13 H           8.6038   43.4549    5.6204 H       1  UNL1        0.1551
     14 C           3.5599   42.5622   10.4858 C.2     1  UNL1        0.2503
     15 O           3.1444   43.3856    9.6252 O.2     1  UNL1       -0.2698
     16 N           4.8228   41.9064   10.3018 N.am    1  UNL1       -0.2803
     17 H           5.0759   41.2428   10.9836 H       1  UNL1        0.1552
     18 C           2.7054   42.2496   11.6571 C.ar    1  UNL1        0.0647
     19 C           1.8541   43.2601   12.1332 C.ar    1  UNL1        0.0115
     20 C           1.0120   43.0390   13.2245 C.ar    1  UNL1        0.0254
     21 C           1.0056   41.7963   13.8569 C.ar    1  UNL1        0.0070
     22 C           1.8509   40.7824   13.4065 C.ar    1  UNL1        0.0120
     23 C           2.7027   40.9934   12.3166 C.ar    1  UNL1        0.0621
     24 CL          3.7705   39.6652   11.8833 Cl      1  UNL1       -0.0821
     25 C          -0.3648   43.5164   15.3873 C.3     1  UNL1        0.0742
     26 S          -0.0719   44.3404   13.7963 S.3     1  UNL1       -0.1127
     27 C           9.0450   39.1563    5.5374 C.2     1  UNL1        0.3623
     28 O           9.0044   37.9475    5.9010 O.2     1  UNL1       -0.2457
     29 O           8.7848   39.5015    4.2067 O.3     1  UNL1       -0.4458
     30 C          10.9073   38.5731    3.5268 C.3     1  UNL1        0.0513
     31 C           9.4914   38.9297    3.1124 C.3     1  UNL1        0.2087
@<TRIPOS>BOND
     1    30    31    1
     2    31    29    1
     3    27    29    1
     4     1    27    1
     5     1     2    1
     6     1    10    1
     7     1     9    1
     8     3    10    1
     9     4     5   ar
    10     5    16    1
    11    14    18    1
    12    19    20   ar
    13    20    26    1
    14    25    26    1
    15    21    22   ar
    16    23    24    1
    17    23    18   ar
    18     6     7   ar
    19     8    12    1
    20     8     3   ar
    21    16    14   am
    22    12     9   am
    23    27    28    2
    24     3     4   ar
    25     5     6   ar
    26    14    15    2
    27    18    19   ar
    28    20    21   ar
    29    22    23   ar
    30     7     8   ar
    31     9    11    2
    32    16    17    1
    33    12    13    1
@<TRIPOS>MOLECULE
MolPort-035-706-971 CSSS03437789226 MCULE-7193240938 PubChem-91938296
 31 33 0 0 0
SMALL
GASTEIGER

@<TRIPOS>ATOM
      1 C          14.3761   38.6947   10.6289 C.3     1  UNL1        0.2880
      2 C          15.0166   38.7828   12.0069 C.3     1  UNL1        0.0650
      3 C          12.5126   40.2309    9.9229 C.ar    1  UNL1        0.1542
      4 C          11.1736   40.6045   10.0703 C.ar    1  UNL1        0.0529
      5 C          10.6227   41.6060    9.2629 C.ar    1  UNL1        0.0537
      6 C          11.4306   42.2365    8.3038 C.ar    1  UNL1        0.0162
      7 C          12.7705   41.8679    8.1556 C.ar    1  UNL1        0.0190
      8 C          13.3094   40.8651    8.9648 C.ar    1  UNL1        0.0850
      9 C          15.2342   39.4580    9.6396 C.2     1  UNL1        0.2732
     10 O          13.0462   39.2274   10.7388 O.3     1  UNL1       -0.4618
     11 O          16.4538   39.1687    9.5070 O.2     1  UNL1       -0.2704
     12 N          14.6754   40.4924    8.8300 N.am    1  UNL1       -0.2783
     13 H          15.2425   40.9534    8.1704 H       1  UNL1        0.1551
     14 C           8.1431   41.6209    8.5942 C.2     1  UNL1        0.2503
     15 O           8.3298   40.8957    7.5790 O.2     1  UNL1       -0.2698
     16 N           9.2454   41.9593    9.4481 N.am    1  UNL1       -0.2803
     17 H           9.0330   42.4921   10.2483 H       1  UNL1        0.1552
     18 C           6.7675   42.0738    8.9144 C.ar    1  UNL1        0.0647
     19 C           6.0651   41.3761    9.9106 C.ar    1  UNL1        0.0115
     20 C           4.7702   41.7489   10.2755 C.ar    1  UNL1        0.0254
     21 C           4.1565   42.8331    9.6493 C.ar    1  UNL1        0.0070
     22 C           4.8326   43.5330    8.6500 C.ar    1  UNL1        0.0120
     23 C           6.1290   43.1661    8.2724 C.ar    1  UNL1        0.0621
     24 CL          6.8533   44.0786    6.9551 Cl      1  UNL1       -0.0821
     25 C           2.6384   42.1371   11.7268 C.3     1  UNL1        0.0742
     26 S           3.9088   40.8509   11.5589 S.3     1  UNL1       -0.1127
     27 C          14.2870   37.2567   10.1954 C.2     1  UNL1        0.3623
     28 O          15.1516   36.4215   10.5825 O.2     1  UNL1       -0.2457
     29 O          13.2719   36.8644    9.3160 O.3     1  UNL1       -0.4458
     30 C          11.7766   35.6974   10.8099 C.3     1  UNL1        0.0513
     31 C          11.9126   36.7421    9.7174 C.3     1  UNL1        0.2087
@<TRIPOS>BOND
     1    30    31    1
     2    31    29    1
     3    27    29    1
     4     1    27    1
     5     1     2    1
     6     1    10    1
     7     1     9    1
     8     3    10    1
     9     4     5   ar
    10     5    16    1
    11    14    18    1
    12    19    20   ar
    13    20    26    1
    14    25    26    1
    15    21    22   ar
    16    23    24    1
    17    23    18   ar
    18     6     7   ar
    19     8    12    1
    20     8     3   ar
    21    16    14   am
    22    12     9   am
    23    27    28    2
    24     3     4   ar
    25     5     6   ar
    26    14    15    2
    27    18    19   ar
    28    20    21   ar
    29    22    23   ar
    30     7     8   ar
    31     9    11    2
    32    16    17    1
    33    12    13    1
@<TRIPOS>MOLECULE
MolPort-035-706-971 CSSS03437789226 MCULE-7193240938 PubChem-91938296
 31 33 0 0 0
SMALL
GASTEIGER

@<TRIPOS>ATOM
      1 C           6.2670   42.9003    8.1068 C.3     1  UNL1        0.2880
      2 C           5.9582   42.9954    6.6194 C.3     1  UNL1        0.0650
      3 C           8.5623   42.3204    8.9589 C.ar    1  UNL1        0.1542
      4 C           9.5518   41.3444    9.1091 C.ar    1  UNL1        0.0529
      5 C          10.7299   41.6291    9.8087 C.ar    1  UNL1        0.0537
      6 C          10.9110   42.9087   10.3561 C.ar    1  UNL1        0.0162
      7 C           9.9254   43.8881   10.2054 C.ar    1  UNL1        0.0190
      8 C           8.7521   43.5924    9.5077 C.ar    1  UNL1        0.0850
      9 C           6.5388   44.2925    8.6412 C.2     1  UNL1        0.2732
     10 O           7.3908   42.0178    8.2565 O.3     1  UNL1       -0.4618
     11 O           5.6815   45.2045    8.4921 O.2     1  UNL1       -0.2704
     12 N           7.7493   44.5867    9.3381 N.am    1  UNL1       -0.2783
     13 H           7.8918   45.4888    9.7058 H       1  UNL1        0.1551
     14 C          12.9375   40.4715    9.1908 C.2     1  UNL1        0.2503
     15 O          13.2558   41.3524    8.3459 O.2     1  UNL1       -0.2698
     16 N          11.7193   40.5994    9.9381 N.am    1  UNL1       -0.2803
     17 H          11.5438   39.9047   10.6132 H       1  UNL1        0.1552
     18 C          13.8603   39.3355    9.4314 C.ar    1  UNL1        0.0647
     19 C          13.2944   38.0680    9.6458 C.ar    1  UNL1        0.0115
     20 C          14.0974   36.9479    9.8685 C.ar    1  UNL1        0.0254
     21 C          15.4856   37.0784    9.8762 C.ar    1  UNL1        0.0070
     22 C          16.0676   38.3301    9.6759 C.ar    1  UNL1        0.0120
     23 C          15.2733   39.4608    9.4562 C.ar    1  UNL1        0.0621
     24 CL         16.1168   40.9943    9.2847 Cl      1  UNL1       -0.0821
     25 C          11.7370   36.0695   10.5451 C.3     1  UNL1        0.0742
     26 S          13.3471   35.3453   10.1217 S.3     1  UNL1       -0.1127
     27 C           5.0904   42.3139    8.8387 C.2     1  UNL1        0.3623
     28 O           3.9712   42.8986    8.8144 O.2     1  UNL1       -0.2457
     29 O           5.2600   41.1468    9.5915 O.3     1  UNL1       -0.4458
     30 C           3.9711   40.3574   11.4743 C.3     1  UNL1        0.0513
     31 C           5.1915   41.1324   11.0124 C.3     1  UNL1        0.2087
@<TRIPOS>BOND
     1    30    31    1
     2    31    29    1
     3    27    29    1
     4     1    27    1
     5     1     2    1
     6     1    10    1
     7     1     9    1
     8     3    10    1
     9     4     5   ar
    10     5    16    1
    11    14    18    1
    12    19    20   ar
    13    20    26    1
    14    25    26    1
    15    21    22   ar
    16    23    24    1
    17    23    18   ar
    18     6     7   ar
    19     8    12    1
    20     8     3   ar
    21    16    14   am
    22    12     9   am
    23    27    28    2
    24     3     4   ar
    25     5     6   ar
    26    14    15    2
    27    18    19   ar
    28    20    21   ar
    29    22    23   ar
    30     7     8   ar
    31     9    11    2
    32    16    17    1
    33    12    13    1
@<TRIPOS>MOLECULE
MolPort-035-706-971 CSSS03437789226 MCULE-7193240938 PubChem-91938296
 31 33 0 0 0
SMALL
GASTEIGER

@<TRIPOS>ATOM
      1 C          14.8507   38.5752   10.6094 C.3     1  UNL1        0.2880
      2 C          15.4549   38.6432   12.0048 C.3     1  UNL1        0.0650
      3 C          12.7950   39.8825    9.9801 C.ar    1  UNL1        0.1542
      4 C          11.4145   40.0492   10.1241 C.ar    1  UNL1        0.0529
      5 C          10.7357   41.0235    9.3836 C.ar    1  UNL1        0.0537
      6 C          11.4566   41.8368    8.4955 C.ar    1  UNL1        0.0162
      7 C          12.8373   41.6752    8.3510 C.ar    1  UNL1        0.0190
      8 C          13.5045   40.6978    9.0929 C.ar    1  UNL1        0.0850
      9 C          15.6026   39.5291    9.7025 C.2     1  UNL1        0.2732
     10 O          13.4570   38.9032   10.7285 O.3     1  UNL1       -0.4618
     11 O          16.8527   39.4275    9.5769 O.2     1  UNL1       -0.2704
     12 N          14.9114   40.5349    8.9621 N.am    1  UNL1       -0.2783
     13 H          15.4145   41.1229    8.3536 H       1  UNL1        0.1551
     14 C           8.6222   42.2953   10.0987 C.2     1  UNL1        0.2503
     15 O           9.2600   43.3344   10.4224 O.2     1  UNL1       -0.2698
     16 N           9.3198   41.1617    9.5629 N.am    1  UNL1       -0.2803
     17 H           8.7660   40.3954    9.2884 H       1  UNL1        0.1552
     18 C           7.1453   42.2833   10.2350 C.ar    1  UNL1        0.0647
     19 C           6.4014   43.0867    9.3555 C.ar    1  UNL1        0.0115
     20 C           5.0070   43.1209    9.4143 C.ar    1  UNL1        0.0254
     21 C           4.3319   42.3449   10.3557 C.ar    1  UNL1        0.0070
     22 C           5.0522   41.5480   11.2455 C.ar    1  UNL1        0.0120
     23 C           6.4501   41.5089   11.1993 C.ar    1  UNL1        0.0621
     24 CL          7.2506   40.5215   12.4145 Cl      1  UNL1       -0.0821
     25 C           5.5090   44.3215    7.1543 C.3     1  UNL1        0.0742
     26 S           4.0880   44.1413    8.2699 S.3     1  UNL1       -0.1127
     27 C          14.9742   37.1783   10.0642 C.2     1  UNL1        0.3623
     28 O          15.6279   36.9652    9.0047 O.2     1  UNL1       -0.2457
     29 O          14.3134   36.1269   10.7086 O.3     1  UNL1       -0.4458
     30 C          11.9229   35.9376   10.4273 C.3     1  UNL1        0.0513
     31 C          13.2863   35.3668   10.0830 C.3     1  UNL1        0.2087
@<TRIPOS>BOND
     1    30    31    1
     2    31    29    1
     3    27    29    1
     4     1    27    1
     5     1     2    1
     6     1    10    1
     7     1     9    1
     8     3    10    1
     9     4     5   ar
    10     5    16    1
    11    14    18    1
    12    19    20   ar
    13    20    26    1
    14    25    26    1
    15    21    22   ar
    16    23    24    1
    17    23    18   ar
    18     6     7   ar
    19     8    12    1
    20     8     3   ar
    21    16    14   am
    22    12     9   am
    23    27    28    2
    24     3     4   ar
    25     5     6   ar
    26    14    15    2
    27    18    19   ar
    28    20    21   ar
    29    22    23   ar
    30     7     8   ar
    31     9    11    2
    32    16    17    1
    33    12    13    1
@<TRIPOS>MOLECULE
MolPort-035-706-971 CSSS03437789226 MCULE-7193240938 PubChem-91938296
 31 33 0 0 0
SMALL
GASTEIGER

@<TRIPOS>ATOM
      1 C           6.9041   42.8992    8.0579 C.3     1  UNL1        0.2880
      2 C           6.7125   43.2903    6.5994 C.3     1  UNL1        0.0650
      3 C           8.9210   41.6150    8.8413 C.ar    1  UNL1        0.1542
      4 C           9.6147   40.4013    8.8509 C.ar    1  UNL1        0.0529
      5 C          10.7861   40.2588    9.6031 C.ar    1  UNL1        0.0537
      6 C          11.2617   41.3501   10.3465 C.ar    1  UNL1        0.0162
      7 C          10.5728   42.5661   10.3369 C.ar    1  UNL1        0.0190
      8 C           9.4030   42.6966    9.5849 C.ar    1  UNL1        0.0850
      9 C           7.4970   44.0758    8.8073 C.2     1  UNL1        0.2732
     10 O           7.7515   41.7392    8.0836 O.3     1  UNL1       -0.4618
     11 O           6.9142   45.1934    8.7906 O.2     1  UNL1       -0.2704
     12 N           8.7023   43.9341    9.5588 N.am    1  UNL1       -0.2783
     13 H           9.0529   44.7022   10.0651 H       1  UNL1        0.1551
     14 C          12.7741   38.7273    9.0568 C.2     1  UNL1        0.2503
     15 O          13.4726   39.6673    8.5882 O.2     1  UNL1       -0.2698
     16 N          11.4670   38.9970    9.5838 N.am    1  UNL1       -0.2803
     17 H          10.9853   38.2325    9.9747 H       1  UNL1        0.1552
     18 C          13.3417   37.3576    9.0979 C.ar    1  UNL1        0.0647
     19 C          14.5754   37.1421    8.4623 C.ar    1  UNL1        0.0115
     20 C          15.1790   35.8833    8.4667 C.ar    1  UNL1        0.0254
     21 C          14.5565   34.8164    9.1136 C.ar    1  UNL1        0.0070
     22 C          13.3258   35.0064    9.7419 C.ar    1  UNL1        0.0120
     23 C          12.7088   36.2623    9.7404 C.ar    1  UNL1        0.0621
     24 CL         11.1285   36.3639   10.5050 Cl      1  UNL1       -0.0821
     25 C          15.9836   35.1890    6.0852 C.3     1  UNL1        0.0742
     26 S          16.7577   35.6453    7.6628 S.3     1  UNL1       -0.1127
     27 C           5.5776   42.5430    8.6723 C.2     1  UNL1        0.3623
     28 O           4.7548   43.4510    8.9782 O.2     1  UNL1       -0.2457
     29 O           5.2863   41.2036    8.9529 O.3     1  UNL1       -0.4458
     30 C           2.9413   41.1288    9.5225 C.3     1  UNL1        0.0513
     31 C           4.3600   40.8136    9.9597 C.3     1  UNL1        0.2087
@<TRIPOS>BOND
     1    30    31    1
     2    31    29    1
     3    27    29    1
     4     1    27    1
     5     1     2    1
     6     1    10    1
     7     1     9    1
     8     3    10    1
     9     4     5   ar
    10     5    16    1
    11    14    18    1
    12    19    20   ar
    13    20    26    1
    14    25    26    1
    15    21    22   ar
    16    23    24    1
    17    23    18   ar
    18     6     7   ar
    19     8    12    1
    20     8     3   ar
    21    16    14   am
    22    12     9   am
    23    27    28    2
    24     3     4   ar
    25     5     6   ar
    26    14    15    2
    27    18    19   ar
    28    20    21   ar
    29    22    23   ar
    30     7     8   ar
    31     9    11    2
    32    16    17    1
    33    12    13    1
@<TRIPOS>MOLECULE
MolPort-035-706-971 CSSS03437789226 MCULE-7193240938 PubChem-91938296
 31 33 0 0 0
SMALL
GASTEIGER

@<TRIPOS>ATOM
      1 C           5.3512   42.2662    9.6669 C.3     1  UNL1        0.2880
      2 C           5.0219   41.9546   11.1199 C.3     1  UNL1        0.0650
      3 C           7.5982   41.7385    8.6651 C.ar    1  UNL1        0.1542
      4 C           8.9631   42.0355    8.6103 C.ar    1  UNL1        0.0529
      5 C           9.7997   41.3676    7.7089 C.ar    1  UNL1        0.0537
      6 C           9.2546   40.3911    6.8608 C.ar    1  UNL1        0.0162
      7 C           7.8911   40.0892    6.9148 C.ar    1  UNL1        0.0190
      8 C           7.0646   40.7638    7.8163 C.ar    1  UNL1        0.0850
      9 C           4.8198   41.1475    8.7928 C.2     1  UNL1        0.2732
     10 O           6.7770   42.4164    9.5725 O.3     1  UNL1       -0.4618
     11 O           3.6006   40.8319    8.8432 O.2     1  UNL1       -0.2704
     12 N           5.6782   40.4541    7.8874 N.am    1  UNL1       -0.2783
     13 H           5.3061   39.7529    7.3050 H       1  UNL1        0.1551
     14 C          12.2887   40.8751    8.1065 C.2     1  UNL1        0.2503
     15 O          12.0744   39.6974    8.5045 O.2     1  UNL1       -0.2698
     16 N          11.1938   41.7020    7.6865 N.am    1  UNL1       -0.2803
     17 H          11.4250   42.5964    7.3460 H       1  UNL1        0.1552
     18 C          13.6851   41.3698    8.0347 C.ar    1  UNL1        0.0647
     19 C          13.9659   42.4048    7.1279 C.ar    1  UNL1        0.0115
     20 C          15.2536   42.9310    7.0101 C.ar    1  UNL1        0.0254
     21 C          16.2844   42.4302    7.8044 C.ar    1  UNL1        0.0070
     22 C          16.0291   41.3952    8.7039 C.ar    1  UNL1        0.0120
     23 C          14.7437   40.8566    8.8278 C.ar    1  UNL1        0.0621
     24 CL         14.5583   39.5107    9.9442 Cl      1  UNL1       -0.0821
     25 C          17.3736   44.0340    5.9660 C.3     1  UNL1        0.0742
     26 S          15.5753   44.2595    5.8581 S.3     1  UNL1       -0.1127
     27 C           4.7003   43.5600    9.2591 C.2     1  UNL1        0.3623
     28 O           3.4460   43.6263    9.1269 O.2     1  UNL1       -0.2457
     29 O           5.4992   44.6726    8.9737 O.3     1  UNL1       -0.4458
     30 C           7.8047   45.3895    8.9596 C.3     1  UNL1        0.0513
     31 C           6.7292   44.5738    8.2658 C.3     1  UNL1        0.2087
@<TRIPOS>BOND
     1    30    31    1
     2    31    29    1
     3    27    29    1
     4     1    27    1
     5     1     2    1
     6     1    10    1
     7     1     9    1
     8     3    10    1
     9     4     5   ar
    10     5    16    1
    11    14    18    1
    12    19    20   ar
    13    20    26    1
    14    25    26    1
    15    21    22   ar
    16    23    24    1
    17    23    18   ar
    18     6     7   ar
    19     8    12    1
    20     8     3   ar
    21    16    14   am
    22    12     9   am
    23    27    28    2
    24     3     4   ar
    25     5     6   ar
    26    14    15    2
    27    18    19   ar
    28    20    21   ar
    29    22    23   ar
    30     7     8   ar
    31     9    11    2
    32    16    17    1
    33    12    13    1
