@<TRIPOS>MOLECULE
MolPort-015-143-990 169794747 LN00192672 MCULE-4035326371 PubChem-160066243 PubChem-53217247 ZINC000169794747
 22 23 0 0 0
SMALL
GASTEIGER

@<TRIPOS>ATOM
      1 C          14.6565   41.1469    8.1639 C.ar    1  UNL1        0.0000
      2 C          14.3338   42.0876    7.1612 C.ar    1  UNL1        0.0000
      3 C          13.0416   42.1093    6.6258 C.ar    1  UNL1        0.0000
      4 C          12.0541   41.2441    7.1050 C.ar    1  UNL1        0.0000
      5 C          12.3616   40.3396    8.1236 C.ar    1  UNL1        0.0000
      6 C          13.6548   40.2875    8.6462 C.ar    1  UNL1        0.0000
      7 C           8.7120   41.1106    7.6298 C.3     1  UNL1        0.0000
      8 C           8.8972   40.9524    9.1404 C.3     1  UNL1        0.0000
      9 C           7.2950   41.6386    7.4237 C.3     1  UNL1        0.0000
     10 C           9.0147   39.7882    6.8097 C.3     1  UNL1        0.0000
     11 C           9.4437   38.6078    7.6840 C.3     1  UNL1        0.0000
     12 C           7.8259   39.3023    5.9854 C.3     1  UNL1        0.0000
     13 O           9.5999   42.0964    7.1731 O.3     1  UNL1        0.0000
     14 O          10.0562   40.0822    5.9169 O.3     1  UNL1        0.0000
     15 B          10.6083   41.2915    6.5042 B       1  UNL1        0.0000
     16 C          15.0165   44.2487    6.0019 C.2     1  UNL1        0.0000
     17 C          16.1250   45.1962    5.7174 C.3     1  UNL1        0.0000
     18 O          13.8434   44.5424    5.6501 O.2     1  UNL1        0.0000
     19 N          15.3062   42.9905    6.6187 N.am    1  UNL1        0.0000
     20 H          16.2519   42.7226    6.6753 H       1  UNL1        0.0000
     21 C          16.8455   42.1693    8.7143 C.3     1  UNL1        0.0000
     22 O          15.9678   41.0539    8.6442 O.3     1  UNL1        0.0000
@<TRIPOS>BOND
     1    21    22    1
     2     1    22    1
     3     2    19    1
     4     2     3   ar
     5    17    16    1
     6     4     5   ar
     7     4    15    1
     8     6     1   ar
     9     7    13    1
    10     7     8    1
    11     7     9    1
    12     7    10    1
    13    10    11    1
    14    10    12    1
    15    10    14    1
    16    19    16   am
    17    15    13    1
    18    15    14    1
    19     1     2   ar
    20    16    18    2
    21     3     4   ar
    22     5     6   ar
    23    19    20    1
@<TRIPOS>MOLECULE
MolPort-015-143-990 169794747 LN00192672 MCULE-4035326371 PubChem-160066243 PubChem-53217247 ZINC000169794747
 22 23 0 0 0
SMALL
GASTEIGER

@<TRIPOS>ATOM
      1 C          17.0574   41.8714    8.4251 C.ar    1  UNL1        0.0000
      2 C          15.8087   42.1116    7.8107 C.ar    1  UNL1        0.0000
      3 C          14.6840   41.3933    8.2302 C.ar    1  UNL1        0.0000
      4 C          14.7718   40.4767    9.2816 C.ar    1  UNL1        0.0000
      5 C          15.9981   40.2666    9.9158 C.ar    1  UNL1        0.0000
      6 C          17.1342   40.9552    9.4877 C.ar    1  UNL1        0.0000
      7 C          11.6068   39.4703    8.6235 C.3     1  UNL1        0.0000
      8 C          11.6137   40.1510    7.2532 C.3     1  UNL1        0.0000
      9 C          10.5185   38.4019    8.5670 C.3     1  UNL1        0.0000
     10 C          11.4342   40.4789    9.8342 C.3     1  UNL1        0.0000
     11 C          11.3168   41.9424    9.4026 C.3     1  UNL1        0.0000
     12 C          10.2091   40.1857   10.6956 C.3     1  UNL1        0.0000
     13 O          12.8339   38.8132    8.8005 O.3     1  UNL1        0.0000
     14 O          12.5671   40.3454   10.6510 O.3     1  UNL1        0.0000
     15 B          13.4994   39.6913    9.7483 B       1  UNL1        0.0000
     16 C          14.5139   43.8539    6.4808 C.2     1  UNL1        0.0000
     17 C          14.5923   44.9378    5.4677 C.3     1  UNL1        0.0000
     18 O          13.4268   43.6423    7.0805 O.2     1  UNL1        0.0000
     19 N          15.6578   43.0276    6.7184 N.am    1  UNL1        0.0000
     20 H          16.4031   43.0938    6.0785 H       1  UNL1        0.0000
     21 C          18.3467   43.9308    7.9382 C.3     1  UNL1        0.0000
     22 O          18.2072   42.5166    7.9554 O.3     1  UNL1        0.0000
@<TRIPOS>BOND
     1    21    22    1
     2     1    22    1
     3     2    19    1
     4     2     3   ar
     5    17    16    1
     6     4     5   ar
     7     4    15    1
     8     6     1   ar
     9     7    13    1
    10     7     8    1
    11     7     9    1
    12     7    10    1
    13    10    11    1
    14    10    12    1
    15    10    14    1
    16    19    16   am
    17    15    13    1
    18    15    14    1
    19     1     2   ar
    20    16    18    2
    21     3     4   ar
    22     5     6   ar
    23    19    20    1
@<TRIPOS>MOLECULE
MolPort-015-143-990 169794747 LN00192672 MCULE-4035326371 PubChem-160066243 PubChem-53217247 ZINC000169794747
 22 23 0 0 0
SMALL
GASTEIGER

@<TRIPOS>ATOM
      1 C          15.3430   42.2684    7.5160 C.ar    1  UNL1        0.0000
      2 C          15.3098   41.2191    8.4606 C.ar    1  UNL1        0.0000
      3 C          14.0857   40.6303    8.7948 C.ar    1  UNL1        0.0000
      4 C          12.9028   41.0352    8.1701 C.ar    1  UNL1        0.0000
      5 C          12.9398   42.0463    7.2075 C.ar    1  UNL1        0.0000
      6 C          14.1504   42.6623    6.8860 C.ar    1  UNL1        0.0000
      7 C          10.1228   39.3968    7.1455 C.3     1  UNL1        0.0000
      8 C          10.5836   39.4082    5.6866 C.3     1  UNL1        0.0000
      9 C           9.1063   38.2648    7.2662 C.3     1  UNL1        0.0000
     10 C           9.5690   40.7941    7.6489 C.3     1  UNL1        0.0000
     11 C           9.6093   41.8911    6.5827 C.3     1  UNL1        0.0000
     12 C           8.1271   40.7302    8.1447 C.3     1  UNL1        0.0000
     13 O          11.2194   39.0668    7.9563 O.3     1  UNL1        0.0000
     14 O          10.3700   41.1939    8.7291 O.3     1  UNL1        0.0000
     15 B          11.5427   40.3554    8.5458 B       1  UNL1        0.0000
     16 C          16.5176   39.7783   10.1770 C.2     1  UNL1        0.0000
     17 C          17.8233   39.2237   10.6187 C.3     1  UNL1        0.0000
     18 O          15.4596   39.4072   10.7507 O.2     1  UNL1        0.0000
     19 N          16.4862   40.7699    9.1457 N.am    1  UNL1        0.0000
     20 H          17.3437   41.1774    8.8851 H       1  UNL1        0.0000
     21 C          16.9745   44.0836    7.9444 C.3     1  UNL1        0.0000
     22 O          16.5468   42.9265    7.2389 O.3     1  UNL1        0.0000
@<TRIPOS>BOND
     1    21    22    1
     2     1    22    1
     3     2    19    1
     4     2     3   ar
     5    17    16    1
     6     4     5   ar
     7     4    15    1
     8     6     1   ar
     9     7    13    1
    10     7     8    1
    11     7     9    1
    12     7    10    1
    13    10    11    1
    14    10    12    1
    15    10    14    1
    16    19    16   am
    17    15    13    1
    18    15    14    1
    19     1     2   ar
    20    16    18    2
    21     3     4   ar
    22     5     6   ar
    23    19    20    1
@<TRIPOS>MOLECULE
MolPort-015-143-990 169794747 LN00192672 MCULE-4035326371 PubChem-160066243 PubChem-53217247 ZINC000169794747
 22 23 0 0 0
SMALL
GASTEIGER

@<TRIPOS>ATOM
      1 C          17.1284   41.6277    8.6854 C.ar    1  UNL1        0.0000
      2 C          15.7726   41.7536    8.3109 C.ar    1  UNL1        0.0000
      3 C          14.8181   40.9034    8.8794 C.ar    1  UNL1        0.0000
      4 C          15.1830   39.9644    9.8481 C.ar    1  UNL1        0.0000
      5 C          16.5175   39.8652   10.2476 C.ar    1  UNL1        0.0000
      6 C          17.4845   40.6874    9.6670 C.ar    1  UNL1        0.0000
      7 C          13.5098   37.0222    9.7655 C.3     1  UNL1        0.0000
      8 C          14.2917   36.5458    8.5397 C.3     1  UNL1        0.0000
      9 C          12.9588   35.7679   10.4379 C.3     1  UNL1        0.0000
     10 C          12.3936   38.0966    9.4302 C.3     1  UNL1        0.0000
     11 C          12.3167   38.4598    7.9455 C.3     1  UNL1        0.0000
     12 C          10.9900   37.6580    9.8380 C.3     1  UNL1        0.0000
     13 O          14.4083   37.6209   10.6617 O.3     1  UNL1        0.0000
     14 O          12.7017   39.2567   10.1566 O.3     1  UNL1        0.0000
     15 B          14.0991   39.0300   10.4849 B       1  UNL1        0.0000
     16 C          14.0971   42.6256    6.6042 C.2     1  UNL1        0.0000
     17 C          13.6617   43.7896    5.7899 C.3     1  UNL1        0.0000
     18 O          13.3938   41.5809    6.6193 O.2     1  UNL1        0.0000
     19 N          15.3387   42.6868    7.3129 N.am    1  UNL1        0.0000
     20 H          15.9454   43.4315    7.0972 H       1  UNL1        0.0000
     21 C          18.0865   43.8306    8.0775 C.3     1  UNL1        0.0000
     22 O          18.1058   42.4098    8.0593 O.3     1  UNL1        0.0000
@<TRIPOS>BOND
     1    21    22    1
     2     1    22    1
     3     2    19    1
     4     2     3   ar
     5    17    16    1
     6     4     5   ar
     7     4    15    1
     8     6     1   ar
     9     7    13    1
    10     7     8    1
    11     7     9    1
    12     7    10    1
    13    10    11    1
    14    10    12    1
    15    10    14    1
    16    19    16   am
    17    15    13    1
    18    15    14    1
    19     1     2   ar
    20    16    18    2
    21     3     4   ar
    22     5     6   ar
    23    19    20    1
@<TRIPOS>MOLECULE
MolPort-015-143-990 169794747 LN00192672 MCULE-4035326371 PubChem-160066243 PubChem-53217247 ZINC000169794747
 22 23 0 0 0
SMALL
GASTEIGER

@<TRIPOS>ATOM
      1 C           8.3258   41.5097   11.8827 C.ar    1  UNL1        0.0000
      2 C           7.2585   41.7513   10.9900 C.ar    1  UNL1        0.0000
      3 C           7.4968   41.7426    9.6115 C.ar    1  UNL1        0.0000
      4 C           8.7670   41.4505    9.1069 C.ar    1  UNL1        0.0000
      5 C           9.8145   41.1734    9.9878 C.ar    1  UNL1        0.0000
      6 C           9.5972   41.2075   11.3662 C.ar    1  UNL1        0.0000
      7 C           9.2408   39.6341    6.2893 C.3     1  UNL1        0.0000
      8 C           9.1088   38.3129    7.0497 C.3     1  UNL1        0.0000
      9 C           8.9454   39.3188    4.8256 C.3     1  UNL1        0.0000
     10 C          10.6346   40.3570    6.5068 C.3     1  UNL1        0.0000
     11 C          11.5794   39.6006    7.4434 C.3     1  UNL1        0.0000
     12 C          11.4068   40.5847    5.2103 C.3     1  UNL1        0.0000
     13 O           8.2423   40.5099    6.7418 O.3     1  UNL1        0.0000
     14 O          10.3672   41.6156    7.0661 O.3     1  UNL1        0.0000
     15 B           9.0130   41.4310    7.5601 B       1  UNL1        0.0000
     16 C           4.7373   41.4033   11.0451 C.2     1  UNL1        0.0000
     17 C           3.4746   41.6618   11.7842 C.3     1  UNL1        0.0000
     18 O           4.7249   40.6402   10.0432 O.2     1  UNL1        0.0000
     19 N           5.9377   42.0709   11.4464 N.am    1  UNL1        0.0000
     20 H           5.8491   42.8112   12.0893 H       1  UNL1        0.0000
     21 C           9.0963   41.2052   14.2180 C.3     1  UNL1        0.0000
     22 O           8.1214   41.6040   13.2640 O.3     1  UNL1        0.0000
@<TRIPOS>BOND
     1    21    22    1
     2     1    22    1
     3     2    19    1
     4     2     3   ar
     5    17    16    1
     6     4     5   ar
     7     4    15    1
     8     6     1   ar
     9     7    13    1
    10     7     8    1
    11     7     9    1
    12     7    10    1
    13    10    11    1
    14    10    12    1
    15    10    14    1
    16    19    16   am
    17    15    13    1
    18    15    14    1
    19     1     2   ar
    20    16    18    2
    21     3     4   ar
    22     5     6   ar
    23    19    20    1
@<TRIPOS>MOLECULE
MolPort-015-143-990 169794747 LN00192672 MCULE-4035326371 PubChem-160066243 PubChem-53217247 ZINC000169794747
 22 23 0 0 0
SMALL
GASTEIGER

@<TRIPOS>ATOM
      1 C          14.8025   40.6990    9.1004 C.ar    1  UNL1        0.0000
      2 C          14.2591   41.4881    8.0629 C.ar    1  UNL1        0.0000
      3 C          12.8704   41.5901    7.9289 C.ar    1  UNL1        0.0000
      4 C          12.0158   40.9600    8.8377 C.ar    1  UNL1        0.0000
      5 C          12.5524   40.2109    9.8870 C.ar    1  UNL1        0.0000
      6 C          13.9359   40.0770   10.0150 C.ar    1  UNL1        0.0000
      7 C           9.1944   40.0426    7.2063 C.3     1  UNL1        0.0000
      8 C           9.9635   39.0820    6.2970 C.3     1  UNL1        0.0000
      9 C           7.7402   39.5799    7.1880 C.3     1  UNL1        0.0000
     10 C           9.3727   41.5686    6.8158 C.3     1  UNL1        0.0000
     11 C          10.2875   41.7911    5.6094 C.3     1  UNL1        0.0000
     12 C           8.0556   42.2674    6.4905 C.3     1  UNL1        0.0000
     13 O           9.6690   39.8902    8.5179 O.3     1  UNL1        0.0000
     14 O           9.9334   42.2187    7.9253 O.3     1  UNL1        0.0000
     15 B          10.4632   41.0963    8.6813 B       1  UNL1        0.0000
     16 C          14.8122   43.4219    6.5023 C.2     1  UNL1        0.0000
     17 C          15.8698   44.1005    5.7096 C.3     1  UNL1        0.0000
     18 O          13.6746   43.9531    6.6027 O.2     1  UNL1        0.0000
     19 N          15.0828   42.1462    7.0916 N.am    1  UNL1        0.0000
     20 H          15.9027   41.6820    6.8062 H       1  UNL1        0.0000
     21 C          16.7922   39.6791   10.1687 C.3     1  UNL1        0.0000
     22 O          16.1870   40.5154    9.1919 O.3     1  UNL1        0.0000
@<TRIPOS>BOND
     1    21    22    1
     2     1    22    1
     3     2    19    1
     4     2     3   ar
     5    17    16    1
     6     4     5   ar
     7     4    15    1
     8     6     1   ar
     9     7    13    1
    10     7     8    1
    11     7     9    1
    12     7    10    1
    13    10    11    1
    14    10    12    1
    15    10    14    1
    16    19    16   am
    17    15    13    1
    18    15    14    1
    19     1     2   ar
    20    16    18    2
    21     3     4   ar
    22     5     6   ar
    23    19    20    1
@<TRIPOS>MOLECULE
MolPort-015-143-990 169794747 LN00192672 MCULE-4035326371 PubChem-160066243 PubChem-53217247 ZINC000169794747
 22 23 0 0 0
SMALL
GASTEIGER

@<TRIPOS>ATOM
      1 C          12.3811   40.7244    7.7187 C.ar    1  UNL1        0.0000
      2 C          11.9222   41.5974    6.7080 C.ar    1  UNL1        0.0000
      3 C          10.5482   41.8063    6.5486 C.ar    1  UNL1        0.0000
      4 C           9.6279   41.1996    7.4078 C.ar    1  UNL1        0.0000
      5 C          10.0827   40.3665    8.4322 C.ar    1  UNL1        0.0000
      6 C          11.4493   40.1264    8.5839 C.ar    1  UNL1        0.0000
      7 C           6.9388   43.1560    8.0436 C.3     1  UNL1        0.0000
      8 C           7.7823   44.1579    8.8347 C.3     1  UNL1        0.0000
      9 C           5.6845   43.9047    7.6019 C.3     1  UNL1        0.0000
     10 C           6.6257   41.8205    8.8381 C.3     1  UNL1        0.0000
     11 C           7.2345   41.7835   10.2416 C.3     1  UNL1        0.0000
     12 C           5.1328   41.5553    9.0107 C.3     1  UNL1        0.0000
     13 O           7.6447   42.7960    6.8857 O.3     1  UNL1        0.0000
     14 O           7.1603   40.7587    8.0931 O.3     1  UNL1        0.0000
     15 B           8.0936   41.4557    7.2242 B       1  UNL1        0.0000
     16 C          13.7136   43.3036    6.1079 C.2     1  UNL1        0.0000
     17 C          14.7600   43.6979    5.1296 C.3     1  UNL1        0.0000
     18 O          13.5971   43.9462    7.1848 O.2     1  UNL1        0.0000
     19 N          12.8152   42.2371    5.7869 N.am    1  UNL1        0.0000
     20 H          12.8100   41.9159    4.8563 H       1  UNL1        0.0000
     21 C          14.5062   40.7414    8.9932 C.3     1  UNL1        0.0000
     22 O          13.7461   40.4364    7.8318 O.3     1  UNL1        0.0000
@<TRIPOS>BOND
     1    21    22    1
     2     1    22    1
     3     2    19    1
     4     2     3   ar
     5    17    16    1
     6     4     5   ar
     7     4    15    1
     8     6     1   ar
     9     7    13    1
    10     7     8    1
    11     7     9    1
    12     7    10    1
    13    10    11    1
    14    10    12    1
    15    10    14    1
    16    19    16   am
    17    15    13    1
    18    15    14    1
    19     1     2   ar
    20    16    18    2
    21     3     4   ar
    22     5     6   ar
    23    19    20    1
@<TRIPOS>MOLECULE
MolPort-015-143-990 169794747 LN00192672 MCULE-4035326371 PubChem-160066243 PubChem-53217247 ZINC000169794747
 22 23 0 0 0
SMALL
GASTEIGER

@<TRIPOS>ATOM
      1 C           5.5847   43.7840    8.2742 C.ar    1  UNL1        0.0000
      2 C           6.2162   42.6640    8.8582 C.ar    1  UNL1        0.0000
      3 C           7.2863   42.0526    8.1964 C.ar    1  UNL1        0.0000
      4 C           7.7682   42.5659    6.9891 C.ar    1  UNL1        0.0000
      5 C           7.1693   43.6967    6.4299 C.ar    1  UNL1        0.0000
      6 C           6.0820   44.2990    7.0650 C.ar    1  UNL1        0.0000
      7 C           9.3125   39.7006    6.0574 C.3     1  UNL1        0.0000
      8 C           8.2089   38.8377    6.6727 C.3     1  UNL1        0.0000
      9 C          10.0161   38.8255    5.0239 C.3     1  UNL1        0.0000
     10 C          10.3009   40.3273    7.1266 C.3     1  UNL1        0.0000
     11 C           9.9575   39.9577    8.5714 C.3     1  UNL1        0.0000
     12 C          11.7570   39.9228    6.9144 C.3     1  UNL1        0.0000
     13 O           8.7129   40.7664    5.3694 O.3     1  UNL1        0.0000
     14 O          10.2260   41.7220    6.9944 O.3     1  UNL1        0.0000
     15 B           8.9766   41.8774    6.2686 B       1  UNL1        0.0000
     16 C           4.6547   41.1822   10.2171 C.2     1  UNL1        0.0000
     17 C           4.4498   40.4574   11.4978 C.3     1  UNL1        0.0000
     18 O           3.8253   41.0346    9.2809 O.2     1  UNL1        0.0000
     19 N           5.7590   42.0828   10.0863 N.am    1  UNL1        0.0000
     20 H           6.2452   42.3232   10.9079 H       1  UNL1        0.0000
     21 C           3.3433   44.8322    8.1407 C.3     1  UNL1        0.0000
     22 O           4.4571   44.3501    8.8800 O.3     1  UNL1        0.0000
@<TRIPOS>BOND
     1    21    22    1
     2     1    22    1
     3     2    19    1
     4     2     3   ar
     5    17    16    1
     6     4     5   ar
     7     4    15    1
     8     6     1   ar
     9     7    13    1
    10     7     8    1
    11     7     9    1
    12     7    10    1
    13    10    11    1
    14    10    12    1
    15    10    14    1
    16    19    16   am
    17    15    13    1
    18    15    14    1
    19     1     2   ar
    20    16    18    2
    21     3     4   ar
    22     5     6   ar
    23    19    20    1
@<TRIPOS>MOLECULE
MolPort-015-143-990 169794747 LN00192672 MCULE-4035326371 PubChem-160066243 PubChem-53217247 ZINC000169794747
 22 23 0 0 0
SMALL
GASTEIGER

@<TRIPOS>ATOM
      1 C           5.4594   43.8951    8.1017 C.ar    1  UNL1        0.0000
      2 C           5.5142   42.8080    9.0014 C.ar    1  UNL1        0.0000
      3 C           6.3056   41.6965    8.6929 C.ar    1  UNL1        0.0000
      4 C           7.0793   41.6700    7.5293 C.ar    1  UNL1        0.0000
      5 C           7.0558   42.7609    6.6578 C.ar    1  UNL1        0.0000
      6 C           6.2479   43.8638    6.9391 C.ar    1  UNL1        0.0000
      7 C          10.1314   40.2082    7.6331 C.3     1  UNL1        0.0000
      8 C          10.7506   41.4177    8.3366 C.3     1  UNL1        0.0000
      9 C          11.0471   39.0238    7.9291 C.3     1  UNL1        0.0000
     10 C           9.8775   40.4338    6.0848 C.3     1  UNL1        0.0000
     11 C          10.2913   41.8217    5.5902 C.3     1  UNL1        0.0000
     12 C          10.6069   39.4275    5.1993 C.3     1  UNL1        0.0000
     13 O           8.8879   39.9378    8.2241 O.3     1  UNL1        0.0000
     14 O           8.5017   40.2739    5.8616 O.3     1  UNL1        0.0000
     15 B           7.9710   40.4234    7.2063 B       1  UNL1        0.0000
     16 C           3.3853   42.2990   10.3013 C.2     1  UNL1        0.0000
     17 C           2.7853   42.0742   11.6417 C.3     1  UNL1        0.0000
     18 O           2.6844   42.1222    9.2699 O.2     1  UNL1        0.0000
     19 N           4.7330   42.7699   10.2029 N.am    1  UNL1        0.0000
     20 H           5.1591   43.0947   11.0288 H       1  UNL1        0.0000
     21 C           3.3774   45.1644    7.6607 C.3     1  UNL1        0.0000
     22 O           4.6032   44.9732    8.3538 O.3     1  UNL1        0.0000
@<TRIPOS>BOND
     1    21    22    1
     2     1    22    1
     3     2    19    1
     4     2     3   ar
     5    17    16    1
     6     4     5   ar
     7     4    15    1
     8     6     1   ar
     9     7    13    1
    10     7     8    1
    11     7     9    1
    12     7    10    1
    13    10    11    1
    14    10    12    1
    15    10    14    1
    16    19    16   am
    17    15    13    1
    18    15    14    1
    19     1     2   ar
    20    16    18    2
    21     3     4   ar
    22     5     6   ar
    23    19    20    1
@<TRIPOS>MOLECULE
MolPort-015-143-990 169794747 LN00192672 MCULE-4035326371 PubChem-160066243 PubChem-53217247 ZINC000169794747
 22 23 0 0 0
SMALL
GASTEIGER

@<TRIPOS>ATOM
      1 C          15.3300   40.8284    8.9905 C.ar    1  UNL1        0.0000
      2 C          14.7665   41.6698    8.0062 C.ar    1  UNL1        0.0000
      3 C          13.3754   41.7617    7.8915 C.ar    1  UNL1        0.0000
      4 C          12.5378   41.0688    8.7699 C.ar    1  UNL1        0.0000
      5 C          13.0941   40.2667    9.7685 C.ar    1  UNL1        0.0000
      6 C          14.4803   40.1431    9.8754 C.ar    1  UNL1        0.0000
      7 C           9.7247   42.8353    9.4251 C.3     1  UNL1        0.0000
      8 C          10.5129   43.9368   10.1367 C.3     1  UNL1        0.0000
      9 C           8.3990   43.4611    9.0010 C.3     1  UNL1        0.0000
     10 C           9.5491   41.5184   10.2899 C.3     1  UNL1        0.0000
     11 C          10.2095   41.5961   11.6683 C.3     1  UNL1        0.0000
     12 C           8.0897   41.1449   10.5335 C.3     1  UNL1        0.0000
     13 O          10.4149   42.4775    8.2570 O.3     1  UNL1        0.0000
     14 O          10.1401   40.4679    9.5720 O.3     1  UNL1        0.0000
     15 B          10.9822   41.1943    8.6364 B       1  UNL1        0.0000
     16 C          16.4798   43.4506    7.3947 C.2     1  UNL1        0.0000
     17 C          17.4368   43.9373    6.3677 C.3     1  UNL1        0.0000
     18 O          16.4437   44.0085    8.5233 O.2     1  UNL1        0.0000
     19 N          15.5722   42.3938    7.0672 N.am    1  UNL1        0.0000
     20 H          15.4947   42.1432    6.1183 H       1  UNL1        0.0000
     21 C          17.3552   39.9205   10.0925 C.3     1  UNL1        0.0000
     22 O          16.7174   40.6574    9.0582 O.3     1  UNL1        0.0000
@<TRIPOS>BOND
     1    21    22    1
     2     1    22    1
     3     2    19    1
     4     2     3   ar
     5    17    16    1
     6     4     5   ar
     7     4    15    1
     8     6     1   ar
     9     7    13    1
    10     7     8    1
    11     7     9    1
    12     7    10    1
    13    10    11    1
    14    10    12    1
    15    10    14    1
    16    19    16   am
    17    15    13    1
    18    15    14    1
    19     1     2   ar
    20    16    18    2
    21     3     4   ar
    22     5     6   ar
    23    19    20    1
