@<TRIPOS>MOLECULE
MolPort-007-714-551 ChemDiv-E002-1886 MCULE-8664044469 PubChem-22510854 ZINC000015671749 ZINC15671749
 29 31 0 0 0
SMALL
GASTEIGER

@<TRIPOS>ATOM
      1 C           6.3904   40.9027    9.1392 C.2     1  UNL1        0.3096
      2 O           5.5755   41.1260    8.2036 O.2     1  UNL1       -0.2521
      3 N           5.9769   40.9920   10.5085 N.am    1  UNL1       -0.2680
      4 N           7.7482   40.5550    8.8509 N.am    1  UNL1       -0.2468
      5 H           6.6636   40.8053   11.1888 H       1  UNL1        0.1564
      6 H           8.3470   40.3909    9.6149 H       1  UNL1        0.1584
      7 C           2.0717   41.9315   11.8894 C.ar    1  UNL1        0.1386
      8 C           3.1825   42.5309   12.4904 C.ar    1  UNL1        0.0382
      9 C           4.4730   42.2307   12.0454 C.ar    1  UNL1        0.0178
     10 C           4.6684   41.3246   10.9923 C.ar    1  UNL1        0.0518
     11 C           3.5567   40.7237   10.3930 C.ar    1  UNL1        0.0178
     12 C           2.2657   41.0228   10.8369 C.ar    1  UNL1        0.0382
     13 O           0.7926   42.2501   12.3602 O.3     1  UNL1       -0.4755
     14 C           0.9229   43.8281   14.1839 C.3     1  UNL1        0.0512
     15 C           0.4900   42.4435   13.7381 C.3     1  UNL1        0.2055
     16 C           8.3030   40.4273    7.5382 C.ar    1  UNL1        0.1904
     17 C           9.5978   40.0179    5.5627 C.ar    1  UNL1        0.1905
     18 N           7.6863   40.8349    6.4071 N.ar    1  UNL1       -0.1240
     19 N           8.4030   40.6013    5.3092 N.ar    1  UNL1       -0.1239
     20 S           9.8019   39.7360    7.2180 S.2     1  UNL1       -0.0151
     21 N          10.5119   39.6172    4.5236 N.pl3   1  UNL1       -0.2659
     22 C          10.5306   38.2821    3.9769 C.ar    1  UNL1        0.0531
     23 C          11.5171   37.9091    3.0481 C.ar    1  UNL1        0.0149
     24 C          11.5579   36.6091    2.5362 C.ar    1  UNL1        0.0013
     25 C          10.6177   35.6642    2.9533 C.ar    1  UNL1        0.0001
     26 C           9.6393   36.0180    3.8852 C.ar    1  UNL1        0.0013
     27 C           9.5992   37.3180    4.3968 C.ar    1  UNL1        0.0149
     28 C          11.4453   40.6131    4.0036 C.3     1  UNL1        0.0975
     29 C          11.7991   41.6147    5.0878 C.3     1  UNL1        0.0236
@<TRIPOS>BOND
     1    14    15    1
     2    15    13    1
     3     7    13    1
     4     8     9   ar
     5    10     3    1
     6    10    11   ar
     7     1     4   am
     8    16    20   ar
     9    17    20   ar
    10    17    21    1
    11    28    21    1
    12    28    29    1
    13    23    24   ar
    14    25    26   ar
    15    27    22   ar
    16    12     7   ar
    17     3     1   am
    18     4    16    1
    19    18    19   ar
    20    21    22    1
    21     7     8   ar
    22     9    10   ar
    23     1     2    2
    24    16    18   ar
    25    17    19   ar
    26    22    23   ar
    27    24    25   ar
    28    26    27   ar
    29    11    12   ar
    30     3     5    1
    31     4     6    1
@<TRIPOS>MOLECULE
MolPort-007-714-551 ChemDiv-E002-1886 MCULE-8664044469 PubChem-22510854 ZINC000015671749 ZINC15671749
 29 31 0 0 0
SMALL
GASTEIGER

@<TRIPOS>ATOM
      1 C           7.7502   41.2120    9.2800 C.2     1  UNL1        0.3096
      2 O           7.9984   42.0532   10.1857 O.2     1  UNL1       -0.2521
      3 N           6.4053   40.7920    9.0181 N.am    1  UNL1       -0.2680
      4 N           8.8102   40.6587    8.4939 N.am    1  UNL1       -0.2468
      5 H           6.2824   40.1329    8.2972 H       1  UNL1        0.1564
      6 H           8.5668   40.0049    7.7993 H       1  UNL1        0.1584
      7 C           2.9134   42.0496   11.0834 C.ar    1  UNL1        0.1386
      8 C           3.1434   42.4917    9.7772 C.ar    1  UNL1        0.0382
      9 C           4.2883   42.0851    9.0863 C.ar    1  UNL1        0.0178
     10 C           5.2194   41.2306    9.6952 C.ar    1  UNL1        0.0518
     11 C           4.9898   40.7905   11.0027 C.ar    1  UNL1        0.0178
     12 C           3.8454   41.1962   11.6950 C.ar    1  UNL1        0.0382
     13 O           1.7593   42.4775   11.7499 O.3     1  UNL1       -0.4755
     14 C           0.1945   42.8522   13.5511 C.3     1  UNL1        0.0512
     15 C           1.5352   42.2711   13.1409 C.3     1  UNL1        0.2055
     16 C          10.1965   40.9820    8.6393 C.ar    1  UNL1        0.1904
     17 C          12.5847   41.1771    8.5709 C.ar    1  UNL1        0.1905
     18 N          10.6715   41.9541    9.4487 N.ar    1  UNL1       -0.1240
     19 N          11.9978   42.0667    9.4054 N.ar    1  UNL1       -0.1239
     20 S          11.4324   40.2018    7.8081 S.2     1  UNL1       -0.0151
     21 N          14.0030   41.1553    8.3183 N.pl3   1  UNL1       -0.2659
     22 C          14.6606   42.1375    7.4907 C.ar    1  UNL1        0.0531
     23 C          15.9955   42.4980    7.7416 C.ar    1  UNL1        0.0149
     24 C          16.6472   43.4276    6.9263 C.ar    1  UNL1        0.0013
     25 C          15.9743   44.0018    5.8454 C.ar    1  UNL1        0.0001
     26 C          14.6512   43.6433    5.5774 C.ar    1  UNL1        0.0013
     27 C          14.0002   42.7135    6.3928 C.ar    1  UNL1        0.0149
     28 C          14.7983   40.0984    8.9379 C.3     1  UNL1        0.0975
     29 C          14.2917   39.8170   10.3408 C.3     1  UNL1        0.0236
@<TRIPOS>BOND
     1    14    15    1
     2    15    13    1
     3     7    13    1
     4     8     9   ar
     5    10     3    1
     6    10    11   ar
     7     1     4   am
     8    16    20   ar
     9    17    20   ar
    10    17    21    1
    11    28    21    1
    12    28    29    1
    13    23    24   ar
    14    25    26   ar
    15    27    22   ar
    16    12     7   ar
    17     3     1   am
    18     4    16    1
    19    18    19   ar
    20    21    22    1
    21     7     8   ar
    22     9    10   ar
    23     1     2    2
    24    16    18   ar
    25    17    19   ar
    26    22    23   ar
    27    24    25   ar
    28    26    27   ar
    29    11    12   ar
    30     3     5    1
    31     4     6    1
@<TRIPOS>MOLECULE
MolPort-007-714-551 ChemDiv-E002-1886 MCULE-8664044469 PubChem-22510854 ZINC000015671749 ZINC15671749
 29 31 0 0 0
SMALL
GASTEIGER

@<TRIPOS>ATOM
      1 C           7.6019   41.2678    9.4097 C.2     1  UNL1        0.3096
      2 O           7.8479   42.0530   10.3649 O.2     1  UNL1       -0.2521
      3 N           6.2575   40.8659    9.1187 N.am    1  UNL1       -0.2680
      4 N           8.6640   40.7611    8.5955 N.am    1  UNL1       -0.2468
      5 H           6.1363   40.2512    8.3593 H       1  UNL1        0.1564
      6 H           8.4222   40.1503    7.8622 H       1  UNL1        0.1584
      7 C           2.7222   42.0919   11.1284 C.ar    1  UNL1        0.1386
      8 C           3.5931   41.1893   11.7458 C.ar    1  UNL1        0.0382
      9 C           4.7600   40.7780   11.0956 C.ar    1  UNL1        0.0178
     10 C           5.0698   41.2647    9.8168 C.ar    1  UNL1        0.0518
     11 C           4.1969   42.1660    9.1989 C.ar    1  UNL1        0.0178
     12 C           3.0297   42.5782    9.8478 C.ar    1  UNL1        0.0382
     13 O           1.5599   42.4816   11.8041 O.3     1  UNL1       -0.4755
     14 C          -0.0215   42.6629   13.6206 C.3     1  UNL1        0.0512
     15 C           1.4258   42.4410   13.2211 C.3     1  UNL1        0.2055
     16 C          10.0501   41.0734    8.7645 C.ar    1  UNL1        0.1904
     17 C          12.4391   41.1408    8.9502 C.ar    1  UNL1        0.1905
     18 N          10.5225   42.3009    9.0741 N.ar    1  UNL1       -0.1240
     19 N          11.8502   42.3395    9.1706 N.ar    1  UNL1       -0.1239
     20 S          11.2911   39.9530    8.5868 S.2     1  UNL1       -0.0151
     21 N          13.8683   40.9581    8.9414 N.pl3   1  UNL1       -0.2659
     22 C          14.5495   40.1102    9.8895 C.ar    1  UNL1        0.0531
     23 C          15.9246   39.8546    9.7532 C.ar    1  UNL1        0.0149
     24 C          16.5964   39.0573   10.6841 C.ar    1  UNL1        0.0013
     25 C          15.9026   38.5127   11.7672 C.ar    1  UNL1        0.0001
     26 C          14.5383   38.7688   11.9215 C.ar    1  UNL1        0.0013
     27 C          13.8673   39.5663   10.9904 C.ar    1  UNL1        0.0149
     28 C          14.6471   41.6558    7.9216 C.3     1  UNL1        0.0975
     29 C          13.7539   42.0476    6.7586 C.3     1  UNL1        0.0236
@<TRIPOS>BOND
     1    14    15    1
     2    15    13    1
     3     7    13    1
     4     8     9   ar
     5    10     3    1
     6    10    11   ar
     7     1     4   am
     8    16    20   ar
     9    17    20   ar
    10    17    21    1
    11    28    21    1
    12    28    29    1
    13    23    24   ar
    14    25    26   ar
    15    27    22   ar
    16    12     7   ar
    17     3     1   am
    18     4    16    1
    19    18    19   ar
    20    21    22    1
    21     7     8   ar
    22     9    10   ar
    23     1     2    2
    24    16    18   ar
    25    17    19   ar
    26    22    23   ar
    27    24    25   ar
    28    26    27   ar
    29    11    12   ar
    30     3     5    1
    31     4     6    1
@<TRIPOS>MOLECULE
MolPort-007-714-551 ChemDiv-E002-1886 MCULE-8664044469 PubChem-22510854 ZINC000015671749 ZINC15671749
 29 31 0 0 0
SMALL
GASTEIGER

@<TRIPOS>ATOM
      1 C           7.8611   41.6034    8.8160 C.2     1  UNL1        0.3096
      2 O           8.0833   42.5725    9.5911 O.2     1  UNL1       -0.2521
      3 N           6.5614   41.0036    8.7462 N.am    1  UNL1       -0.2680
      4 N           8.9058   41.0821    7.9887 N.am    1  UNL1       -0.2468
      5 H           6.4570   40.2509    8.1202 H       1  UNL1        0.1564
      6 H           8.6840   40.3242    7.4008 H       1  UNL1        0.1584
      7 C           3.0916   42.1750   10.8977 C.ar    1  UNL1        0.1386
      8 C           3.9977   41.2815   11.4766 C.ar    1  UNL1        0.0382
      9 C           5.1436   40.8882   10.7796 C.ar    1  UNL1        0.0178
     10 C           5.3968   41.3840    9.4919 C.ar    1  UNL1        0.0518
     11 C           4.4888   42.2761    8.9125 C.ar    1  UNL1        0.0178
     12 C           3.3426   42.6703    9.6082 C.ar    1  UNL1        0.0382
     13 O           1.9517   42.5468   11.6198 O.3     1  UNL1       -0.4755
     14 C           0.4694   42.8563   13.5014 C.3     1  UNL1        0.0512
     15 C           1.7623   42.2413   12.9977 C.3     1  UNL1        0.2055
     16 C          10.2478   41.5770    7.9497 C.ar    1  UNL1        0.1904
     17 C          12.5220   42.1700    7.4778 C.ar    1  UNL1        0.1905
     18 N          10.7978   42.3639    8.9006 N.ar    1  UNL1       -0.1240
     19 N          12.0591   42.6987    8.6348 N.ar    1  UNL1       -0.1239
     20 S          11.3281   41.2573    6.7017 S.2     1  UNL1       -0.0151
     21 N          13.8371   42.4476    6.9587 N.pl3   1  UNL1       -0.2659
     22 C          15.0432   42.1017    7.6711 C.ar    1  UNL1        0.0531
     23 C          16.2171   42.8516    7.4855 C.ar    1  UNL1        0.0149
     24 C          17.3809   42.5395    8.1938 C.ar    1  UNL1        0.0013
     25 C          17.3823   41.4787    9.1025 C.ar    1  UNL1        0.0001
     26 C          16.2190   40.7329    9.3058 C.ar    1  UNL1        0.0013
     27 C          15.0556   41.0457    8.5974 C.ar    1  UNL1        0.0149
     28 C          13.9414   43.0959    5.6540 C.3     1  UNL1        0.0975
     29 C          14.4033   44.5323    5.8193 C.3     1  UNL1        0.0236
@<TRIPOS>BOND
     1    14    15    1
     2    15    13    1
     3     7    13    1
     4     8     9   ar
     5    10     3    1
     6    10    11   ar
     7     1     4   am
     8    16    20   ar
     9    17    20   ar
    10    17    21    1
    11    28    21    1
    12    28    29    1
    13    23    24   ar
    14    25    26   ar
    15    27    22   ar
    16    12     7   ar
    17     3     1   am
    18     4    16    1
    19    18    19   ar
    20    21    22    1
    21     7     8   ar
    22     9    10   ar
    23     1     2    2
    24    16    18   ar
    25    17    19   ar
    26    22    23   ar
    27    24    25   ar
    28    26    27   ar
    29    11    12   ar
    30     3     5    1
    31     4     6    1
@<TRIPOS>MOLECULE
MolPort-007-714-551 ChemDiv-E002-1886 MCULE-8664044469 PubChem-22510854 ZINC000015671749 ZINC15671749
 29 31 0 0 0
SMALL
GASTEIGER

@<TRIPOS>ATOM
      1 C          10.9873   41.7577    6.9434 C.2     1  UNL1        0.3096
      2 O          10.8680   42.8122    7.6241 O.2     1  UNL1       -0.2521
      3 N          12.2570   41.3758    6.3996 N.am    1  UNL1       -0.2680
      4 N           9.8533   40.9195    6.7000 N.am    1  UNL1       -0.2468
      5 H          12.2795   40.5410    5.8782 H       1  UNL1        0.1564
      6 H           9.9961   40.1073    6.1623 H       1  UNL1        0.1584
      7 C          15.9120   43.5118    6.7444 C.ar    1  UNL1        0.1386
      8 C          15.6769   42.4032    7.5631 C.ar    1  UNL1        0.0382
      9 C          14.4785   41.6914    7.4595 C.ar    1  UNL1        0.0178
     10 C          13.4984   42.0813    6.5347 C.ar    1  UNL1        0.0518
     11 C          13.7333   43.1918    5.7176 C.ar    1  UNL1        0.0178
     12 C          14.9311   43.9046    5.8200 C.ar    1  UNL1        0.0382
     13 O          17.1204   44.2060    6.8748 O.3     1  UNL1       -0.4755
     14 C          17.5226   44.0859    9.2533 C.3     1  UNL1        0.0512
     15 C          18.0992   43.8976    7.8620 C.3     1  UNL1        0.2055
     16 C           8.5280   41.1703    7.1776 C.ar    1  UNL1        0.1904
     17 C           6.5030   41.9661    8.1838 C.ar    1  UNL1        0.1905
     18 N           7.4593   40.3897    6.9051 N.ar    1  UNL1       -0.1240
     19 N           6.3332   40.8358    7.4587 N.ar    1  UNL1       -0.1239
     20 S           8.1119   42.4860    8.1383 S.2     1  UNL1       -0.0151
     21 N           5.4136   42.6613    8.8207 N.pl3   1  UNL1       -0.2659
     22 C           4.6812   42.1060    9.9330 C.ar    1  UNL1        0.0531
     23 C           3.3873   42.5659   10.2315 C.ar    1  UNL1        0.0149
     24 C           2.6613   42.0123   11.2899 C.ar    1  UNL1        0.0013
     25 C           3.2176   40.9864   12.0573 C.ar    1  UNL1        0.0001
     26 C           4.4978   40.5113   11.7639 C.ar    1  UNL1        0.0013
     27 C           5.2230   41.0651   10.7052 C.ar    1  UNL1        0.0149
     28 C           5.0515   43.9844    8.3188 C.3     1  UNL1        0.0975
     29 C           5.7968   44.2763    7.0291 C.3     1  UNL1        0.0236
@<TRIPOS>BOND
     1    14    15    1
     2    15    13    1
     3     7    13    1
     4     8     9   ar
     5    10     3    1
     6    10    11   ar
     7     1     4   am
     8    16    20   ar
     9    17    20   ar
    10    17    21    1
    11    28    21    1
    12    28    29    1
    13    23    24   ar
    14    25    26   ar
    15    27    22   ar
    16    12     7   ar
    17     3     1   am
    18     4    16    1
    19    18    19   ar
    20    21    22    1
    21     7     8   ar
    22     9    10   ar
    23     1     2    2
    24    16    18   ar
    25    17    19   ar
    26    22    23   ar
    27    24    25   ar
    28    26    27   ar
    29    11    12   ar
    30     3     5    1
    31     4     6    1
@<TRIPOS>MOLECULE
MolPort-007-714-551 ChemDiv-E002-1886 MCULE-8664044469 PubChem-22510854 ZINC000015671749 ZINC15671749
 29 31 0 0 0
SMALL
GASTEIGER

@<TRIPOS>ATOM
      1 C           6.2481   41.4465   10.0537 C.2     1  UNL1        0.3096
      2 O           5.6236   41.9994    9.1083 O.2     1  UNL1       -0.2521
      3 N           5.6058   41.1988   11.3107 N.am    1  UNL1       -0.2680
      4 N           7.6145   41.0548    9.8893 N.am    1  UNL1       -0.2468
      5 H           6.1510   40.7640   12.0056 H       1  UNL1        0.1564
      6 H           8.0599   40.6276   10.6563 H       1  UNL1        0.1584
      7 C           1.5928   42.0764   12.3905 C.ar    1  UNL1        0.1386
      8 C           2.3202   42.9912   11.6233 C.ar    1  UNL1        0.0382
      9 C           3.6414   42.7145   11.2609 C.ar    1  UNL1        0.0178
     10 C           4.2526   41.5175   11.6632 C.ar    1  UNL1        0.0518
     11 C           3.5249   40.6039   12.4326 C.ar    1  UNL1        0.0178
     12 C           2.2037   40.8792   12.7958 C.ar    1  UNL1        0.0382
     13 O           0.2729   42.3843   12.7402 O.3     1  UNL1       -0.4755
     14 C          -0.7292   44.2037   13.9727 C.3     1  UNL1        0.0512
     15 C          -0.1128   42.8184   14.0404 C.3     1  UNL1        0.2055
     16 C           8.3837   41.2358    8.6964 C.ar    1  UNL1        0.1904
     17 C           9.8713   41.1302    6.8196 C.ar    1  UNL1        0.1905
     18 N           8.2607   42.2926    7.8633 N.ar    1  UNL1       -0.1240
     19 N           9.0826   42.2302    6.8173 N.ar    1  UNL1       -0.1239
     20 S           9.5441   40.1458    8.1557 S.2     1  UNL1       -0.0151
     21 N          10.7929   40.8227    5.7556 N.pl3   1  UNL1       -0.2659
     22 C          10.5454   39.7797    4.7898 C.ar    1  UNL1        0.0531
     23 C           9.2980   39.6866    4.1494 C.ar    1  UNL1        0.0149
     24 C           9.0613   38.6961    3.1921 C.ar    1  UNL1        0.0013
     25 C          10.0720   37.7919    2.8578 C.ar    1  UNL1        0.0001
     26 C          11.3205   37.8807    3.4777 C.ar    1  UNL1        0.0013
     27 C          11.5566   38.8715    4.4346 C.ar    1  UNL1        0.0149
     28 C          12.0181   41.6114    5.6543 C.3     1  UNL1        0.0975
     29 C          12.9063   41.3547    6.8581 C.3     1  UNL1        0.0236
@<TRIPOS>BOND
     1    14    15    1
     2    15    13    1
     3     7    13    1
     4     8     9   ar
     5    10     3    1
     6    10    11   ar
     7     1     4   am
     8    16    20   ar
     9    17    20   ar
    10    17    21    1
    11    28    21    1
    12    28    29    1
    13    23    24   ar
    14    25    26   ar
    15    27    22   ar
    16    12     7   ar
    17     3     1   am
    18     4    16    1
    19    18    19   ar
    20    21    22    1
    21     7     8   ar
    22     9    10   ar
    23     1     2    2
    24    16    18   ar
    25    17    19   ar
    26    22    23   ar
    27    24    25   ar
    28    26    27   ar
    29    11    12   ar
    30     3     5    1
    31     4     6    1
@<TRIPOS>MOLECULE
MolPort-007-714-551 ChemDiv-E002-1886 MCULE-8664044469 PubChem-22510854 ZINC000015671749 ZINC15671749
 29 31 0 0 0
SMALL
GASTEIGER

@<TRIPOS>ATOM
      1 C           7.2414   41.7020    8.1473 C.2     1  UNL1        0.3096
      2 O           7.8729   41.5312    9.2250 O.2     1  UNL1       -0.2521
      3 N           5.8150   41.8403    8.1474 N.am    1  UNL1       -0.2680
      4 N           7.9392   41.7610    6.8994 N.am    1  UNL1       -0.2468
      5 H           5.3853   41.9710    7.2713 H       1  UNL1        0.1564
      6 H           7.4025   41.8949    6.0849 H       1  UNL1        0.1584
      7 C           3.2915   41.6955   11.5609 C.ar    1  UNL1        0.1386
      8 C           2.9466   42.5093   10.4777 C.ar    1  UNL1        0.0382
      9 C           3.7680   42.5658    9.3482 C.ar    1  UNL1        0.0178
     10 C           4.9474   41.8084    9.2890 C.ar    1  UNL1        0.0518
     11 C           5.2929   40.9962   10.3739 C.ar    1  UNL1        0.0178
     12 C           4.4726   40.9387   11.5040 C.ar    1  UNL1        0.0382
     13 O           2.4500   41.6635   12.6789 O.3     1  UNL1       -0.4755
     14 C           0.5923   42.1969   14.1272 C.3     1  UNL1        0.0512
     15 C           1.3241   42.5208   12.8376 C.3     1  UNL1        0.2055
     16 C           9.3564   41.6405    6.7435 C.ar    1  UNL1        0.1904
     17 C          11.7427   41.5322    6.9436 C.ar    1  UNL1        0.1905
     18 N           9.9736   41.3636    5.5738 N.ar    1  UNL1       -0.1240
     19 N          11.2990   41.2969    5.6867 N.ar    1  UNL1       -0.1239
     20 S          10.4555   41.8144    8.0040 S.2     1  UNL1       -0.0151
     21 N          13.1330   41.4514    7.3133 N.pl3   1  UNL1       -0.2659
     22 C          14.0960   42.4599    6.9428 C.ar    1  UNL1        0.0531
     23 C          15.3841   42.4519    7.5045 C.ar    1  UNL1        0.0149
     24 C          16.3308   43.4090    7.1285 C.ar    1  UNL1        0.0013
     25 C          16.0033   44.3806    6.1801 C.ar    1  UNL1        0.0001
     26 C          14.7306   44.3926    5.6046 C.ar    1  UNL1        0.0013
     27 C          13.7846   43.4352    5.9809 C.ar    1  UNL1        0.0149
     28 C          13.5715   40.3037    8.1032 C.3     1  UNL1        0.0975
     29 C          13.4417   40.6081    9.5845 C.3     1  UNL1        0.0236
@<TRIPOS>BOND
     1    14    15    1
     2    15    13    1
     3     7    13    1
     4     8     9   ar
     5    10     3    1
     6    10    11   ar
     7     1     4   am
     8    16    20   ar
     9    17    20   ar
    10    17    21    1
    11    28    21    1
    12    28    29    1
    13    23    24   ar
    14    25    26   ar
    15    27    22   ar
    16    12     7   ar
    17     3     1   am
    18     4    16    1
    19    18    19   ar
    20    21    22    1
    21     7     8   ar
    22     9    10   ar
    23     1     2    2
    24    16    18   ar
    25    17    19   ar
    26    22    23   ar
    27    24    25   ar
    28    26    27   ar
    29    11    12   ar
    30     3     5    1
    31     4     6    1
@<TRIPOS>MOLECULE
MolPort-007-714-551 ChemDiv-E002-1886 MCULE-8664044469 PubChem-22510854 ZINC000015671749 ZINC15671749
 29 31 0 0 0
SMALL
GASTEIGER

@<TRIPOS>ATOM
      1 C          11.0812   41.4415    8.3064 C.2     1  UNL1        0.3096
      2 O          11.2187   42.4337    9.0720 O.2     1  UNL1       -0.2521
      3 N          12.2126   40.8670    7.6406 N.am    1  UNL1       -0.2680
      4 N           9.7884   40.8685    8.0869 N.am    1  UNL1       -0.2468
      5 H          12.0346   40.0941    7.0573 H       1  UNL1        0.1564
      6 H           9.7315   40.0954    7.4800 H       1  UNL1        0.1584
      7 C          16.2644   42.0970    7.9740 C.ar    1  UNL1        0.1386
      8 C          15.4299   42.7068    7.0326 C.ar    1  UNL1        0.0382
      9 C          14.0946   42.3117    6.9128 C.ar    1  UNL1        0.0178
     10 C          13.5771   41.2989    7.7342 C.ar    1  UNL1        0.0518
     11 C          14.4131   40.6878    8.6743 C.ar    1  UNL1        0.0178
     12 C          15.7486   41.0818    8.7952 C.ar    1  UNL1        0.0382
     13 O          17.5978   42.5125    8.0670 O.3     1  UNL1       -0.4755
     14 C          18.8640   44.4950    7.5200 C.3     1  UNL1        0.0512
     15 C          17.9875   43.7966    8.5433 C.3     1  UNL1        0.2055
     16 C           8.5721   41.3320    8.6812 C.ar    1  UNL1        0.1904
     17 C           6.3604   42.0674    9.2414 C.ar    1  UNL1        0.1905
     18 N           8.4326   41.6415    9.9891 N.ar    1  UNL1       -0.1240
     19 N           7.2020   42.0437   10.3012 N.ar    1  UNL1       -0.1239
     20 S           7.1363   41.5439    7.8325 S.2     1  UNL1       -0.0151
     21 N           4.9654   42.4098    9.3541 N.pl3   1  UNL1       -0.2659
     22 C           4.1206   41.8938   10.4038 C.ar    1  UNL1        0.0531
     23 C           4.3318   40.6018   10.9145 C.ar    1  UNL1        0.0149
     24 C           3.5352   40.1067   11.9509 C.ar    1  UNL1        0.0013
     25 C           2.5231   40.9010   12.4945 C.ar    1  UNL1        0.0001
     26 C           2.3103   42.1916   12.0047 C.ar    1  UNL1        0.0013
     27 C           3.1073   42.6861   10.9686 C.ar    1  UNL1        0.0149
     28 C           4.3972   43.3242    8.3670 C.3     1  UNL1        0.0975
     29 C           5.2437   44.5803    8.2696 C.3     1  UNL1        0.0236
@<TRIPOS>BOND
     1    14    15    1
     2    15    13    1
     3     7    13    1
     4     8     9   ar
     5    10     3    1
     6    10    11   ar
     7     1     4   am
     8    16    20   ar
     9    17    20   ar
    10    17    21    1
    11    28    21    1
    12    28    29    1
    13    23    24   ar
    14    25    26   ar
    15    27    22   ar
    16    12     7   ar
    17     3     1   am
    18     4    16    1
    19    18    19   ar
    20    21    22    1
    21     7     8   ar
    22     9    10   ar
    23     1     2    2
    24    16    18   ar
    25    17    19   ar
    26    22    23   ar
    27    24    25   ar
    28    26    27   ar
    29    11    12   ar
    30     3     5    1
    31     4     6    1
@<TRIPOS>MOLECULE
MolPort-007-714-551 ChemDiv-E002-1886 MCULE-8664044469 PubChem-22510854 ZINC000015671749 ZINC15671749
 29 31 0 0 0
SMALL
GASTEIGER

@<TRIPOS>ATOM
      1 C           9.2937   41.2275   10.3077 C.2     1  UNL1        0.3096
      2 O           9.5134   41.9700    9.3128 O.2     1  UNL1       -0.2521
      3 N           7.9760   41.1112   10.8590 N.am    1  UNL1       -0.2680
      4 N          10.3594   40.4844   10.9074 N.am    1  UNL1       -0.2468
      5 H           7.8747   40.5144   11.6354 H       1  UNL1        0.1564
      6 H          10.1388   39.9192   11.6827 H       1  UNL1        0.1584
      7 C           4.5035   43.1096    9.4487 C.ar    1  UNL1        0.1386
      8 C           4.3903   42.1570   10.4657 C.ar    1  UNL1        0.0382
      9 C           5.5251   41.4925   10.9391 C.ar    1  UNL1        0.0178
     10 C           6.7893   41.7724   10.3990 C.ar    1  UNL1        0.0518
     11 C           6.9014   42.7238    9.3801 C.ar    1  UNL1        0.0178
     12 C           5.7676   43.3892    8.9056 C.ar    1  UNL1        0.0382
     13 O           3.3479   43.7552    8.9938 O.3     1  UNL1       -0.4755
     14 C           4.7775   45.0335    7.5256 C.3     1  UNL1        0.0512
     15 C           3.3584   44.7697    7.9945 C.3     1  UNL1        0.2055
     16 C          11.7210   40.4991   10.4677 C.ar    1  UNL1        0.1904
     17 C          13.8423   40.8147    9.3969 C.ar    1  UNL1        0.1905
     18 N          12.7214   39.8127   11.0624 N.ar    1  UNL1       -0.1240
     19 N          13.9010   39.9935   10.4713 N.ar    1  UNL1       -0.1239
     20 S          12.2703   41.3885    9.1508 S.2     1  UNL1       -0.0151
     21 N          15.0058   41.2026    8.6408 N.pl3   1  UNL1       -0.2659
     22 C          14.9609   42.2056    7.6045 C.ar    1  UNL1        0.0531
     23 C          13.8836   42.2472    6.7031 C.ar    1  UNL1        0.0149
     24 C          13.8197   43.2336    5.7149 C.ar    1  UNL1        0.0013
     25 C          14.8284   44.1952    5.6215 C.ar    1  UNL1        0.0001
     26 C          15.8987   44.1729    6.5187 C.ar    1  UNL1        0.0013
     27 C          15.9617   43.1865    7.5067 C.ar    1  UNL1        0.0149
     28 C          16.2780   40.5555    8.9512 C.3     1  UNL1        0.0975
     29 C          17.3690   41.5981    9.1140 C.3     1  UNL1        0.0236
@<TRIPOS>BOND
     1    14    15    1
     2    15    13    1
     3     7    13    1
     4     8     9   ar
     5    10     3    1
     6    10    11   ar
     7     1     4   am
     8    16    20   ar
     9    17    20   ar
    10    17    21    1
    11    28    21    1
    12    28    29    1
    13    23    24   ar
    14    25    26   ar
    15    27    22   ar
    16    12     7   ar
    17     3     1   am
    18     4    16    1
    19    18    19   ar
    20    21    22    1
    21     7     8   ar
    22     9    10   ar
    23     1     2    2
    24    16    18   ar
    25    17    19   ar
    26    22    23   ar
    27    24    25   ar
    28    26    27   ar
    29    11    12   ar
    30     3     5    1
    31     4     6    1
@<TRIPOS>MOLECULE
MolPort-007-714-551 ChemDiv-E002-1886 MCULE-8664044469 PubChem-22510854 ZINC000015671749 ZINC15671749
 29 31 0 0 0
SMALL
GASTEIGER

@<TRIPOS>ATOM
      1 C          11.1831   40.4450   11.0964 C.2     1  UNL1        0.3096
      2 O          10.7583   39.6510   10.2140 O.2     1  UNL1       -0.2521
      3 N          12.5704   40.4679   11.4553 N.am    1  UNL1       -0.2680
      4 N          10.2853   41.3411   11.7586 N.am    1  UNL1       -0.2468
      5 H          12.8344   41.1120   12.1515 H       1  UNL1        0.1564
      6 H          10.6639   41.9414   12.4409 H       1  UNL1        0.1584
      7 C          15.6573   38.0046    9.8921 C.ar    1  UNL1        0.1386
      8 C          15.2691   39.1542    9.1978 C.ar    1  UNL1        0.0382
      9 C          14.2549   39.9736    9.7013 C.ar    1  UNL1        0.0178
     10 C          13.6147   39.6517   10.9074 C.ar    1  UNL1        0.0518
     11 C          14.0021   38.5002   11.6003 C.ar    1  UNL1        0.0178
     12 C          15.0160   37.6799   11.0980 C.ar    1  UNL1        0.0382
     13 O          16.6736   37.2027    9.3599 O.3     1  UNL1       -0.4755
     14 C          14.9516   35.6678    8.6442 C.3     1  UNL1        0.0512
     15 C          16.4256   36.0265    8.5965 C.3     1  UNL1        0.2055
     16 C           8.8799   41.4324   11.5058 C.ar    1  UNL1        0.1904
     17 C           6.6572   41.6544   10.6357 C.ar    1  UNL1        0.1905
     18 N           7.9254   41.3102   12.4545 N.ar    1  UNL1       -0.1240
     19 N           6.6905   41.4269   11.9696 N.ar    1  UNL1       -0.1239
     20 S           8.2170   41.6922    9.9826 S.2     1  UNL1       -0.0151
     21 N           5.4305   41.7524    9.8865 N.pl3   1  UNL1       -0.2659
     22 C           5.1356   42.8679    9.0201 C.ar    1  UNL1        0.0531
     23 C           3.8862   43.5078    9.0870 C.ar    1  UNL1        0.0149
     24 C           3.6044   44.6068    8.2706 C.ar    1  UNL1        0.0013
     25 C           4.5718   45.0840    7.3833 C.ar    1  UNL1        0.0001
     26 C           5.8220   44.4651    7.3153 C.ar    1  UNL1        0.0013
     27 C           6.1032   43.3664    8.1321 C.ar    1  UNL1        0.0149
     28 C           4.4586   40.6689   10.0087 C.3     1  UNL1        0.0975
     29 C           3.8279   40.6854   11.3893 C.3     1  UNL1        0.0236
@<TRIPOS>BOND
     1    14    15    1
     2    15    13    1
     3     7    13    1
     4     8     9   ar
     5    10     3    1
     6    10    11   ar
     7     1     4   am
     8    16    20   ar
     9    17    20   ar
    10    17    21    1
    11    28    21    1
    12    28    29    1
    13    23    24   ar
    14    25    26   ar
    15    27    22   ar
    16    12     7   ar
    17     3     1   am
    18     4    16    1
    19    18    19   ar
    20    21    22    1
    21     7     8   ar
    22     9    10   ar
    23     1     2    2
    24    16    18   ar
    25    17    19   ar
    26    22    23   ar
    27    24    25   ar
    28    26    27   ar
    29    11    12   ar
    30     3     5    1
    31     4     6    1
