@<TRIPOS>MOLECULE
Molport-047-652-275 MCULE-3526152141 PubChem-165888020
 27 29 0 0 0
SMALL
GASTEIGER

@<TRIPOS>ATOM
      1 C          14.9769   42.4128    7.3332 C.ar    1  UNL1        0.1677
      2 C          13.7211   41.9275    7.4375 C.ar    1  UNL1        0.1488
      3 C          12.7043   42.4557    6.6542 C.ar    1  UNL1        0.1592
      4 C          14.3166   43.9439    5.7052 C.ar    1  UNL1        0.2015
      5 C          14.9616   40.8571    8.7885 C.ar    1  UNL1        0.1802
      6 N          15.7783   41.7551    8.1756 N.ar    1  UNL1       -0.2857
      7 N          13.0324   43.4677    5.7934 N.ar    1  UNL1       -0.2071
      8 N          15.3087   43.4138    6.4826 N.ar    1  UNL1       -0.2048
      9 N          13.6728   40.9397    8.3509 N.ar    1  UNL1       -0.2194
     10 C          10.7339   41.0769    5.8143 C.2     1  UNL1        0.4068
     11 N          11.3668   41.9514    6.7545 N.am    1  UNL1       -0.2337
     12 O          11.3552   40.6680    4.7952 O.2     1  UNL1       -0.2260
     13 H          10.8381   42.2300    7.5368 H       1  UNL1        0.1597
     14 O           9.4160   40.6768    6.0461 O.3     1  UNL1       -0.4294
     15 C           9.0386   39.8983    7.1765 C.3     1  UNL1        0.2367
     16 C           8.0874   40.6570    8.0388 C.ar    1  UNL1        0.0213
     17 C           8.5594   41.3510    9.1581 C.ar    1  UNL1       -0.0007
     18 C           7.6667   42.0510    9.9756 C.ar    1  UNL1       -0.0002
     19 C           6.3009   42.0559    9.6760 C.ar    1  UNL1       -0.0000
     20 C           5.8273   41.3601    8.5593 C.ar    1  UNL1       -0.0002
     21 C           6.7198   40.6598    7.7417 C.ar    1  UNL1       -0.0007
     22 C          17.4816   43.3044    9.0268 C.3     1  UNL1        0.0367
     23 C          17.2101   41.9591    8.3737 C.3     1  UNL1        0.1868
     24 C          17.8097   40.8416    9.1657 C.2     1  UNL1        0.3347
     25 O          17.3087   40.5498   10.4267 O.3     1  UNL1       -0.4789
     26 O          18.7684   40.1679    8.7031 O.2     1  UNL1       -0.2482
     27 H          16.5957   41.0485   10.7744 H       1  UNL1        0.2951
@<TRIPOS>BOND
     1    23    22    1
     2    23     6    1
     3    23    24    1
     4     1     8   ar
     5     2     3   ar
     6     2     9   ar
     7     3    11    1
     8     4     7   ar
     9    10    14    1
    10    15    14    1
    11    15    16    1
    12    17    18   ar
    13    19    20   ar
    14    21    16   ar
    15     5     6   ar
    16    24    25    1
    17     6     1   ar
    18    11    10   am
    19     1     2   ar
    20     3     7   ar
    21     4     8   ar
    22    10    12    2
    23    16    17   ar
    24    18    19   ar
    25    20    21   ar
    26     5     9   ar
    27    24    26    2
    28    11    13    1
    29    25    27    1
@<TRIPOS>MOLECULE
Molport-047-652-275 MCULE-3526152141 PubChem-165888020
 27 29 0 0 0
SMALL
GASTEIGER

@<TRIPOS>ATOM
      1 C          14.6856   42.5952    7.3610 C.ar    1  UNL1        0.1677
      2 C          14.3462   41.3707    7.8181 C.ar    1  UNL1        0.1488
      3 C          13.1100   40.8269    7.4977 C.ar    1  UNL1        0.1592
      4 C          12.6428   42.8194    6.2622 C.ar    1  UNL1        0.2015
      5 C          16.2971   41.8260    8.5228 C.ar    1  UNL1        0.1802
      6 N          15.9110   42.9060    7.7924 N.ar    1  UNL1       -0.2857
      7 N          12.2749   41.5771    6.7150 N.ar    1  UNL1       -0.2071
      8 N          13.8641   43.3427    6.5852 N.ar    1  UNL1       -0.2048
      9 N          15.3435   40.8519    8.5588 N.ar    1  UNL1       -0.2194
     10 C          11.9617   39.2659    9.1509 C.2     1  UNL1        0.4068
     11 N          12.7359   39.5291    7.9760 N.am    1  UNL1       -0.2337
     12 O          11.5303   40.2131    9.8640 O.2     1  UNL1       -0.2260
     13 H          13.0370   38.7520    7.4519 H       1  UNL1        0.1597
     14 O          11.6847   37.9406    9.4939 O.3     1  UNL1       -0.4294
     15 C          12.6923   36.9368    9.5510 C.3     1  UNL1        0.2367
     16 C          13.9173   37.4641   10.2183 C.ar    1  UNL1        0.0213
     17 C          13.8176   38.1028   11.4591 C.ar    1  UNL1       -0.0007
     18 C          14.9635   38.6103   12.0793 C.ar    1  UNL1       -0.0002
     19 C          16.2097   38.4818   11.4584 C.ar    1  UNL1       -0.0000
     20 C          16.3104   37.8463   10.2169 C.ar    1  UNL1       -0.0002
     21 C          15.1646   37.3389    9.5963 C.ar    1  UNL1       -0.0007
     22 C          18.1043   43.9939    7.9710 C.3     1  UNL1        0.0367
     23 C          16.6587   44.1302    7.5218 C.3     1  UNL1        0.1868
     24 C          16.5736   44.5061    6.0771 C.2     1  UNL1        0.3347
     25 O          15.7059   45.5146    5.6815 O.3     1  UNL1       -0.4789
     26 O          17.2755   43.9124    5.2158 O.2     1  UNL1       -0.2482
     27 H          15.1821   45.9587    6.3190 H       1  UNL1        0.2951
@<TRIPOS>BOND
     1    23    22    1
     2    23     6    1
     3    23    24    1
     4     1     8   ar
     5     2     3   ar
     6     2     9   ar
     7     3    11    1
     8     4     7   ar
     9    10    14    1
    10    15    14    1
    11    15    16    1
    12    17    18   ar
    13    19    20   ar
    14    21    16   ar
    15     5     6   ar
    16    24    25    1
    17     6     1   ar
    18    11    10   am
    19     1     2   ar
    20     3     7   ar
    21     4     8   ar
    22    10    12    2
    23    16    17   ar
    24    18    19   ar
    25    20    21   ar
    26     5     9   ar
    27    24    26    2
    28    11    13    1
    29    25    27    1
@<TRIPOS>MOLECULE
Molport-047-652-275 MCULE-3526152141 PubChem-165888020
 27 29 0 0 0
SMALL
GASTEIGER

@<TRIPOS>ATOM
      1 C           6.5175   41.4576   10.2979 C.ar    1  UNL1        0.1677
      2 C           7.5091   41.7709    9.4366 C.ar    1  UNL1        0.1488
      3 C           8.7534   42.1535    9.9182 C.ar    1  UNL1        0.1592
      4 C           7.8949   41.8721   12.1314 C.ar    1  UNL1        0.2015
      5 C           5.7905   41.2412    8.3071 C.ar    1  UNL1        0.1802
      6 N           5.4226   41.1210    9.6107 N.ar    1  UNL1       -0.2857
      7 N           8.9182   42.1956   11.2760 N.ar    1  UNL1       -0.2071
      8 N           6.6742   41.4964   11.6431 N.ar    1  UNL1       -0.2048
      9 N           7.0850   41.6453    8.1650 N.ar    1  UNL1       -0.2194
     10 C          11.1574   41.9981    9.0901 C.2     1  UNL1        0.4068
     11 N           9.8149   42.4895    9.0162 N.am    1  UNL1       -0.2337
     12 O          11.4980   41.1873    9.9948 O.2     1  UNL1       -0.2260
     13 H           9.6029   43.1114    8.2831 H       1  UNL1        0.1597
     14 O          12.0861   42.4261    8.1388 O.3     1  UNL1       -0.4294
     15 C          13.1478   41.5980    7.6771 C.3     1  UNL1        0.2367
     16 C          14.2320   42.4262    7.0752 C.ar    1  UNL1        0.0213
     17 C          15.5074   42.4337    7.6503 C.ar    1  UNL1       -0.0007
     18 C          16.5211   43.2208    7.0954 C.ar    1  UNL1       -0.0002
     19 C          16.2600   44.0032    5.9662 C.ar    1  UNL1       -0.0000
     20 C          14.9849   43.9991    5.3921 C.ar    1  UNL1       -0.0002
     21 C          13.9709   43.2121    5.9470 C.ar    1  UNL1       -0.0007
     22 C           4.1247   40.8016   11.6697 C.3     1  UNL1        0.0367
     23 C           4.1316   40.7079   10.1527 C.3     1  UNL1        0.1868
     24 C           3.0161   41.5047    9.5557 C.2     1  UNL1        0.3347
     25 O           2.2384   40.9480    8.5499 O.3     1  UNL1       -0.4789
     26 O           2.7801   42.6772    9.9513 O.2     1  UNL1       -0.2482
     27 H           2.4106   40.0762    8.2528 H       1  UNL1        0.2951
@<TRIPOS>BOND
     1    23    22    1
     2    23     6    1
     3    23    24    1
     4     1     8   ar
     5     2     3   ar
     6     2     9   ar
     7     3    11    1
     8     4     7   ar
     9    10    14    1
    10    15    14    1
    11    15    16    1
    12    17    18   ar
    13    19    20   ar
    14    21    16   ar
    15     5     6   ar
    16    24    25    1
    17     6     1   ar
    18    11    10   am
    19     1     2   ar
    20     3     7   ar
    21     4     8   ar
    22    10    12    2
    23    16    17   ar
    24    18    19   ar
    25    20    21   ar
    26     5     9   ar
    27    24    26    2
    28    11    13    1
    29    25    27    1
@<TRIPOS>MOLECULE
Molport-047-652-275 MCULE-3526152141 PubChem-165888020
 27 29 0 0 0
SMALL
GASTEIGER

@<TRIPOS>ATOM
      1 C          14.7568   41.7828    7.8370 C.ar    1  UNL1        0.1677
      2 C          13.4119   41.8444    7.7326 C.ar    1  UNL1        0.1488
      3 C          12.6186   40.9404    8.4255 C.ar    1  UNL1        0.1592
      4 C          14.6230   39.9657    9.2898 C.ar    1  UNL1        0.2015
      5 C          14.2429   43.3877    6.5337 C.ar    1  UNL1        0.1802
      6 N          15.3045   42.7450    7.0895 N.ar    1  UNL1       -0.2857
      7 N          13.2542   40.0078    9.1995 N.ar    1  UNL1       -0.2071
      8 N          15.3922   40.8628    8.6021 N.ar    1  UNL1       -0.2048
      9 N          13.0490   42.8499    6.9143 N.ar    1  UNL1       -0.2194
     10 C          10.3404   41.9201    9.0076 C.2     1  UNL1        0.4068
     11 N          11.1903   40.9931    8.3238 N.am    1  UNL1       -0.2337
     12 O          10.8275   42.7993    9.7702 O.2     1  UNL1       -0.2260
     13 H          10.7563   40.3357    7.7333 H       1  UNL1        0.1597
     14 O           8.9597   41.8404    8.8125 O.3     1  UNL1       -0.4294
     15 C           8.3165   42.3712    7.6589 C.3     1  UNL1        0.2367
     16 C           6.9633   42.8912    8.0084 C.ar    1  UNL1        0.0213
     17 C           6.1669   42.2039    8.9308 C.ar    1  UNL1       -0.0007
     18 C           4.8922   42.6826    9.2488 C.ar    1  UNL1       -0.0002
     19 C           4.4116   43.8477    8.6431 C.ar    1  UNL1       -0.0000
     20 C           5.2053   44.5340    7.7187 C.ar    1  UNL1       -0.0002
     21 C           6.4800   44.0554    7.4004 C.ar    1  UNL1       -0.0007
     22 C          16.9304   44.3761    6.2399 C.3     1  UNL1        0.0367
     23 C          16.7257   43.0353    6.9258 C.3     1  UNL1        0.1868
     24 C          17.4415   42.9830    8.2375 C.2     1  UNL1        0.3347
     25 O          18.1722   41.8523    8.5747 O.3     1  UNL1       -0.4789
     26 O          17.3820   43.9511    9.0415 O.2     1  UNL1       -0.2482
     27 H          18.2190   41.1300    7.9796 H       1  UNL1        0.2951
@<TRIPOS>BOND
     1    23    22    1
     2    23     6    1
     3    23    24    1
     4     1     8   ar
     5     2     3   ar
     6     2     9   ar
     7     3    11    1
     8     4     7   ar
     9    10    14    1
    10    15    14    1
    11    15    16    1
    12    17    18   ar
    13    19    20   ar
    14    21    16   ar
    15     5     6   ar
    16    24    25    1
    17     6     1   ar
    18    11    10   am
    19     1     2   ar
    20     3     7   ar
    21     4     8   ar
    22    10    12    2
    23    16    17   ar
    24    18    19   ar
    25    20    21   ar
    26     5     9   ar
    27    24    26    2
    28    11    13    1
    29    25    27    1
@<TRIPOS>MOLECULE
Molport-047-652-275 MCULE-3526152141 PubChem-165888020
 27 29 0 0 0
SMALL
GASTEIGER

@<TRIPOS>ATOM
      1 C          13.6046   40.5946    9.5940 C.ar    1  UNL1        0.1677
      2 C          12.2986   40.9323    9.6556 C.ar    1  UNL1        0.1488
      3 C          11.7381   41.7258    8.6643 C.ar    1  UNL1        0.1592
      4 C          13.8815   41.7805    7.6072 C.ar    1  UNL1        0.2015
      5 C          12.7524   39.7223   11.3408 C.ar    1  UNL1        0.1802
      6 N          13.9161   39.8324   10.6459 N.ar    1  UNL1       -0.2857
      7 N          12.5569   42.1374    7.6480 N.ar    1  UNL1       -0.2071
      8 N          14.4205   40.9979    8.5903 N.ar    1  UNL1       -0.2048
      9 N          11.7254   40.3973   10.7500 N.ar    1  UNL1       -0.2194
     10 C           9.8042   43.1590    9.4979 C.2     1  UNL1        0.4068
     11 N          10.3540   42.0928    8.7168 N.am    1  UNL1       -0.2337
     12 O          10.5487   43.8839   10.2135 O.2     1  UNL1       -0.2260
     13 H           9.7276   41.5667    8.1689 H       1  UNL1        0.1597
     14 O           8.4275   43.3896    9.4509 O.3     1  UNL1       -0.4294
     15 C           7.6591   43.2051    8.2669 C.3     1  UNL1        0.2367
     16 C           6.2442   42.8805    8.6081 C.ar    1  UNL1        0.0213
     17 C           5.2659   43.8794    8.5577 C.ar    1  UNL1       -0.0007
     18 C           3.9415   43.5797    8.8911 C.ar    1  UNL1       -0.0002
     19 C           3.5943   42.2815    9.2774 C.ar    1  UNL1       -0.0000
     20 C           4.5715   41.2827    9.3312 C.ar    1  UNL1       -0.0002
     21 C           5.8962   41.5823    8.9980 C.ar    1  UNL1       -0.0007
     22 C          15.0689   38.0802   11.9213 C.3     1  UNL1        0.0367
     23 C          15.2163   39.2472   10.9587 C.3     1  UNL1        0.1868
     24 C          15.9359   38.8355    9.7144 C.2     1  UNL1        0.3347
     25 O          15.3444   37.9245    8.8504 O.3     1  UNL1       -0.4789
     26 O          17.0753   39.3014    9.4467 O.2     1  UNL1       -0.2482
     27 H          14.4970   37.5755    9.0459 H       1  UNL1        0.2951
@<TRIPOS>BOND
     1    23    22    1
     2    23     6    1
     3    23    24    1
     4     1     8   ar
     5     2     3   ar
     6     2     9   ar
     7     3    11    1
     8     4     7   ar
     9    10    14    1
    10    15    14    1
    11    15    16    1
    12    17    18   ar
    13    19    20   ar
    14    21    16   ar
    15     5     6   ar
    16    24    25    1
    17     6     1   ar
    18    11    10   am
    19     1     2   ar
    20     3     7   ar
    21     4     8   ar
    22    10    12    2
    23    16    17   ar
    24    18    19   ar
    25    20    21   ar
    26     5     9   ar
    27    24    26    2
    28    11    13    1
    29    25    27    1
@<TRIPOS>MOLECULE
Molport-047-652-275 MCULE-3526152141 PubChem-165888020
 27 29 0 0 0
SMALL
GASTEIGER

@<TRIPOS>ATOM
      1 C          13.1424   38.6924    9.4646 C.ar    1  UNL1        0.1677
      2 C          11.8073   38.8948    9.4657 C.ar    1  UNL1        0.1488
      3 C          11.2846   40.0885    8.9876 C.ar    1  UNL1        0.1592
      4 C          13.5231   40.7956    8.5360 C.ar    1  UNL1        0.2015
      5 C          12.1875   36.9644   10.2650 C.ar    1  UNL1        0.1802
      6 N          13.4083   37.4826    9.9648 N.ar    1  UNL1       -0.2857
      7 N          12.1700   41.0249    8.5272 N.ar    1  UNL1       -0.2071
      8 N          14.0242   39.6148    9.0095 N.ar    1  UNL1       -0.2048
      9 N          11.1690   37.8204    9.9664 N.ar    1  UNL1       -0.2194
     10 C           9.1585   41.1137    8.0299 C.2     1  UNL1        0.4068
     11 N           9.8701   40.3176    8.9832 N.am    1  UNL1       -0.2337
     12 O           9.7669   41.6793    7.0802 O.2     1  UNL1       -0.2260
     13 H           9.3428   39.8912    9.6968 H       1  UNL1        0.1597
     14 O           7.7749   41.2504    8.1635 O.3     1  UNL1       -0.4294
     15 C           7.1431   42.5132    8.3436 C.3     1  UNL1        0.2367
     16 C           5.7486   42.3332    8.8404 C.ar    1  UNL1        0.0213
     17 C           5.3591   41.1130    9.4035 C.ar    1  UNL1       -0.0007
     18 C           4.0480   40.9381    9.8568 C.ar    1  UNL1       -0.0002
     19 C           3.1244   41.9820    9.7454 C.ar    1  UNL1       -0.0000
     20 C           3.5115   43.2010    9.1801 C.ar    1  UNL1       -0.0002
     21 C           4.8226   43.3762    8.7265 C.ar    1  UNL1       -0.0007
     22 C          15.4956   36.8715    8.8266 C.3     1  UNL1        0.0367
     23 C          14.7203   36.8654   10.1338 C.3     1  UNL1        0.1868
     24 C          15.4938   37.5330   11.2255 C.2     1  UNL1        0.3347
     25 O          15.9930   38.8128   11.0275 O.3     1  UNL1       -0.4789
     26 O          15.7026   36.9431   12.3189 O.2     1  UNL1       -0.2482
     27 H          15.8400   39.2550   10.2158 H       1  UNL1        0.2951
@<TRIPOS>BOND
     1    23    22    1
     2    23     6    1
     3    23    24    1
     4     1     8   ar
     5     2     3   ar
     6     2     9   ar
     7     3    11    1
     8     4     7   ar
     9    10    14    1
    10    15    14    1
    11    15    16    1
    12    17    18   ar
    13    19    20   ar
    14    21    16   ar
    15     5     6   ar
    16    24    25    1
    17     6     1   ar
    18    11    10   am
    19     1     2   ar
    20     3     7   ar
    21     4     8   ar
    22    10    12    2
    23    16    17   ar
    24    18    19   ar
    25    20    21   ar
    26     5     9   ar
    27    24    26    2
    28    11    13    1
    29    25    27    1
@<TRIPOS>MOLECULE
Molport-047-652-275 MCULE-3526152141 PubChem-165888020
 27 29 0 0 0
SMALL
GASTEIGER

@<TRIPOS>ATOM
      1 C          10.8276   40.4006    9.7790 C.ar    1  UNL1        0.1677
      2 C          12.0429   40.8231    9.3692 C.ar    1  UNL1        0.1488
      3 C          13.0743   39.9105    9.1957 C.ar    1  UNL1        0.1592
      4 C          11.5583   38.1896    9.8702 C.ar    1  UNL1        0.2015
      5 C          10.7627   42.5121    9.5039 C.ar    1  UNL1        0.1802
      6 N          10.0023   41.4468    9.8727 N.ar    1  UNL1       -0.2857
      7 N          12.8021   38.5947    9.4551 N.ar    1  UNL1       -0.2071
      8 N          10.5513   39.0995   10.0365 N.ar    1  UNL1       -0.2048
      9 N          12.0398   42.1566    9.1847 N.ar    1  UNL1       -0.2194
     10 C          15.5919   40.1678    9.4854 C.2     1  UNL1        0.4068
     11 N          14.3693   40.3443    8.7621 N.am    1  UNL1       -0.2337
     12 O          15.6018   39.5770   10.6002 O.2     1  UNL1       -0.2260
     13 H          14.4227   40.8029    7.8926 H       1  UNL1        0.1597
     14 O          16.7788   40.6555    8.9337 O.3     1  UNL1       -0.4294
     15 C          17.1607   42.0238    9.0239 C.3     1  UNL1        0.2367
     16 C          16.8016   42.7496    7.7717 C.ar    1  UNL1        0.0213
     17 C          15.4584   42.8916    7.4065 C.ar    1  UNL1       -0.0007
     18 C          15.1209   43.5595    6.2254 C.ar    1  UNL1       -0.0002
     19 C          16.1260   44.0841    5.4070 C.ar    1  UNL1       -0.0000
     20 C          17.4690   43.9403    5.7691 C.ar    1  UNL1       -0.0002
     21 C          17.8068   43.2722    6.9502 C.ar    1  UNL1       -0.0007
     22 C           8.4331   41.9401   11.6949 C.3     1  UNL1        0.0367
     23 C           8.5983   41.4315   10.2722 C.3     1  UNL1        0.1868
     24 C           7.7569   42.2145    9.3158 C.2     1  UNL1        0.3347
     25 O           7.1560   43.3923    9.7377 O.3     1  UNL1       -0.4789
     26 O           7.5826   41.8124    8.1347 O.2     1  UNL1       -0.2482
     27 H           7.2831   43.6948   10.6153 H       1  UNL1        0.2951
@<TRIPOS>BOND
     1    23    22    1
     2    23     6    1
     3    23    24    1
     4     1     8   ar
     5     2     3   ar
     6     2     9   ar
     7     3    11    1
     8     4     7   ar
     9    10    14    1
    10    15    14    1
    11    15    16    1
    12    17    18   ar
    13    19    20   ar
    14    21    16   ar
    15     5     6   ar
    16    24    25    1
    17     6     1   ar
    18    11    10   am
    19     1     2   ar
    20     3     7   ar
    21     4     8   ar
    22    10    12    2
    23    16    17   ar
    24    18    19   ar
    25    20    21   ar
    26     5     9   ar
    27    24    26    2
    28    11    13    1
    29    25    27    1
@<TRIPOS>MOLECULE
Molport-047-652-275 MCULE-3526152141 PubChem-165888020
 27 29 0 0 0
SMALL
GASTEIGER

@<TRIPOS>ATOM
      1 C           6.7770   41.3392    7.8864 C.ar    1  UNL1        0.1677
      2 C           8.0270   41.7823    7.6324 C.ar    1  UNL1        0.1488
      3 C           8.6988   41.3546    6.4955 C.ar    1  UNL1        0.1592
      4 C           6.7742   40.0471    5.9469 C.ar    1  UNL1        0.2015
      5 C           7.3630   42.6687    9.4444 C.ar    1  UNL1        0.1802
      6 N           6.3360   41.8826    9.0241 N.ar    1  UNL1       -0.2857
      7 N           8.0452   40.4830    5.6674 N.ar    1  UNL1       -0.2071
      8 N           6.1240   40.4770    7.0703 N.ar    1  UNL1       -0.2048
      9 N           8.4320   42.6274    8.5989 N.ar    1  UNL1       -0.2194
     10 C          11.2338   41.2341    6.7148 C.2     1  UNL1        0.4068
     11 N          10.0258   41.8158    6.2134 N.am    1  UNL1       -0.2337
     12 O          11.1979   40.2196    7.4640 O.2     1  UNL1       -0.2260
     13 H          10.1143   42.5997    5.6244 H       1  UNL1        0.1597
     14 O          12.4572   41.8045    6.3561 O.3     1  UNL1       -0.4294
     15 C          13.6379   41.6385    7.1337 C.3     1  UNL1        0.2367
     16 C          14.6004   42.7452    6.8642 C.ar    1  UNL1        0.0213
     17 C          14.2327   43.8027    6.0251 C.ar    1  UNL1       -0.0007
     18 C          15.1393   44.8339    5.7602 C.ar    1  UNL1       -0.0002
     19 C          16.4150   44.8075    6.3321 C.ar    1  UNL1       -0.0000
     20 C          16.7849   43.7496    7.1684 C.ar    1  UNL1       -0.0002
     21 C          15.8785   42.7182    7.4334 C.ar    1  UNL1       -0.0007
     22 C           5.1757   41.5759   11.1655 C.3     1  UNL1        0.0367
     23 C           5.0359   41.6774    9.6555 C.3     1  UNL1        0.1868
     24 C           4.0737   42.7557    9.2718 C.2     1  UNL1        0.3347
     25 O           2.7559   42.4278    8.9853 O.3     1  UNL1       -0.4789
     26 O           4.4488   43.9561    9.1993 O.2     1  UNL1       -0.2482
     27 H           2.4729   41.5361    9.0381 H       1  UNL1        0.2951
@<TRIPOS>BOND
     1    23    22    1
     2    23     6    1
     3    23    24    1
     4     1     8   ar
     5     2     3   ar
     6     2     9   ar
     7     3    11    1
     8     4     7   ar
     9    10    14    1
    10    15    14    1
    11    15    16    1
    12    17    18   ar
    13    19    20   ar
    14    21    16   ar
    15     5     6   ar
    16    24    25    1
    17     6     1   ar
    18    11    10   am
    19     1     2   ar
    20     3     7   ar
    21     4     8   ar
    22    10    12    2
    23    16    17   ar
    24    18    19   ar
    25    20    21   ar
    26     5     9   ar
    27    24    26    2
    28    11    13    1
    29    25    27    1
@<TRIPOS>MOLECULE
Molport-047-652-275 MCULE-3526152141 PubChem-165888020
 27 29 0 0 0
SMALL
GASTEIGER

@<TRIPOS>ATOM
      1 C          12.7113   40.7276    8.9300 C.ar    1  UNL1        0.1677
      2 C          11.3762   40.7626    8.7306 C.ar    1  UNL1        0.1488
      3 C          10.8518   41.4690    7.6570 C.ar    1  UNL1        0.1592
      4 C          13.0886   42.0606    7.0561 C.ar    1  UNL1        0.2015
      5 C          11.7598   39.5862   10.4566 C.ar    1  UNL1        0.1802
      6 N          12.9792   39.9928   10.0129 N.ar    1  UNL1       -0.2857
      7 N          11.7354   42.1114    6.8329 N.ar    1  UNL1       -0.2071
      8 N          13.5916   41.3605    8.1175 N.ar    1  UNL1       -0.2048
      9 N          10.7400   40.0500    9.6792 N.ar    1  UNL1       -0.2194
     10 C           8.5174   42.3884    8.0979 C.2     1  UNL1        0.4068
     11 N           9.4372   41.5157    7.4334 N.am    1  UNL1       -0.2337
     12 O           8.9231   43.2201    8.9555 O.2     1  UNL1       -0.2260
     13 H           9.0662   40.8946    6.7657 H       1  UNL1        0.1597
     14 O           7.1604   42.3095    7.7770 O.3     1  UNL1       -0.4294
     15 C           6.1630   43.0457    8.4767 C.3     1  UNL1        0.2367
     16 C           5.4037   42.1515    9.3973 C.ar    1  UNL1        0.0213
     17 C           6.0066   41.6789   10.5681 C.ar    1  UNL1       -0.0007
     18 C           5.3008   40.8289   11.4251 C.ar    1  UNL1       -0.0002
     19 C           3.9923   40.4487   11.1112 C.ar    1  UNL1       -0.0000
     20 C           3.3895   40.9179    9.9399 C.ar    1  UNL1       -0.0002
     21 C           4.0952   41.7678    9.0826 C.ar    1  UNL1       -0.0007
     22 C          14.1633   38.9259   11.8799 C.3     1  UNL1        0.0367
     23 C          14.2930   39.6934   10.5744 C.3     1  UNL1        0.1868
     24 C          15.1431   38.9525    9.5926 C.2     1  UNL1        0.3347
     25 O          14.6471   37.8086    8.9830 O.3     1  UNL1       -0.4789
     26 O          16.3062   39.3519    9.3191 O.2     1  UNL1       -0.2482
     27 H          13.7826   37.5081    9.1836 H       1  UNL1        0.2951
@<TRIPOS>BOND
     1    23    22    1
     2    23     6    1
     3    23    24    1
     4     1     8   ar
     5     2     3   ar
     6     2     9   ar
     7     3    11    1
     8     4     7   ar
     9    10    14    1
    10    15    14    1
    11    15    16    1
    12    17    18   ar
    13    19    20   ar
    14    21    16   ar
    15     5     6   ar
    16    24    25    1
    17     6     1   ar
    18    11    10   am
    19     1     2   ar
    20     3     7   ar
    21     4     8   ar
    22    10    12    2
    23    16    17   ar
    24    18    19   ar
    25    20    21   ar
    26     5     9   ar
    27    24    26    2
    28    11    13    1
    29    25    27    1
@<TRIPOS>MOLECULE
Molport-047-652-275 MCULE-3526152141 PubChem-165888020
 27 29 0 0 0
SMALL
GASTEIGER

@<TRIPOS>ATOM
      1 C           6.3900   41.4063   10.4789 C.ar    1  UNL1        0.1677
      2 C           7.4690   41.4878    9.6710 C.ar    1  UNL1        0.1488
      3 C           8.7263   41.7196   10.2114 C.ar    1  UNL1        0.1592
      4 C           7.7015   41.7705   12.3705 C.ar    1  UNL1        0.2015
      5 C           5.7604   41.1248    8.4632 C.ar    1  UNL1        0.1802
      6 N           5.2997   41.1788    9.7415 N.ar    1  UNL1       -0.2857
      7 N           8.8129   41.8578   11.5701 N.ar    1  UNL1       -0.2071
      8 N           6.4689   41.5412   11.8246 N.ar    1  UNL1       -0.2048
      9 N           7.1085   41.3144    8.3856 N.ar    1  UNL1       -0.2194
     10 C          10.9129   42.7952    9.4692 C.2     1  UNL1        0.4068
     11 N           9.8802   41.8093    9.3665 N.am    1  UNL1       -0.2337
     12 O          10.8707   43.6817   10.3660 O.2     1  UNL1       -0.2260
     13 H           9.9703   41.1353    8.6545 H       1  UNL1        0.1597
     14 O          11.9749   42.7572    8.5628 O.3     1  UNL1       -0.4294
     15 C          12.4380   41.5464    7.9748 C.3     1  UNL1        0.2367
     16 C          13.3949   40.8558    8.8865 C.ar    1  UNL1        0.0213
     17 C          12.9228   40.1992   10.0282 C.ar    1  UNL1       -0.0007
     18 C          13.8204   39.5634   10.8916 C.ar    1  UNL1       -0.0002
     19 C          15.1910   39.5855   10.6155 C.ar    1  UNL1       -0.0000
     20 C          15.6645   40.2439    9.4763 C.ar    1  UNL1       -0.0002
     21 C          14.7671   40.8800    8.6129 C.ar    1  UNL1       -0.0007
     22 C           3.7914   41.5017   11.6511 C.3     1  UNL1        0.0367
     23 C           3.9294   41.0156   10.2177 C.3     1  UNL1        0.1868
     24 C           2.9588   41.7077    9.3152 C.2     1  UNL1        0.3347
     25 O           2.1165   40.9549    8.5088 O.3     1  UNL1       -0.4789
     26 O           2.9030   42.9655    9.2745 O.2     1  UNL1       -0.2482
     27 H           2.1548   40.0191    8.5361 H       1  UNL1        0.2951
@<TRIPOS>BOND
     1    23    22    1
     2    23     6    1
     3    23    24    1
     4     1     8   ar
     5     2     3   ar
     6     2     9   ar
     7     3    11    1
     8     4     7   ar
     9    10    14    1
    10    15    14    1
    11    15    16    1
    12    17    18   ar
    13    19    20   ar
    14    21    16   ar
    15     5     6   ar
    16    24    25    1
    17     6     1   ar
    18    11    10   am
    19     1     2   ar
    20     3     7   ar
    21     4     8   ar
    22    10    12    2
    23    16    17   ar
    24    18    19   ar
    25    20    21   ar
    26     5     9   ar
    27    24    26    2
    28    11    13    1
    29    25    27    1
