@<TRIPOS>MOLECULE
MolPort-010-852-322 ChemDiv-G952-2909 MCULE-1941934245 PubChem-53095797 ZINC000064980480 ZINC64980480
 22 24 0 0 0
SMALL
GASTEIGER

@<TRIPOS>ATOM
      1 C          16.9103   43.1547    7.6324 C.ar    1  UNL1        0.1643
      2 C          15.6211   44.1025    6.2722 C.ar    1  UNL1        0.2195
      3 C          13.7307   42.6720    6.2283 C.ar    1  UNL1        0.1882
      4 N          17.5356   44.2747    7.1779 N.ar    1  UNL1       -0.1310
      5 N          16.7150   44.8820    6.3107 N.ar    1  UNL1       -0.1202
      6 N          14.6960   42.2178    7.0771 N.ar    1  UNL1       -0.1399
      7 N          15.7143   43.0615    7.0524 N.ar    1  UNL1       -0.1881
      8 S          14.1713   44.1492    5.4365 S.2     1  UNL1       -0.0111
      9 C          11.4593   41.7861    7.0138 C.2     1  UNL1        0.2510
     10 N          12.4999   41.9625    6.0424 N.am    1  UNL1       -0.2592
     11 O          11.5706   42.2757    8.1702 O.2     1  UNL1       -0.2698
     12 H          12.3535   41.5548    5.1583 H       1  UNL1        0.1571
     13 C          10.2490   41.0252    6.6567 C.ar    1  UNL1        0.0546
     14 C           9.0293   41.2940    7.2945 C.ar    1  UNL1        0.0159
     15 C           7.8805   40.5727    6.9566 C.ar    1  UNL1        0.0578
     16 C           7.9427   39.5770    5.9781 C.ar    1  UNL1        0.0114
     17 C           9.1537   39.3024    5.3374 C.ar    1  UNL1        0.0010
     18 C          10.3026   40.0237    5.6753 C.ar    1  UNL1        0.0046
     19 CL          6.3642   40.9172    7.7594 Cl      1  UNL1       -0.0822
     20 C          17.4822   42.1697    8.5985 C.3     1  UNL1        0.0677
     21 C          17.0409   40.1259    9.9617 C.3     1  UNL1        0.0005
     22 C          16.4256   41.1788    9.0593 C.3     1  UNL1        0.0080
@<TRIPOS>BOND
     1    21    22    1
     2    22    20    1
     3    20     1    1
     4     2     8   ar
     5     3     8   ar
     6     3    10    1
     7     9    13    1
     8    14    15   ar
     9    15    19    1
    10    16    17   ar
    11    18    13   ar
    12     4     5   ar
    13    10     9   am
    14     7     6   ar
    15     7     1   ar
    16     7     2   ar
    17     1     4   ar
    18     2     5   ar
    19     3     6   ar
    20     9    11    2
    21    13    14   ar
    22    15    16   ar
    23    17    18   ar
    24    10    12    1
@<TRIPOS>MOLECULE
MolPort-010-852-322 ChemDiv-G952-2909 MCULE-1941934245 PubChem-53095797 ZINC000064980480 ZINC64980480
 22 24 0 0 0
SMALL
GASTEIGER

@<TRIPOS>ATOM
      1 C          -1.9055   41.6552   15.1427 C.ar    1  UNL1        0.1643
      2 C          -0.6373   43.3206   14.9732 C.ar    1  UNL1        0.2195
      3 C           1.1537   42.5072   13.6493 C.ar    1  UNL1        0.1882
      4 N          -2.4677   42.6789   15.8411 N.ar    1  UNL1       -0.1310
      5 N          -1.6614   43.7431   15.7339 N.ar    1  UNL1       -0.1202
      6 N           0.2056   41.5525   13.8691 N.ar    1  UNL1       -0.1399
      7 N          -0.7589   42.0743   14.6087 N.ar    1  UNL1       -0.1881
      8 S           0.7713   44.0212   14.4010 S.2     1  UNL1       -0.0111
      9 C           2.3779   41.9471   11.4702 C.2     1  UNL1        0.2510
     10 N           2.3278   42.2352   12.8745 N.am    1  UNL1       -0.2592
     11 O           1.3209   41.9111   10.7839 O.2     1  UNL1       -0.2698
     12 H           3.1872   42.2473   13.3546 H       1  UNL1        0.1571
     13 C           3.6771   41.6905   10.8238 C.ar    1  UNL1        0.0546
     14 C           4.8582   41.6987   11.5799 C.ar    1  UNL1        0.0159
     15 C           6.0913   41.4555   10.9678 C.ar    1  UNL1        0.0578
     16 C           6.1525   41.2022    9.5950 C.ar    1  UNL1        0.0114
     17 C           4.9807   41.1922    8.8339 C.ar    1  UNL1        0.0010
     18 C           3.7475   41.4354    9.4458 C.ar    1  UNL1        0.0046
     19 CL          7.5584   41.4682   11.9217 Cl      1  UNL1       -0.0822
     20 C          -2.4631   40.2751   15.0204 C.3     1  UNL1        0.0677
     21 C          -2.0154   37.9717   14.1696 C.3     1  UNL1        0.0005
     22 C          -1.6437   39.4377   14.0520 C.3     1  UNL1        0.0080
@<TRIPOS>BOND
     1    21    22    1
     2    22    20    1
     3    20     1    1
     4     2     8   ar
     5     3     8   ar
     6     3    10    1
     7     9    13    1
     8    14    15   ar
     9    15    19    1
    10    16    17   ar
    11    18    13   ar
    12     4     5   ar
    13    10     9   am
    14     7     6   ar
    15     7     1   ar
    16     7     2   ar
    17     1     4   ar
    18     2     5   ar
    19     3     6   ar
    20     9    11    2
    21    13    14   ar
    22    15    16   ar
    23    17    18   ar
    24    10    12    1
@<TRIPOS>MOLECULE
MolPort-010-852-322 ChemDiv-G952-2909 MCULE-1941934245 PubChem-53095797 ZINC000064980480 ZINC64980480
 22 24 0 0 0
SMALL
GASTEIGER

@<TRIPOS>ATOM
      1 C          -1.8756   41.5814   15.3304 C.ar    1  UNL1        0.1643
      2 C          -0.6496   43.2415   14.9407 C.ar    1  UNL1        0.2195
      3 C           0.7700   42.4728   13.2040 C.ar    1  UNL1        0.1882
      4 N          -2.2409   42.5775   16.1826 N.ar    1  UNL1       -0.1310
      5 N          -1.4612   43.6383   15.9354 N.ar    1  UNL1       -0.1202
      6 N          -0.1194   41.5176   13.5980 N.ar    1  UNL1       -0.1399
      7 N          -0.8761   42.0140   14.5626 N.ar    1  UNL1       -0.1881
      8 S           0.6012   43.9546   14.0866 S.2     1  UNL1       -0.0111
      9 C           3.0531   41.7042   12.3334 C.2     1  UNL1        0.2510
     10 N           1.7271   42.2256   12.1669 N.am    1  UNL1       -0.2592
     11 O           3.4893   41.4128   13.4797 O.2     1  UNL1       -0.2698
     12 H           1.4463   42.4348   11.2468 H       1  UNL1        0.1571
     13 C           3.9134   41.5078   11.1532 C.ar    1  UNL1        0.0546
     14 C           3.3681   41.0388    9.9493 C.ar    1  UNL1        0.0159
     15 C           4.1833   40.8520    8.8291 C.ar    1  UNL1        0.0578
     16 C           5.5500   41.1329    8.9044 C.ar    1  UNL1        0.0114
     17 C           6.1019   41.6005   10.0998 C.ar    1  UNL1        0.0010
     18 C           5.2868   41.7874   11.2202 C.ar    1  UNL1        0.0046
     19 CL          3.4912   40.2662    7.3323 Cl      1  UNL1       -0.0822
     20 C          -2.4725   40.2132   15.2835 C.3     1  UNL1        0.0677
     21 C          -1.9680   38.1377   13.9922 C.3     1  UNL1        0.0005
     22 C          -2.3394   39.6055   13.8967 C.3     1  UNL1        0.0080
@<TRIPOS>BOND
     1    21    22    1
     2    22    20    1
     3    20     1    1
     4     2     8   ar
     5     3     8   ar
     6     3    10    1
     7     9    13    1
     8    14    15   ar
     9    15    19    1
    10    16    17   ar
    11    18    13   ar
    12     4     5   ar
    13    10     9   am
    14     7     6   ar
    15     7     1   ar
    16     7     2   ar
    17     1     4   ar
    18     2     5   ar
    19     3     6   ar
    20     9    11    2
    21    13    14   ar
    22    15    16   ar
    23    17    18   ar
    24    10    12    1
@<TRIPOS>MOLECULE
MolPort-010-852-322 ChemDiv-G952-2909 MCULE-1941934245 PubChem-53095797 ZINC000064980480 ZINC64980480
 22 24 0 0 0
SMALL
GASTEIGER

@<TRIPOS>ATOM
      1 C           9.5565   38.2302    7.5486 C.ar    1  UNL1        0.1643
      2 C           9.5024   39.3933    5.8008 C.ar    1  UNL1        0.2195
      3 C          11.3813   40.8199    6.0392 C.ar    1  UNL1        0.1882
      4 N           8.4739   37.8396    6.8224 N.ar    1  UNL1       -0.1310
      5 N           8.4374   38.5793    5.7062 N.ar    1  UNL1       -0.1202
      6 N          11.2482   39.9685    7.0957 N.ar    1  UNL1       -0.1399
      7 N          10.1866   39.2056    6.8951 N.ar    1  UNL1       -0.1881
      8 S          10.1431   40.6093    4.8450 S.2     1  UNL1       -0.0111
      9 C          13.5456   41.8943    6.8891 C.2     1  UNL1        0.2510
     10 N          12.4483   41.7737    5.9731 N.am    1  UNL1       -0.2592
     11 O          13.6457   41.1174    7.8770 O.2     1  UNL1       -0.2698
     12 H          12.4262   42.4109    5.2229 H       1  UNL1        0.1571
     13 C          14.5651   42.9361    6.6734 C.ar    1  UNL1        0.0546
     14 C          15.7790   42.8954    7.3746 C.ar    1  UNL1        0.0159
     15 C          16.7468   43.8833    7.1708 C.ar    1  UNL1        0.0578
     16 C          16.5081   44.9195    6.2643 C.ar    1  UNL1        0.0114
     17 C          15.3015   44.9681    5.5614 C.ar    1  UNL1        0.0010
     18 C          14.3335   43.9802    5.7650 C.ar    1  UNL1        0.0046
     19 CL         18.2578   43.8217    8.0516 Cl      1  UNL1       -0.0822
     20 C           9.9570   37.6806    8.8783 C.3     1  UNL1        0.0677
     21 C          11.4363   39.0843   10.3175 C.3     1  UNL1        0.0005
     22 C          11.3941   38.0472    9.2113 C.3     1  UNL1        0.0080
@<TRIPOS>BOND
     1    21    22    1
     2    22    20    1
     3    20     1    1
     4     2     8   ar
     5     3     8   ar
     6     3    10    1
     7     9    13    1
     8    14    15   ar
     9    15    19    1
    10    16    17   ar
    11    18    13   ar
    12     4     5   ar
    13    10     9   am
    14     7     6   ar
    15     7     1   ar
    16     7     2   ar
    17     1     4   ar
    18     2     5   ar
    19     3     6   ar
    20     9    11    2
    21    13    14   ar
    22    15    16   ar
    23    17    18   ar
    24    10    12    1
@<TRIPOS>MOLECULE
MolPort-010-852-322 ChemDiv-G952-2909 MCULE-1941934245 PubChem-53095797 ZINC000064980480 ZINC64980480
 22 24 0 0 0
SMALL
GASTEIGER

@<TRIPOS>ATOM
      1 C          11.8994   37.0303   10.1483 C.ar    1  UNL1        0.1643
      2 C          12.3514   38.2083    8.4693 C.ar    1  UNL1        0.2195
      3 C          14.2014   37.0857    7.5001 C.ar    1  UNL1        0.1882
      4 N          11.0262   38.0738   10.1250 N.ar    1  UNL1       -0.1310
      5 N          11.3115   38.8265    9.0543 N.ar    1  UNL1       -0.1202
      6 N          13.7518   36.4558    8.6226 N.ar    1  UNL1       -0.1399
      7 N          12.7234   37.1325    9.1061 N.ar    1  UNL1       -0.1881
      8 S          13.2942   38.5125    7.1198 S.2     1  UNL1       -0.0111
      9 C          15.8984   35.2766    6.8607 C.2     1  UNL1        0.2510
     10 N          15.3144   36.5824    6.7514 N.am    1  UNL1       -0.2592
     11 O          15.4390   34.4342    7.6784 O.2     1  UNL1       -0.2698
     12 H          15.7195   37.1946    6.0955 H       1  UNL1        0.1571
     13 C          17.0461   34.9170    6.0093 C.ar    1  UNL1        0.0546
     14 C          17.6729   35.8900    5.2173 C.ar    1  UNL1        0.0159
     15 C          18.7617   35.5500    4.4092 C.ar    1  UNL1        0.0578
     16 C          19.2319   34.2344    4.3868 C.ar    1  UNL1        0.0114
     17 C          18.6134   33.2584    5.1725 C.ar    1  UNL1        0.0010
     18 C          17.5246   33.5983    5.9808 C.ar    1  UNL1        0.0046
     19 CL         19.5358   36.7729    3.4254 Cl      1  UNL1       -0.0822
     20 C          11.9508   35.9613   11.1898 C.3     1  UNL1        0.0677
     21 C          14.2620   36.8075   11.6046 C.3     1  UNL1        0.0005
     22 C          13.3862   35.5729   11.5050 C.3     1  UNL1        0.0080
@<TRIPOS>BOND
     1    21    22    1
     2    22    20    1
     3    20     1    1
     4     2     8   ar
     5     3     8   ar
     6     3    10    1
     7     9    13    1
     8    14    15   ar
     9    15    19    1
    10    16    17   ar
    11    18    13   ar
    12     4     5   ar
    13    10     9   am
    14     7     6   ar
    15     7     1   ar
    16     7     2   ar
    17     1     4   ar
    18     2     5   ar
    19     3     6   ar
    20     9    11    2
    21    13    14   ar
    22    15    16   ar
    23    17    18   ar
    24    10    12    1
@<TRIPOS>MOLECULE
MolPort-010-852-322 ChemDiv-G952-2909 MCULE-1941934245 PubChem-53095797 ZINC000064980480 ZINC64980480
 22 24 0 0 0
SMALL
GASTEIGER

@<TRIPOS>ATOM
      1 C           3.9525   42.9262    9.2194 C.ar    1  UNL1        0.1643
      2 C           5.5785   44.0879    8.5735 C.ar    1  UNL1        0.2195
      3 C           7.4457   42.6858    8.9855 C.ar    1  UNL1        0.1882
      4 N           3.4640   44.1184    8.7813 N.ar    1  UNL1       -0.1310
      5 N           4.4990   44.8612    8.3675 N.ar    1  UNL1       -0.1202
      6 N           6.2716   42.0920    9.3428 N.ar    1  UNL1       -0.1399
      7 N           5.2782   42.9262    9.0846 N.ar    1  UNL1       -0.1881
      8 S           7.2255   44.2802    8.3431 S.2     1  UNL1       -0.0111
      9 C           9.8157   42.4732    9.9338 C.2     1  UNL1        0.2510
     10 N           8.7039   42.0201    9.1486 N.am    1  UNL1       -0.2592
     11 O           9.7517   43.5591   10.5710 O.2     1  UNL1       -0.2698
     12 H           8.8169   41.1652    8.6737 H       1  UNL1        0.1571
     13 C          11.0441   41.6616    9.9957 C.ar    1  UNL1        0.0546
     14 C          12.0605   41.8414    9.0462 C.ar    1  UNL1        0.0159
     15 C          13.2262   41.0721    9.1039 C.ar    1  UNL1        0.0578
     16 C          13.3844   40.1170   10.1116 C.ar    1  UNL1        0.0114
     17 C          12.3769   39.9310   11.0617 C.ar    1  UNL1        0.0010
     18 C          11.2111   40.7004   11.0042 C.ar    1  UNL1        0.0046
     19 CL         14.4875   41.3056    7.9135 Cl      1  UNL1       -0.0822
     20 C           3.1412   41.8100    9.7907 C.3     1  UNL1        0.0677
     21 C           3.9289   40.2883   11.6056 C.3     1  UNL1        0.0005
     22 C           4.0166   40.6136   10.1265 C.3     1  UNL1        0.0080
@<TRIPOS>BOND
     1    21    22    1
     2    22    20    1
     3    20     1    1
     4     2     8   ar
     5     3     8   ar
     6     3    10    1
     7     9    13    1
     8    14    15   ar
     9    15    19    1
    10    16    17   ar
    11    18    13   ar
    12     4     5   ar
    13    10     9   am
    14     7     6   ar
    15     7     1   ar
    16     7     2   ar
    17     1     4   ar
    18     2     5   ar
    19     3     6   ar
    20     9    11    2
    21    13    14   ar
    22    15    16   ar
    23    17    18   ar
    24    10    12    1
@<TRIPOS>MOLECULE
MolPort-010-852-322 ChemDiv-G952-2909 MCULE-1941934245 PubChem-53095797 ZINC000064980480 ZINC64980480
 22 24 0 0 0
SMALL
GASTEIGER

@<TRIPOS>ATOM
      1 C           7.1899   40.9566    6.6759 C.ar    1  UNL1        0.1643
      2 C           8.6928   40.1040    5.4822 C.ar    1  UNL1        0.2195
      3 C          10.5423   41.5480    5.8236 C.ar    1  UNL1        0.1882
      4 N           6.6628   39.8624    6.0620 N.ar    1  UNL1       -0.1310
      5 N           7.6198   39.3157    5.3006 N.ar    1  UNL1       -0.1202
      6 N           9.4479   41.9418    6.5348 N.ar    1  UNL1       -0.1399
      7 N           8.4605   41.0940    6.2989 N.ar    1  UNL1       -0.1881
      8 S          10.2567   40.1193    4.8850 S.2     1  UNL1       -0.0111
      9 C          12.9265   41.9513    6.6686 C.2     1  UNL1        0.2510
     10 N          11.7749   42.2763    5.8774 N.am    1  UNL1       -0.2592
     11 O          12.9256   40.9373    7.4177 O.2     1  UNL1       -0.2698
     12 H          11.8379   43.0815    5.3143 H       1  UNL1        0.1571
     13 C          14.1215   42.8111    6.6053 C.ar    1  UNL1        0.0546
     14 C          15.2656   42.4899    7.3501 C.ar    1  UNL1        0.0159
     15 C          16.3998   43.3049    7.2909 C.ar    1  UNL1        0.0578
     16 C          16.3986   44.4473    6.4863 C.ar    1  UNL1        0.0114
     17 C          15.2632   44.7751    5.7409 C.ar    1  UNL1        0.0010
     18 C          14.1288   43.9602    5.8000 C.ar    1  UNL1        0.0046
     19 CL         17.8215   42.8936    8.2248 Cl      1  UNL1       -0.0822
     20 C           6.4567   41.8759    7.5966 C.3     1  UNL1        0.0677
     21 C           5.6484   44.2071    7.9731 C.3     1  UNL1        0.0005
     22 C           6.4094   43.2881    7.0364 C.3     1  UNL1        0.0080
@<TRIPOS>BOND
     1    21    22    1
     2    22    20    1
     3    20     1    1
     4     2     8   ar
     5     3     8   ar
     6     3    10    1
     7     9    13    1
     8    14    15   ar
     9    15    19    1
    10    16    17   ar
    11    18    13   ar
    12     4     5   ar
    13    10     9   am
    14     7     6   ar
    15     7     1   ar
    16     7     2   ar
    17     1     4   ar
    18     2     5   ar
    19     3     6   ar
    20     9    11    2
    21    13    14   ar
    22    15    16   ar
    23    17    18   ar
    24    10    12    1
@<TRIPOS>MOLECULE
MolPort-010-852-322 ChemDiv-G952-2909 MCULE-1941934245 PubChem-53095797 ZINC000064980480 ZINC64980480
 22 24 0 0 0
SMALL
GASTEIGER

@<TRIPOS>ATOM
      1 C          12.2213   36.7779   10.0558 C.ar    1  UNL1        0.1643
      2 C          11.2291   38.4146    9.1913 C.ar    1  UNL1        0.2195
      3 C          12.9988   39.8931    8.6396 C.ar    1  UNL1        0.1882
      4 N          10.8860   36.5168   10.0833 N.ar    1  UNL1       -0.1310
      5 N          10.2505   37.5588    9.5314 N.ar    1  UNL1       -0.1202
      6 N          13.4529   38.7456    9.2190 N.ar    1  UNL1       -0.1399
      7 N          12.4171   37.9714    9.4966 N.ar    1  UNL1       -0.1881
      8 S          11.2733   39.9306    8.4824 S.2     1  UNL1       -0.0111
      9 C          15.2810   41.0544    8.5759 C.2     1  UNL1        0.2510
     10 N          13.8954   40.9312    8.2257 N.am    1  UNL1       -0.2592
     11 O          15.8334   40.2007    9.3212 O.2     1  UNL1       -0.2698
     12 H          13.5228   41.6307    7.6417 H       1  UNL1        0.1571
     13 C          16.0659   42.1898    8.0599 C.ar    1  UNL1        0.0546
     14 C          15.4710   43.1345    7.2110 C.ar    1  UNL1        0.0159
     15 C          16.2147   44.2120    6.7208 C.ar    1  UNL1        0.0578
     16 C          17.5588   44.3529    7.0757 C.ar    1  UNL1        0.0114
     17 C          18.1596   43.4164    7.9209 C.ar    1  UNL1        0.0010
     18 C          17.4161   42.3388    8.4112 C.ar    1  UNL1        0.0046
     19 CL         15.4613   45.3844    5.6623 Cl      1  UNL1       -0.0822
     20 C          13.2935   35.8887   10.5944 C.3     1  UNL1        0.0677
     21 C          14.9154   35.4800    8.7418 C.3     1  UNL1        0.0005
     22 C          13.7642   34.8992    9.5410 C.3     1  UNL1        0.0080
@<TRIPOS>BOND
     1    21    22    1
     2    22    20    1
     3    20     1    1
     4     2     8   ar
     5     3     8   ar
     6     3    10    1
     7     9    13    1
     8    14    15   ar
     9    15    19    1
    10    16    17   ar
    11    18    13   ar
    12     4     5   ar
    13    10     9   am
    14     7     6   ar
    15     7     1   ar
    16     7     2   ar
    17     1     4   ar
    18     2     5   ar
    19     3     6   ar
    20     9    11    2
    21    13    14   ar
    22    15    16   ar
    23    17    18   ar
    24    10    12    1
@<TRIPOS>MOLECULE
MolPort-010-852-322 ChemDiv-G952-2909 MCULE-1941934245 PubChem-53095797 ZINC000064980480 ZINC64980480
 22 24 0 0 0
SMALL
GASTEIGER

@<TRIPOS>ATOM
      1 C          15.0786   40.9723    8.9336 C.ar    1  UNL1        0.1643
      2 C          13.6328   39.9654   10.0765 C.ar    1  UNL1        0.2195
      3 C          11.6000   40.9786    9.3960 C.ar    1  UNL1        0.1882
      4 N          15.7250   40.0689    9.7197 N.ar    1  UNL1       -0.1310
      5 N          14.8050   39.4243   10.4492 N.ar    1  UNL1       -0.1202
      6 N          12.6766   41.5061    8.7470 N.ar    1  UNL1       -0.1399
      7 N          13.7700   40.8954    9.1725 N.ar    1  UNL1       -0.1881
      8 S          12.0354   39.7341   10.5207 S.2     1  UNL1       -0.0111
      9 C           9.6519   42.6151    9.6929 C.2     1  UNL1        0.2510
     10 N          10.2685   41.4429    9.1421 N.am    1  UNL1       -0.2592
     11 O          10.2848   43.3594   10.4897 O.2     1  UNL1       -0.2698
     12 H           9.7214   40.9027    8.5272 H       1  UNL1        0.1571
     13 C           8.2656   42.9522    9.3240 C.ar    1  UNL1        0.0546
     14 C           7.2600   41.9764    9.3817 C.ar    1  UNL1        0.0159
     15 C           5.9446   42.2950    9.0319 C.ar    1  UNL1        0.0578
     16 C           5.6249   43.5919    8.6217 C.ar    1  UNL1        0.0114
     17 C           6.6203   44.5704    8.5611 C.ar    1  UNL1        0.0010
     18 C           7.9359   44.2520    8.9109 C.ar    1  UNL1        0.0046
     19 CL          4.6984   41.0687    9.1081 Cl      1  UNL1       -0.0822
     20 C          15.7297   41.9209    7.9814 C.3     1  UNL1        0.0677
     21 C          17.4681   43.6150    8.5627 C.3     1  UNL1        0.0005
     22 C          17.1903   42.1403    8.3405 C.3     1  UNL1        0.0080
@<TRIPOS>BOND
     1    21    22    1
     2    22    20    1
     3    20     1    1
     4     2     8   ar
     5     3     8   ar
     6     3    10    1
     7     9    13    1
     8    14    15   ar
     9    15    19    1
    10    16    17   ar
    11    18    13   ar
    12     4     5   ar
    13    10     9   am
    14     7     6   ar
    15     7     1   ar
    16     7     2   ar
    17     1     4   ar
    18     2     5   ar
    19     3     6   ar
    20     9    11    2
    21    13    14   ar
    22    15    16   ar
    23    17    18   ar
    24    10    12    1
@<TRIPOS>MOLECULE
MolPort-010-852-322 ChemDiv-G952-2909 MCULE-1941934245 PubChem-53095797 ZINC000064980480 ZINC64980480
 22 24 0 0 0
SMALL
GASTEIGER

@<TRIPOS>ATOM
      1 C           7.7596   41.8687    6.6692 C.ar    1  UNL1        0.1643
      2 C           9.0884   40.5139    5.7696 C.ar    1  UNL1        0.2195
      3 C          11.1450   40.9645    6.8602 C.ar    1  UNL1        0.1882
      4 N           7.0649   41.1617    5.7367 N.ar    1  UNL1       -0.1310
      5 N           7.9098   40.2958    5.1619 N.ar    1  UNL1       -0.1202
      6 N          10.1368   41.7578    7.3217 N.ar    1  UNL1       -0.1399
      7 N           9.0251   41.4518    6.6736 N.ar    1  UNL1       -0.1881
      8 S          10.6270   39.8714    5.6191 S.2     1  UNL1       -0.0111
      9 C          13.4747   42.0213    6.9889 C.2     1  UNL1        0.2510
     10 N          12.4772   41.0663    7.3773 N.am    1  UNL1       -0.2592
     11 O          13.2255   42.8880    6.1080 O.2     1  UNL1       -0.2698
     12 H          12.7342   40.4148    8.0693 H       1  UNL1        0.1571
     13 C          14.8033   41.9885    7.6255 C.ar    1  UNL1        0.0546
     14 C          15.7718   42.9469    7.2933 C.ar    1  UNL1        0.0159
     15 C          17.0325   42.9167    7.8966 C.ar    1  UNL1        0.0578
     16 C          17.3343   41.9279    8.8366 C.ar    1  UNL1        0.0114
     17 C          16.3755   40.9690    9.1737 C.ar    1  UNL1        0.0010
     18 C          15.1146   40.9990    8.5705 C.ar    1  UNL1        0.0046
     19 CL         18.2328   44.1180    7.4739 Cl      1  UNL1       -0.0822
     20 C           7.2051   42.9589    7.5262 C.3     1  UNL1        0.0677
     21 C           5.3604   44.6262    7.7439 C.3     1  UNL1        0.0005
     22 C           6.1453   43.7546    6.7818 C.3     1  UNL1        0.0080
@<TRIPOS>BOND
     1    21    22    1
     2    22    20    1
     3    20     1    1
     4     2     8   ar
     5     3     8   ar
     6     3    10    1
     7     9    13    1
     8    14    15   ar
     9    15    19    1
    10    16    17   ar
    11    18    13   ar
    12     4     5   ar
    13    10     9   am
    14     7     6   ar
    15     7     1   ar
    16     7     2   ar
    17     1     4   ar
    18     2     5   ar
    19     3     6   ar
    20     9    11    2
    21    13    14   ar
    22    15    16   ar
    23    17    18   ar
    24    10    12    1
