@<TRIPOS>MOLECULE
MolPort-020-292-568 MCULE-3374357361 PubChem-110265036
 34 38 0 0 0
SMALL
GASTEIGER

@<TRIPOS>ATOM
      1 C          13.0905   38.9331    9.3451 C.3     1  UNL1        0.0602
      2 C          12.9242   39.7764   10.6113 C.3     1  UNL1        0.0094
      3 C          13.7347   39.1776   11.7597 C.3     1  UNL1        0.0220
      4 C          15.2053   39.0837   11.3644 C.3     1  UNL1        0.0937
      5 C          14.5664   38.8164    8.9672 C.3     1  UNL1        0.0996
      6 C          16.2556   37.2402   10.0176 C.2     1  UNL1        0.2490
      7 N          15.3243   38.3326   10.1180 N.am    1  UNL1       -0.2757
      8 O          17.2110   37.1728   10.8393 O.2     1  UNL1       -0.2699
      9 C          16.1257   36.1820    8.9880 C.ar    1  UNL1        0.0534
     10 C          16.9544   36.2073    7.8569 C.ar    1  UNL1        0.0015
     11 C          16.8718   35.2038    6.8877 C.ar    1  UNL1       -0.0087
     12 C          15.9362   34.1599    7.0325 C.ar    1  UNL1        0.0438
     13 C          15.1205   34.1235    8.1721 C.ar    1  UNL1        0.0143
     14 C          15.2179   35.1247    9.1409 C.ar    1  UNL1        0.0058
     15 C          16.5969   33.2610    4.7772 C.3     1  UNL1        0.0912
     16 C          17.9503   33.9147    5.0324 C.3     1  UNL1        0.0261
     17 C          17.7426   35.2882    5.6672 C.3     1  UNL1        0.0294
     18 C          15.0822   31.9165    6.2459 C.3     1  UNL1        0.1122
     19 N          15.8625   33.1255    6.0323 N.pl3   1  UNL1       -0.3060
     20 C           9.0884   38.8412    6.4458 C.3     1  UNL1        0.0521
     21 C          10.3806   39.4710    6.8216 C.ar    1  UNL1        0.0602
     22 C          10.8373   40.5930    6.1278 C.ar    1  UNL1        0.0294
     23 C          12.0550   41.1832    6.4902 C.ar    1  UNL1        0.0528
     24 C          12.7906   40.6325    7.5424 C.ar    1  UNL1        0.0294
     25 C          12.3050   39.5076    8.2140 C.ar    1  UNL1        0.0611
     26 N          11.1157   38.9562    7.8427 N.ar    1  UNL1       -0.2538
     27 N          12.5757   42.3369    5.8150 N.pl3   1  UNL1       -0.2825
     28 H          12.0446   42.6761    5.0586 H       1  UNL1        0.1551
     29 C          13.7813   43.0526    6.1159 C.ar    1  UNL1        0.2207
     30 C          15.9089   43.1736    7.1489 C.ar    1  UNL1        0.1034
     31 C          16.0828   44.4688    6.6656 C.ar    1  UNL1        0.0414
     32 C          15.0642   45.0294    5.8974 C.ar    1  UNL1        0.1034
     33 N          14.7683   42.4916    6.8671 N.ar    1  UNL1       -0.2120
     34 N          13.9377   44.3155    5.6375 N.ar    1  UNL1       -0.2120
@<TRIPOS>BOND
     1    20    21    1
     2    21    26   ar
     3    22    23   ar
     4    23    27    1
     5    24    25   ar
     6     1    25    1
     7     1     2    1
     8     2     3    1
     9     3     4    1
    10     4     7    1
    11     5     7    1
    12     5     1    1
    13     6     9    1
    14    10    11   ar
    15    12    13   ar
    16    12    19    1
    17    14     9   ar
    18    15    19    1
    19    15    16    1
    20    16    17    1
    21    17    11    1
    22    18    19    1
    23    29    34   ar
    24    30    33   ar
    25    31    32   ar
    26     7     6   am
    27    27    29    1
    28    21    22   ar
    29    23    24   ar
    30    25    26   ar
    31     6     8    2
    32     9    10   ar
    33    11    12   ar
    34    13    14   ar
    35    29    33   ar
    36    30    31   ar
    37    32    34   ar
    38    27    28    1
@<TRIPOS>MOLECULE
MolPort-020-292-568 MCULE-3374357361 PubChem-110265036
 34 38 0 0 0
SMALL
GASTEIGER

@<TRIPOS>ATOM
      1 C          13.6020   39.3805    9.3600 C.3     1  UNL1        0.0602
      2 C          13.0950   39.8700   10.7185 C.3     1  UNL1        0.0094
      3 C          13.5510   38.9246   11.8288 C.3     1  UNL1        0.0220
      4 C          15.0729   38.8179   11.8283 C.3     1  UNL1        0.0937
      5 C          15.1240   39.2469    9.3707 C.3     1  UNL1        0.0996
      6 C          16.4457   37.3160   10.3534 C.2     1  UNL1        0.2490
      7 N          15.5294   38.4157   10.5010 N.am    1  UNL1       -0.2757
      8 O          17.1346   36.9556   11.3475 O.2     1  UNL1       -0.2699
      9 C          16.6011   36.5818    9.0753 C.ar    1  UNL1        0.0534
     10 C          17.8843   36.2595    8.6105 C.ar    1  UNL1        0.0015
     11 C          18.0553   35.5411    7.4240 C.ar    1  UNL1       -0.0087
     12 C          16.9311   35.1467    6.6711 C.ar    1  UNL1        0.0438
     13 C          15.6474   35.4520    7.1447 C.ar    1  UNL1        0.0143
     14 C          15.4861   36.1606    8.3372 C.ar    1  UNL1        0.0058
     15 C          18.4521   34.2315    4.8879 C.3     1  UNL1        0.0912
     16 C          19.4710   34.0407    6.0057 C.3     1  UNL1        0.0261
     17 C          19.4451   35.2539    6.9332 C.3     1  UNL1        0.0294
     18 C          15.9949   33.7781    4.7656 C.3     1  UNL1        0.1122
     19 N          17.1159   34.4001    5.4528 N.pl3   1  UNL1       -0.3060
     20 C          10.5224   40.4173    5.6354 C.3     1  UNL1        0.0521
     21 C          11.6841   40.8014    6.4784 C.ar    1  UNL1        0.0602
     22 C          12.3420   42.0112    6.2495 C.ar    1  UNL1        0.0294
     23 C          13.4344   42.3679    7.0507 C.ar    1  UNL1        0.0528
     24 C          13.8450   41.5002    8.0655 C.ar    1  UNL1        0.0294
     25 C          13.1651   40.2960    8.2657 C.ar    1  UNL1        0.0611
     26 N          12.1036   39.9761    7.4738 N.ar    1  UNL1       -0.2538
     27 N          14.1498   43.5973    6.8637 N.pl3   1  UNL1       -0.2825
     28 H          13.6022   44.4051    6.7341 H       1  UNL1        0.1551
     29 C          15.5714   43.7839    6.8440 C.ar    1  UNL1        0.2207
     30 C          17.6096   44.0064    5.6589 C.ar    1  UNL1        0.1034
     31 C          18.3050   44.1471    6.8581 C.ar    1  UNL1        0.0414
     32 C          17.5836   44.1000    8.0493 C.ar    1  UNL1        0.1034
     33 N          16.2629   43.8287    5.6722 N.ar    1  UNL1       -0.2120
     34 N          16.2370   43.9202    8.0215 N.ar    1  UNL1       -0.2120
@<TRIPOS>BOND
     1    20    21    1
     2    21    26   ar
     3    22    23   ar
     4    23    27    1
     5    24    25   ar
     6     1    25    1
     7     1     2    1
     8     2     3    1
     9     3     4    1
    10     4     7    1
    11     5     7    1
    12     5     1    1
    13     6     9    1
    14    10    11   ar
    15    12    13   ar
    16    12    19    1
    17    14     9   ar
    18    15    19    1
    19    15    16    1
    20    16    17    1
    21    17    11    1
    22    18    19    1
    23    29    34   ar
    24    30    33   ar
    25    31    32   ar
    26     7     6   am
    27    27    29    1
    28    21    22   ar
    29    23    24   ar
    30    25    26   ar
    31     6     8    2
    32     9    10   ar
    33    11    12   ar
    34    13    14   ar
    35    29    33   ar
    36    30    31   ar
    37    32    34   ar
    38    27    28    1
@<TRIPOS>MOLECULE
MolPort-020-292-568 MCULE-3374357361 PubChem-110265036
 34 38 0 0 0
SMALL
GASTEIGER

@<TRIPOS>ATOM
      1 C          12.3311   39.1438    8.9406 C.3     1  UNL1        0.0602
      2 C          11.7934   40.0095   10.0823 C.3     1  UNL1        0.0094
      3 C          12.2327   39.4434   11.4317 C.3     1  UNL1        0.0220
      4 C          13.7550   39.3601   11.4897 C.3     1  UNL1        0.0937
      5 C          13.8534   39.0382    9.0173 C.3     1  UNL1        0.0996
      6 C          15.1672   37.5040   10.5539 C.2     1  UNL1        0.2490
      7 N          14.2411   38.5864   10.3509 N.am    1  UNL1       -0.2757
      8 O          15.8381   37.4645   11.6221 O.2     1  UNL1       -0.2699
      9 C          15.3534   36.4244    9.5556 C.ar    1  UNL1        0.0534
     10 C          14.6025   35.2446    9.6594 C.ar    1  UNL1        0.0015
     11 C          14.7381   34.2252    8.7130 C.ar    1  UNL1       -0.0087
     12 C          15.6500   34.3694    7.6482 C.ar    1  UNL1        0.0438
     13 C          16.3873   35.5563    7.5330 C.ar    1  UNL1        0.0143
     14 C          16.2369   36.5740    8.4773 C.ar    1  UNL1        0.0058
     15 C          15.1312   32.0262    6.8925 C.3     1  UNL1        0.0912
     16 C          13.7713   32.2298    7.5509 C.3     1  UNL1        0.0261
     17 C          13.9517   32.9571    8.8818 C.3     1  UNL1        0.0294
     18 C          16.5288   33.5095    5.4417 C.3     1  UNL1        0.1122
     19 N          15.7784   33.3169    6.6728 N.pl3   1  UNL1       -0.3060
     20 C           9.6859   38.6977    4.7890 C.3     1  UNL1        0.0521
     21 C          10.6370   39.4792    5.6212 C.ar    1  UNL1        0.0602
     22 C          11.1137   40.7097    5.1657 C.ar    1  UNL1        0.0294
     23 C          12.0075   41.4422    5.9575 C.ar    1  UNL1        0.0528
     24 C          12.4058   40.9223    7.1914 C.ar    1  UNL1        0.0294
     25 C          11.9107   39.6864    7.6156 C.ar    1  UNL1        0.0611
     26 N          11.0397   38.9970    6.8267 N.ar    1  UNL1       -0.2538
     27 N          12.5313   42.7119    5.5433 N.pl3   1  UNL1       -0.2825
     28 H          11.9686   43.2360    4.9285 H       1  UNL1        0.1551
     29 C          13.7806   43.3048    5.9223 C.ar    1  UNL1        0.2207
     30 C          15.2990   45.1219    5.8906 C.ar    1  UNL1        0.1034
     31 C          16.1948   44.4023    6.6788 C.ar    1  UNL1        0.0414
     32 C          15.8390   43.1146    7.0749 C.ar    1  UNL1        0.1034
     33 N          14.1143   44.5645    5.5283 N.ar    1  UNL1       -0.2120
     34 N          14.6450   42.5914    6.6918 N.ar    1  UNL1       -0.2120
@<TRIPOS>BOND
     1    20    21    1
     2    21    26   ar
     3    22    23   ar
     4    23    27    1
     5    24    25   ar
     6     1    25    1
     7     1     2    1
     8     2     3    1
     9     3     4    1
    10     4     7    1
    11     5     7    1
    12     5     1    1
    13     6     9    1
    14    10    11   ar
    15    12    13   ar
    16    12    19    1
    17    14     9   ar
    18    15    19    1
    19    15    16    1
    20    16    17    1
    21    17    11    1
    22    18    19    1
    23    29    34   ar
    24    30    33   ar
    25    31    32   ar
    26     7     6   am
    27    27    29    1
    28    21    22   ar
    29    23    24   ar
    30    25    26   ar
    31     6     8    2
    32     9    10   ar
    33    11    12   ar
    34    13    14   ar
    35    29    33   ar
    36    30    31   ar
    37    32    34   ar
    38    27    28    1
@<TRIPOS>MOLECULE
MolPort-020-292-568 MCULE-3374357361 PubChem-110265036
 34 38 0 0 0
SMALL
GASTEIGER

@<TRIPOS>ATOM
      1 C          10.9343   41.4527    9.3635 C.3     1  UNL1        0.0602
      2 C          12.1241   41.0631   10.2436 C.3     1  UNL1        0.0094
      3 C          11.7622   41.2060   11.7212 C.3     1  UNL1        0.0220
      4 C          10.5471   40.3420   12.0447 C.3     1  UNL1        0.0937
      5 C           9.7103   40.6058    9.7088 C.3     1  UNL1        0.0996
      6 C           8.1444   40.9770   11.6713 C.2     1  UNL1        0.2490
      7 N           9.4522   40.6901   11.1438 N.am    1  UNL1       -0.2757
      8 O           7.8482   40.5693   12.8284 O.2     1  UNL1       -0.2699
      9 C           7.1342   41.7463   10.9069 C.ar    1  UNL1        0.0534
     10 C           7.5410   42.5556    9.8363 C.ar    1  UNL1        0.0015
     11 C           6.6040   43.2664    9.0812 C.ar    1  UNL1       -0.0087
     12 C           5.2343   43.1878    9.4033 C.ar    1  UNL1        0.0438
     13 C           4.8249   42.3643   10.4615 C.ar    1  UNL1        0.0143
     14 C           5.7674   41.6491   11.2032 C.ar    1  UNL1        0.0058
     15 C           4.7233   44.8946    7.6266 C.3     1  UNL1        0.0912
     16 C           5.9847   44.3926    6.9330 C.3     1  UNL1        0.0261
     17 C           7.0801   44.1589    7.9714 C.3     1  UNL1        0.0294
     18 C           2.8443   43.6938    8.7607 C.3     1  UNL1        0.1122
     19 N           4.2742   43.9181    8.6154 N.pl3   1  UNL1       -0.3060
     20 C          10.2450   39.2168    5.0095 C.3     1  UNL1        0.0521
     21 C          10.9414   40.2486    5.8207 C.ar    1  UNL1        0.0602
     22 C          11.8884   41.0828    5.2238 C.ar    1  UNL1        0.0294
     23 C          12.5383   42.0554    5.9945 C.ar    1  UNL1        0.0528
     24 C          12.2245   42.1692    7.3510 C.ar    1  UNL1        0.0294
     25 C          11.2732   41.3163    7.9167 C.ar    1  UNL1        0.0611
     26 N          10.6538   40.3817    7.1427 N.ar    1  UNL1       -0.2538
     27 N          13.5198   42.9412    5.4376 N.pl3   1  UNL1       -0.2825
     28 H          13.2966   43.3490    4.5698 H       1  UNL1        0.1551
     29 C          14.7888   43.3003    6.0004 C.ar    1  UNL1        0.2207
     30 C          16.7276   44.6600    6.0248 C.ar    1  UNL1        0.1034
     31 C          17.2230   43.9543    7.1194 C.ar    1  UNL1        0.0414
     32 C          16.4567   42.9103    7.6337 C.ar    1  UNL1        0.1034
     33 N          15.5262   44.3233    5.4876 N.ar    1  UNL1       -0.2120
     34 N          15.2599   42.6033    7.0685 N.ar    1  UNL1       -0.2120
@<TRIPOS>BOND
     1    20    21    1
     2    21    26   ar
     3    22    23   ar
     4    23    27    1
     5    24    25   ar
     6     1    25    1
     7     1     2    1
     8     2     3    1
     9     3     4    1
    10     4     7    1
    11     5     7    1
    12     5     1    1
    13     6     9    1
    14    10    11   ar
    15    12    13   ar
    16    12    19    1
    17    14     9   ar
    18    15    19    1
    19    15    16    1
    20    16    17    1
    21    17    11    1
    22    18    19    1
    23    29    34   ar
    24    30    33   ar
    25    31    32   ar
    26     7     6   am
    27    27    29    1
    28    21    22   ar
    29    23    24   ar
    30    25    26   ar
    31     6     8    2
    32     9    10   ar
    33    11    12   ar
    34    13    14   ar
    35    29    33   ar
    36    30    31   ar
    37    32    34   ar
    38    27    28    1
@<TRIPOS>MOLECULE
MolPort-020-292-568 MCULE-3374357361 PubChem-110265036
 34 38 0 0 0
SMALL
GASTEIGER

@<TRIPOS>ATOM
      1 C          10.0649   41.7389   10.2495 C.3     1  UNL1        0.0602
      2 C          10.8864   41.1800   11.4134 C.3     1  UNL1        0.0094
      3 C          10.0659   41.2010   12.7022 C.3     1  UNL1        0.0220
      4 C           8.7823   40.3981   12.5144 C.3     1  UNL1        0.0937
      5 C           8.7663   40.9515   10.0813 C.3     1  UNL1        0.0996
      6 C           6.6582   41.2370   11.4654 C.2     1  UNL1        0.2490
      7 N           8.0556   40.9112   11.3566 N.am    1  UNL1       -0.2757
      8 O           5.9853   40.7388   12.4097 O.2     1  UNL1       -0.2699
      9 C           5.9818   42.1486   10.5124 C.ar    1  UNL1        0.0534
     10 C           6.7080   42.7082    9.4513 C.ar    1  UNL1        0.0015
     11 C           6.0852   43.5460    8.5222 C.ar    1  UNL1       -0.0087
     12 C           4.7157   43.8506    8.6554 C.ar    1  UNL1        0.0438
     13 C           3.9846   43.2766    9.7049 C.ar    1  UNL1        0.0143
     14 C           4.6131   42.4316   10.6221 C.ar    1  UNL1        0.0058
     15 C           4.8812   45.4281    6.7021 C.3     1  UNL1        0.0912
     16 C           6.0364   44.5522    6.2304 C.3     1  UNL1        0.0261
     17 C           6.9043   44.1639    7.4257 C.3     1  UNL1        0.0294
     18 C           2.6344   44.8698    7.6503 C.3     1  UNL1        0.1122
     19 N           4.0796   44.7094    7.6891 N.pl3   1  UNL1       -0.3060
     20 C          10.2097   41.5742    5.3116 C.3     1  UNL1        0.0521
     21 C          10.9284   41.6496    6.6098 C.ar    1  UNL1        0.0602
     22 C          12.3225   41.7178    6.6320 C.ar    1  UNL1        0.0294
     23 C          12.9928   41.7920    7.8599 C.ar    1  UNL1        0.0528
     24 C          12.2481   41.7945    9.0417 C.ar    1  UNL1        0.0294
     25 C          10.8538   41.7228    8.9830 C.ar    1  UNL1        0.0611
     26 N          10.2279   41.6552    7.7748 N.ar    1  UNL1       -0.2538
     27 N          14.4230   41.8643    7.9465 N.pl3   1  UNL1       -0.2825
     28 H          14.8588   42.5543    7.3957 H       1  UNL1        0.1551
     29 C          15.2903   41.0465    8.7434 C.ar    1  UNL1        0.2207
     30 C          17.4429   40.5218    9.5795 C.ar    1  UNL1        0.1034
     31 C          16.9169   39.4458   10.2915 C.ar    1  UNL1        0.0414
     32 C          15.5483   39.2000   10.2013 C.ar    1  UNL1        0.1034
     33 N          16.6256   41.2993    8.8226 N.ar    1  UNL1       -0.2120
     34 N          14.7634   40.0001    9.4331 N.ar    1  UNL1       -0.2120
@<TRIPOS>BOND
     1    20    21    1
     2    21    26   ar
     3    22    23   ar
     4    23    27    1
     5    24    25   ar
     6     1    25    1
     7     1     2    1
     8     2     3    1
     9     3     4    1
    10     4     7    1
    11     5     7    1
    12     5     1    1
    13     6     9    1
    14    10    11   ar
    15    12    13   ar
    16    12    19    1
    17    14     9   ar
    18    15    19    1
    19    15    16    1
    20    16    17    1
    21    17    11    1
    22    18    19    1
    23    29    34   ar
    24    30    33   ar
    25    31    32   ar
    26     7     6   am
    27    27    29    1
    28    21    22   ar
    29    23    24   ar
    30    25    26   ar
    31     6     8    2
    32     9    10   ar
    33    11    12   ar
    34    13    14   ar
    35    29    33   ar
    36    30    31   ar
    37    32    34   ar
    38    27    28    1
@<TRIPOS>MOLECULE
MolPort-020-292-568 MCULE-3374357361 PubChem-110265036
 34 38 0 0 0
SMALL
GASTEIGER

@<TRIPOS>ATOM
      1 C          13.6735   39.8849    9.2558 C.3     1  UNL1        0.0602
      2 C          12.9371   40.3747   10.5047 C.3     1  UNL1        0.0094
      3 C          13.0310   39.3345   11.6200 C.3     1  UNL1        0.0220
      4 C          14.4946   39.0431   11.9372 C.3     1  UNL1        0.0937
      5 C          15.1318   39.5663    9.5820 C.3     1  UNL1        0.0996
      6 C          15.9846   37.4487   10.6909 C.2     1  UNL1        0.2490
      7 N          15.1848   38.6448   10.7137 N.am    1  UNL1       -0.2757
      8 O          16.3942   36.9652   11.7822 O.2     1  UNL1       -0.2699
      9 C          16.3357   36.7558    9.4286 C.ar    1  UNL1        0.0534
     10 C          17.6764   36.4506    9.1529 C.ar    1  UNL1        0.0015
     11 C          18.0290   35.7706    7.9840 C.ar    1  UNL1       -0.0087
     12 C          17.0337   35.3984    7.0581 C.ar    1  UNL1        0.0438
     13 C          15.6913   35.6864    7.3418 C.ar    1  UNL1        0.0143
     14 C          15.3475   36.3564    8.5178 C.ar    1  UNL1        0.0058
     15 C          18.8121   34.5430    5.4972 C.3     1  UNL1        0.0912
     16 C          19.6520   34.3184    6.7495 C.3     1  UNL1        0.0261
     17 C          19.4787   35.5014    7.6998 C.3     1  UNL1        0.0294
     18 C          16.4044   34.0896    4.9914 C.3     1  UNL1        0.1122
     19 N          17.4050   34.6913    5.8590 N.pl3   1  UNL1       -0.3060
     20 C          15.7959   43.4399    6.5559 C.3     1  UNL1        0.0521
     21 C          14.6087   42.5975    6.8541 C.ar    1  UNL1        0.0602
     22 C          13.4420   42.7456    6.1020 C.ar    1  UNL1        0.0294
     23 C          12.3280   41.9454    6.3870 C.ar    1  UNL1        0.0528
     24 C          12.4085   41.0129    7.4239 C.ar    1  UNL1        0.0294
     25 C          13.5913   40.8923    8.1581 C.ar    1  UNL1        0.0611
     26 N          14.6606   41.6811    7.8568 N.ar    1  UNL1       -0.2538
     27 N          11.1022   42.0517    5.6493 N.pl3   1  UNL1       -0.2825
     28 H          11.0460   42.7908    5.0014 H       1  UNL1        0.1551
     29 C           9.9495   41.2045    5.7479 C.ar    1  UNL1        0.2207
     30 C           8.9541   39.0563    5.6974 C.ar    1  UNL1        0.1034
     31 C           7.7035   39.6171    5.9481 C.ar    1  UNL1        0.0414
     32 C           7.6174   41.0001    6.0953 C.ar    1  UNL1        0.1034
     33 N          10.0492   39.8546    5.6026 N.ar    1  UNL1       -0.2120
     34 N           8.7356   41.7652    5.9932 N.ar    1  UNL1       -0.2120
@<TRIPOS>BOND
     1    20    21    1
     2    21    26   ar
     3    22    23   ar
     4    23    27    1
     5    24    25   ar
     6     1    25    1
     7     1     2    1
     8     2     3    1
     9     3     4    1
    10     4     7    1
    11     5     7    1
    12     5     1    1
    13     6     9    1
    14    10    11   ar
    15    12    13   ar
    16    12    19    1
    17    14     9   ar
    18    15    19    1
    19    15    16    1
    20    16    17    1
    21    17    11    1
    22    18    19    1
    23    29    34   ar
    24    30    33   ar
    25    31    32   ar
    26     7     6   am
    27    27    29    1
    28    21    22   ar
    29    23    24   ar
    30    25    26   ar
    31     6     8    2
    32     9    10   ar
    33    11    12   ar
    34    13    14   ar
    35    29    33   ar
    36    30    31   ar
    37    32    34   ar
    38    27    28    1
@<TRIPOS>MOLECULE
MolPort-020-292-568 MCULE-3374357361 PubChem-110265036
 34 38 0 0 0
SMALL
GASTEIGER

@<TRIPOS>ATOM
      1 C          10.5625   41.5102   10.3524 C.3     1  UNL1        0.0602
      2 C          11.2168   40.9668   11.6246 C.3     1  UNL1        0.0094
      3 C          10.3013   41.1841   12.8284 C.3     1  UNL1        0.0220
      4 C           8.9543   40.5102   12.5855 C.3     1  UNL1        0.0937
      5 C           9.2008   40.8548   10.1264 C.3     1  UNL1        0.0996
      6 C           7.0327   41.4798   11.2882 C.2     1  UNL1        0.2490
      7 N           8.3881   40.9985   11.3313 N.am    1  UNL1       -0.2757
      8 O           6.2323   41.1379   12.2021 O.2     1  UNL1       -0.2699
      9 C           6.5448   42.3748   10.2123 C.ar    1  UNL1        0.0534
     10 C           5.1669   42.5768   10.0477 C.ar    1  UNL1        0.0015
     11 C           4.6839   43.4398    9.0602 C.ar    1  UNL1       -0.0087
     12 C           5.5843   44.1057    8.2047 C.ar    1  UNL1        0.0438
     13 C           6.9626   43.9190    8.3808 C.ar    1  UNL1        0.0143
     14 C           7.4363   43.0633    9.3775 C.ar    1  UNL1        0.0058
     15 C           3.6462   45.0590    6.9141 C.3     1  UNL1        0.0912
     16 C           2.8550   44.9229    8.2101 C.3     1  UNL1        0.0261
     17 C           3.2009   43.5961    8.8829 C.3     1  UNL1        0.0294
     18 C           5.9633   45.8767    6.4439 C.3     1  UNL1        0.1122
     19 N           5.0784   44.9992    7.1941 N.pl3   1  UNL1       -0.3060
     20 C          11.0819   40.7312    5.4991 C.3     1  UNL1        0.0521
     21 C          11.7004   40.9343    6.8347 C.ar    1  UNL1        0.0602
     22 C          13.0903   40.9429    6.9654 C.ar    1  UNL1        0.0294
     23 C          13.6660   41.1383    8.2274 C.ar    1  UNL1        0.0528
     24 C          12.8328   41.3195    9.3339 C.ar    1  UNL1        0.0294
     25 C          11.4455   41.3030    9.1675 C.ar    1  UNL1        0.0611
     26 N          10.9127   41.1146    7.9278 N.ar    1  UNL1       -0.2538
     27 N          15.0869   41.1572    8.4243 N.pl3   1  UNL1       -0.2825
     28 H          15.4696   40.3928    8.9126 H       1  UNL1        0.1551
     29 C          16.0134   42.1623    7.9912 C.ar    1  UNL1        0.2207
     30 C          16.4715   44.2355    6.9424 C.ar    1  UNL1        0.1034
     31 C          17.8343   44.0676    7.1794 C.ar    1  UNL1        0.0414
     32 C          18.2527   42.9127    7.8372 C.ar    1  UNL1        0.1034
     33 N          15.5897   43.2860    7.3502 N.ar    1  UNL1       -0.2120
     34 N          17.3402   41.9855    8.2293 N.ar    1  UNL1       -0.2120
@<TRIPOS>BOND
     1    20    21    1
     2    21    26   ar
     3    22    23   ar
     4    23    27    1
     5    24    25   ar
     6     1    25    1
     7     1     2    1
     8     2     3    1
     9     3     4    1
    10     4     7    1
    11     5     7    1
    12     5     1    1
    13     6     9    1
    14    10    11   ar
    15    12    13   ar
    16    12    19    1
    17    14     9   ar
    18    15    19    1
    19    15    16    1
    20    16    17    1
    21    17    11    1
    22    18    19    1
    23    29    34   ar
    24    30    33   ar
    25    31    32   ar
    26     7     6   am
    27    27    29    1
    28    21    22   ar
    29    23    24   ar
    30    25    26   ar
    31     6     8    2
    32     9    10   ar
    33    11    12   ar
    34    13    14   ar
    35    29    33   ar
    36    30    31   ar
    37    32    34   ar
    38    27    28    1
@<TRIPOS>MOLECULE
MolPort-020-292-568 MCULE-3374357361 PubChem-110265036
 34 38 0 0 0
SMALL
GASTEIGER

@<TRIPOS>ATOM
      1 C          10.5492   41.3335   11.5664 C.3     1  UNL1        0.0602
      2 C          10.8670   41.0348   13.0333 C.3     1  UNL1        0.0094
      3 C           9.6565   41.3427   13.9133 C.3     1  UNL1        0.0220
      4 C           8.4537   40.5286   13.4462 C.3     1  UNL1        0.0937
      5 C           9.3270   40.5390   11.1087 C.3     1  UNL1        0.0996
      6 C           6.9027   41.1361   11.5644 C.2     1  UNL1        0.2490
      7 N           8.2186   40.7831   12.0278 N.am    1  UNL1       -0.2757
      8 O           5.9051   40.8609   12.2867 O.2     1  UNL1       -0.2699
      9 C           6.6775   41.8237   10.2709 C.ar    1  UNL1        0.0534
     10 C           5.5078   42.5723   10.0760 C.ar    1  UNL1        0.0015
     11 C           5.2872   43.2546    8.8765 C.ar    1  UNL1       -0.0087
     12 C           6.2384   43.1811    7.8392 C.ar    1  UNL1        0.0438
     13 C           7.4167   42.4485    8.0400 C.ar    1  UNL1        0.0143
     14 C           7.6334   41.7791    9.2463 C.ar    1  UNL1        0.0058
     15 C           4.7102   44.5142    6.3497 C.3     1  UNL1        0.0912
     16 C           4.1502   45.1087    7.6370 C.3     1  UNL1        0.0261
     17 C           4.0025   44.0084    8.6859 C.3     1  UNL1        0.0294
     18 C           7.0501   44.0355    5.6049 C.3     1  UNL1        0.1122
     19 N           6.0066   43.8934    6.6084 N.pl3   1  UNL1       -0.3060
     20 C          14.7540   38.8620   10.7646 C.3     1  UNL1        0.0521
     21 C          13.7413   39.8460   10.3021 C.ar    1  UNL1        0.0602
     22 C          13.8891   40.4673    9.0607 C.ar    1  UNL1        0.0294
     23 C          12.9284   41.3915    8.6301 C.ar    1  UNL1        0.0528
     24 C          11.8386   41.6742    9.4570 C.ar    1  UNL1        0.0294
     25 C          11.7229   41.0356   10.6945 C.ar    1  UNL1        0.0611
     26 N          12.6703   40.1383   11.0865 N.ar    1  UNL1       -0.2538
     27 N          13.0258   42.0615    7.3653 N.pl3   1  UNL1       -0.2825
     28 H          12.2926   41.8997    6.7285 H       1  UNL1        0.1551
     29 C          14.0691   42.9400    6.9225 C.ar    1  UNL1        0.2207
     30 C          14.7982   44.8220    5.6837 C.ar    1  UNL1        0.1034
     31 C          16.1097   44.6026    6.0999 C.ar    1  UNL1        0.0414
     32 C          16.3631   43.5220    6.9424 C.ar    1  UNL1        0.1034
     33 N          13.8063   43.9924    6.0999 N.ar    1  UNL1       -0.2120
     34 N          15.3442   42.7142    7.3367 N.ar    1  UNL1       -0.2120
@<TRIPOS>BOND
     1    20    21    1
     2    21    26   ar
     3    22    23   ar
     4    23    27    1
     5    24    25   ar
     6     1    25    1
     7     1     2    1
     8     2     3    1
     9     3     4    1
    10     4     7    1
    11     5     7    1
    12     5     1    1
    13     6     9    1
    14    10    11   ar
    15    12    13   ar
    16    12    19    1
    17    14     9   ar
    18    15    19    1
    19    15    16    1
    20    16    17    1
    21    17    11    1
    22    18    19    1
    23    29    34   ar
    24    30    33   ar
    25    31    32   ar
    26     7     6   am
    27    27    29    1
    28    21    22   ar
    29    23    24   ar
    30    25    26   ar
    31     6     8    2
    32     9    10   ar
    33    11    12   ar
    34    13    14   ar
    35    29    33   ar
    36    30    31   ar
    37    32    34   ar
    38    27    28    1
@<TRIPOS>MOLECULE
MolPort-020-292-568 MCULE-3374357361 PubChem-110265036
 34 38 0 0 0
SMALL
GASTEIGER

@<TRIPOS>ATOM
      1 C          13.9835   39.4017    9.4750 C.3     1  UNL1        0.0602
      2 C          13.5317   39.8568   10.8645 C.3     1  UNL1        0.0094
      3 C          13.9959   38.8621   11.9273 C.3     1  UNL1        0.0220
      4 C          15.5137   38.7165   11.8753 C.3     1  UNL1        0.0937
      5 C          15.5010   39.2287    9.4332 C.3     1  UNL1        0.0996
      6 C          16.8000   37.2316   10.3080 C.2     1  UNL1        0.2490
      7 N          15.9184   38.3488   10.5214 N.am    1  UNL1       -0.2757
      8 O          17.5092   36.8195   11.2671 O.2     1  UNL1       -0.2699
      9 C          16.8965   36.5383    9.0016 C.ar    1  UNL1        0.0534
     10 C          18.1566   36.2207    8.4747 C.ar    1  UNL1        0.0015
     11 C          18.2726   35.5400    7.2596 C.ar    1  UNL1       -0.0087
     12 C          17.1151   35.1798    6.5408 C.ar    1  UNL1        0.0438
     13 C          15.8546   35.4801    7.0759 C.ar    1  UNL1        0.0143
     14 C          15.7485   36.1507    8.2963 C.ar    1  UNL1        0.0058
     15 C          18.5538   34.3107    4.6684 C.3     1  UNL1        0.0912
     16 C          19.6152   34.0750    5.7371 C.3     1  UNL1        0.0261
     17 C          19.6386   35.2575    6.7035 C.3     1  UNL1        0.0294
     18 C          16.0893   33.8820    4.6318 C.3     1  UNL1        0.1122
     19 N          17.2432   34.4719    5.2925 N.pl3   1  UNL1       -0.3060
     20 C          14.9599   43.2251    6.4984 C.3     1  UNL1        0.0521
     21 C          14.0042   42.1991    6.9900 C.ar    1  UNL1        0.0602
     22 C          12.7137   42.1381    6.4611 C.ar    1  UNL1        0.0294
     23 C          11.8194   41.1658    6.9273 C.ar    1  UNL1        0.0528
     24 C          12.2398   40.2747    7.9176 C.ar    1  UNL1        0.0294
     25 C          13.5380   40.3654    8.4265 C.ar    1  UNL1        0.0611
     26 N          14.3880   41.3186    7.9520 N.ar    1  UNL1       -0.2538
     27 N          10.4812   41.0537    6.4224 N.pl3   1  UNL1       -0.2825
     28 H          10.3304   40.3637    5.7366 H       1  UNL1        0.1551
     29 C           9.3384   41.8319    6.8025 C.ar    1  UNL1        0.2207
     30 C           8.1382   43.0913    8.4093 C.ar    1  UNL1        0.1034
     31 C           7.1217   43.3237    7.4850 C.ar    1  UNL1        0.0414
     32 C           7.2546   42.7833    6.2075 C.ar    1  UNL1        0.1034
     33 N           9.2227   42.3543    8.0543 N.ar    1  UNL1       -0.2120
     34 N           8.3543   42.0510    5.8905 N.ar    1  UNL1       -0.2120
@<TRIPOS>BOND
     1    20    21    1
     2    21    26   ar
     3    22    23   ar
     4    23    27    1
     5    24    25   ar
     6     1    25    1
     7     1     2    1
     8     2     3    1
     9     3     4    1
    10     4     7    1
    11     5     7    1
    12     5     1    1
    13     6     9    1
    14    10    11   ar
    15    12    13   ar
    16    12    19    1
    17    14     9   ar
    18    15    19    1
    19    15    16    1
    20    16    17    1
    21    17    11    1
    22    18    19    1
    23    29    34   ar
    24    30    33   ar
    25    31    32   ar
    26     7     6   am
    27    27    29    1
    28    21    22   ar
    29    23    24   ar
    30    25    26   ar
    31     6     8    2
    32     9    10   ar
    33    11    12   ar
    34    13    14   ar
    35    29    33   ar
    36    30    31   ar
    37    32    34   ar
    38    27    28    1
@<TRIPOS>MOLECULE
MolPort-020-292-568 MCULE-3374357361 PubChem-110265036
 34 38 0 0 0
SMALL
GASTEIGER

@<TRIPOS>ATOM
      1 C          14.2823   37.4826    9.5843 C.3     1  UNL1        0.0602
      2 C          13.2758   36.5433   10.2527 C.3     1  UNL1        0.0094
      3 C          11.9429   37.2584   10.4688 C.3     1  UNL1        0.0220
      4 C          11.4030   37.7658    9.1351 C.3     1  UNL1        0.0937
      5 C          13.7278   38.0121    8.2627 C.3     1  UNL1        0.0996
      6 C          12.0609   39.9072    7.9962 C.2     1  UNL1        0.2490
      7 N          12.4117   38.6024    8.4914 N.am    1  UNL1       -0.2757
      8 O          10.8471   40.1714    7.7734 O.2     1  UNL1       -0.2699
      9 C          13.0757   40.9587    7.7488 C.ar    1  UNL1        0.0534
     10 C          14.3354   40.8660    8.3580 C.ar    1  UNL1        0.0015
     11 C          15.3191   41.8287    8.1159 C.ar    1  UNL1       -0.0087
     12 C          15.0447   42.9176    7.2643 C.ar    1  UNL1        0.0438
     13 C          13.7921   43.0010    6.6401 C.ar    1  UNL1        0.0143
     14 C          12.8192   42.0282    6.8793 C.ar    1  UNL1        0.0058
     15 C          17.3025   43.8942    7.7928 C.3     1  UNL1        0.0912
     16 C          17.7412   42.4590    8.0614 C.3     1  UNL1        0.0261
     17 C          16.6404   41.7220    8.8215 C.3     1  UNL1        0.0294
     18 C          15.9137   44.9092    5.9764 C.3     1  UNL1        0.1122
     19 N          16.0668   43.9017    7.0144 N.pl3   1  UNL1       -0.3060
     20 C          19.1800   37.3198   10.2309 C.3     1  UNL1        0.0521
     21 C          17.9424   36.7108    9.6785 C.ar    1  UNL1        0.0602
     22 C          18.0114   35.5054    8.9776 C.ar    1  UNL1        0.0294
     23 C          16.8398   34.9357    8.4627 C.ar    1  UNL1        0.0528
     24 C          15.6217   35.5900    8.6611 C.ar    1  UNL1        0.0294
     25 C          15.5892   36.7963    9.3656 C.ar    1  UNL1        0.0611
     26 N          16.7436   37.3259    9.8586 N.ar    1  UNL1       -0.2538
     27 N          16.8475   33.6996    7.7344 N.pl3   1  UNL1       -0.2825
     28 H          17.3239   32.9482    8.1559 H       1  UNL1        0.1551
     29 C          16.2405   33.4336    6.4628 C.ar    1  UNL1        0.2207
     30 C          15.0040   32.0214    5.0189 C.ar    1  UNL1        0.1034
     31 C          15.0880   32.9692    4.0010 C.ar    1  UNL1        0.0414
     32 C          15.7689   34.1572    4.2594 C.ar    1  UNL1        0.1034
     33 N          15.5778   32.2684    6.2252 N.ar    1  UNL1       -0.2120
     34 N          16.3300   34.3673    5.4788 N.ar    1  UNL1       -0.2120
@<TRIPOS>BOND
     1    20    21    1
     2    21    26   ar
     3    22    23   ar
     4    23    27    1
     5    24    25   ar
     6     1    25    1
     7     1     2    1
     8     2     3    1
     9     3     4    1
    10     4     7    1
    11     5     7    1
    12     5     1    1
    13     6     9    1
    14    10    11   ar
    15    12    13   ar
    16    12    19    1
    17    14     9   ar
    18    15    19    1
    19    15    16    1
    20    16    17    1
    21    17    11    1
    22    18    19    1
    23    29    34   ar
    24    30    33   ar
    25    31    32   ar
    26     7     6   am
    27    27    29    1
    28    21    22   ar
    29    23    24   ar
    30    25    26   ar
    31     6     8    2
    32     9    10   ar
    33    11    12   ar
    34    13    14   ar
    35    29    33   ar
    36    30    31   ar
    37    32    34   ar
    38    27    28    1
