@<TRIPOS>MOLECULE
MolPort-020-293-088 MCULE-1520767777 PubChem-110265555
 34 37 0 0 0
SMALL
GASTEIGER

@<TRIPOS>ATOM
      1 C           9.0804   38.5356    4.5026 C.3     1  UNL1        0.0724
      2 C           9.8485   39.7106    3.8916 C.3     1  UNL1        0.0178
      3 C          11.0859   40.0234    4.7320 C.3     1  UNL1        0.0087
      4 C          10.8028   39.9491    6.2389 C.3     1  UNL1        0.0563
      5 C           9.3020   39.9150    6.5393 C.3     1  UNL1        0.0783
      6 N           8.6555   38.7608    5.9008 N.3     1  UNL1       -0.2686
      7 C          11.4780   41.0676    6.9663 C.ar    1  UNL1        0.0614
      8 C          13.1259   42.7888    6.9505 C.ar    1  UNL1        0.1339
      9 C          12.7671   43.1582    8.2545 C.ar    1  UNL1        0.0345
     10 C          11.7493   42.4678    8.9122 C.ar    1  UNL1        0.0041
     11 C          11.0970   41.4169    8.2694 C.ar    1  UNL1        0.0149
     12 N          12.4726   41.7591    6.3464 N.ar    1  UNL1       -0.2348
     13 N          14.1591   43.4719    6.2264 N.pl3   1  UNL1       -0.2680
     14 H          13.8679   44.0056    5.4521 H       1  UNL1        0.1565
     15 C          15.5669   43.4673    6.5000 C.ar    1  UNL1        0.2218
     16 C          17.3564   42.7341    7.8639 C.ar    1  UNL1        0.1034
     17 C          18.2655   43.4292    7.0687 C.ar    1  UNL1        0.0414
     18 C          17.7761   44.1431    5.9771 C.ar    1  UNL1        0.1034
     19 N          16.0311   42.7654    7.5678 N.ar    1  UNL1       -0.2120
     20 N          16.4436   44.1505    5.7133 N.ar    1  UNL1       -0.2120
     21 C           7.2272   39.0428    5.8833 C.3     1  UNL1        0.0991
     22 C           6.4423   42.7365    7.9401 C.ar    1  UNL1        0.1367
     23 C           6.6846   41.5572    8.6667 C.ar    1  UNL1        0.0410
     24 C           6.9265   40.3564    7.9916 C.ar    1  UNL1       -0.0018
     25 C           6.9418   40.3225    6.5942 C.ar    1  UNL1       -0.0062
     26 C           6.7183   41.4945    5.8665 C.ar    1  UNL1        0.0002
     27 C           6.4658   42.6953    6.5355 C.ar    1  UNL1        0.0364
     28 C           6.6521   41.5550   10.1575 C.3     1  UNL1        0.1717
     29 C           7.8490   41.5685   12.0097 C.3     1  UNL1        0.1746
     30 O           7.9098   41.8961   10.6562 O.3     1  UNL1       -0.3462
     31 O           6.1841   43.9302    8.6251 O.3     1  UNL1       -0.4794
     32 C           4.5057   45.1581    7.4297 C.3     1  UNL1        0.0472
     33 C           4.8819   44.4912    8.7373 C.3     1  UNL1        0.1661
     34 C           3.8846   43.3945    9.0475 C.3     1  UNL1        0.0472
@<TRIPOS>BOND
     1    32    33    1
     2    33    34    1
     3    33    31    1
     4    22    31    1
     5    23    24   ar
     6    25    26   ar
     7    27    22   ar
     8    21    25    1
     9    21     6    1
    10     1     6    1
    11     1     2    1
    12     2     3    1
    13     3     4    1
    14     4     5    1
    15     4     7    1
    16     5     6    1
    17     8    12   ar
    18     8    13    1
    19     9    10   ar
    20    11     7   ar
    21    15    20   ar
    22    16    19   ar
    23    17    18   ar
    24    28    23    1
    25    28    30    1
    26    29    30    1
    27    13    15    1
    28    22    23   ar
    29    24    25   ar
    30    26    27   ar
    31     7    12   ar
    32     8     9   ar
    33    10    11   ar
    34    15    19   ar
    35    16    17   ar
    36    18    20   ar
    37    13    14    1
@<TRIPOS>MOLECULE
MolPort-020-293-088 MCULE-1520767777 PubChem-110265555
 34 37 0 0 0
SMALL
GASTEIGER

@<TRIPOS>ATOM
      1 C          10.7292   39.7370   10.2632 C.3     1  UNL1        0.0724
      2 C          11.4346   38.4926    9.7176 C.3     1  UNL1        0.0178
      3 C          12.6611   38.1678   10.5695 C.3     1  UNL1        0.0087
      4 C          13.4478   39.4253   10.9645 C.3     1  UNL1        0.0563
      5 C          13.0219   40.6482   10.1477 C.3     1  UNL1        0.0783
      6 N          11.5922   40.9361   10.3229 N.3     1  UNL1       -0.2686
      7 C          14.9208   39.1892   10.8628 C.ar    1  UNL1        0.0614
      8 C          17.0375   39.9260   10.0531 C.ar    1  UNL1        0.1339
      9 C          17.6602   38.8163   10.6418 C.ar    1  UNL1        0.0345
     10 C          16.8944   37.8891   11.3481 C.ar    1  UNL1        0.0041
     11 C          15.5173   38.0717   11.4634 C.ar    1  UNL1        0.0149
     12 N          15.6913   40.0800   10.1814 N.ar    1  UNL1       -0.2348
     13 N          17.7801   40.9136    9.3242 N.pl3   1  UNL1       -0.2680
     14 H          18.7609   40.8503    9.3811 H       1  UNL1        0.1565
     15 C          17.2591   41.9823    8.5222 C.ar    1  UNL1        0.2218
     16 C          17.5806   44.1108    7.5391 C.ar    1  UNL1        0.1034
     17 C          16.3015   44.0647    6.9879 C.ar    1  UNL1        0.0414
     18 C          15.5187   42.9381    7.2305 C.ar    1  UNL1        0.1034
     19 N          18.0341   43.0754    8.2924 N.ar    1  UNL1       -0.2120
     20 N          16.0075   41.9228    7.9891 N.ar    1  UNL1       -0.2120
     21 C          11.2066   41.8071    9.2218 C.3     1  UNL1        0.0991
     22 C           9.4495   39.5417    6.0171 C.ar    1  UNL1        0.1367
     23 C           8.6344   40.2735    6.8989 C.ar    1  UNL1        0.0410
     24 C           9.2114   40.9979    7.9471 C.ar    1  UNL1       -0.0018
     25 C          10.5988   41.0100    8.1174 C.ar    1  UNL1       -0.0062
     26 C          11.4153   40.2984    7.2343 C.ar    1  UNL1        0.0002
     27 C          10.8438   39.5643    6.1913 C.ar    1  UNL1        0.0364
     28 C           7.1500   40.2624    6.7586 C.3     1  UNL1        0.1717
     29 C           5.6615   40.9304    8.2424 C.3     1  UNL1        0.1746
     30 O           6.6133   41.4096    7.3438 O.3     1  UNL1       -0.3462
     31 O           8.8612   38.8057    4.9812 O.3     1  UNL1       -0.4794
     32 C          10.3844   39.9183    3.4994 C.3     1  UNL1        0.0472
     33 C           9.3573   38.8142    3.6482 C.3     1  UNL1        0.1661
     34 C          10.0053   37.4801    3.3421 C.3     1  UNL1        0.0472
@<TRIPOS>BOND
     1    32    33    1
     2    33    34    1
     3    33    31    1
     4    22    31    1
     5    23    24   ar
     6    25    26   ar
     7    27    22   ar
     8    21    25    1
     9    21     6    1
    10     1     6    1
    11     1     2    1
    12     2     3    1
    13     3     4    1
    14     4     5    1
    15     4     7    1
    16     5     6    1
    17     8    12   ar
    18     8    13    1
    19     9    10   ar
    20    11     7   ar
    21    15    20   ar
    22    16    19   ar
    23    17    18   ar
    24    28    23    1
    25    28    30    1
    26    29    30    1
    27    13    15    1
    28    22    23   ar
    29    24    25   ar
    30    26    27   ar
    31     7    12   ar
    32     8     9   ar
    33    10    11   ar
    34    15    19   ar
    35    16    17   ar
    36    18    20   ar
    37    13    14    1
@<TRIPOS>MOLECULE
MolPort-020-293-088 MCULE-1520767777 PubChem-110265555
 34 37 0 0 0
SMALL
GASTEIGER

@<TRIPOS>ATOM
      1 C           9.7661   39.7226    7.0040 C.3     1  UNL1        0.0724
      2 C           8.2754   39.4284    7.1912 C.3     1  UNL1        0.0178
      3 C           7.4377   40.5570    6.5913 C.3     1  UNL1        0.0087
      4 C           8.0240   41.9434    6.8923 C.3     1  UNL1        0.0563
      5 C           9.0954   41.8879    7.9846 C.3     1  UNL1        0.0783
      6 N          10.2032   41.0024    7.6018 N.3     1  UNL1       -0.2686
      7 C           6.9438   42.9177    7.2387 C.ar    1  UNL1        0.0614
      8 C           4.7741   43.2948    8.1491 C.ar    1  UNL1        0.1339
      9 C           4.9033   44.6708    7.9132 C.ar    1  UNL1        0.0345
     10 C           6.0717   45.1652    7.3338 C.ar    1  UNL1        0.0041
     11 C           7.1011   44.2890    6.9936 C.ar    1  UNL1        0.0149
     12 N           5.7947   42.4618    7.8073 N.ar    1  UNL1       -0.2348
     13 N           3.5976   42.7362    8.7507 N.pl3   1  UNL1       -0.2680
     14 H           2.7528   42.8743    8.2645 H       1  UNL1        0.1565
     15 C           3.5097   41.9999    9.9782 C.ar    1  UNL1        0.2218
     16 C           2.5690   41.7812   12.1387 C.ar    1  UNL1        0.1034
     17 C           3.3075   40.6199   12.3578 C.ar    1  UNL1        0.0414
     18 C           4.1500   40.1724   11.3426 C.ar    1  UNL1        0.1034
     19 N           2.6827   42.4472   10.9602 N.ar    1  UNL1       -0.2120
     20 N           4.2367   40.8659   10.1777 N.ar    1  UNL1       -0.2120
     21 C          10.9253   40.6886    8.8264 C.3     1  UNL1        0.0991
     22 C          15.1309   41.4299    8.3227 C.ar    1  UNL1        0.1367
     23 C          14.1958   42.0346    7.4639 C.ar    1  UNL1        0.0410
     24 C          12.8301   41.7791    7.6250 C.ar    1  UNL1       -0.0018
     25 C          12.3854   40.9338    8.6457 C.ar    1  UNL1       -0.0062
     26 C          13.3086   40.3432    9.5128 C.ar    1  UNL1        0.0002
     27 C          14.6751   40.5865    9.3503 C.ar    1  UNL1        0.0364
     28 C          14.6392   42.9226    6.3511 C.3     1  UNL1        0.1717
     29 C          14.6946   45.0093    5.6399 C.3     1  UNL1        0.1746
     30 O          13.9287   44.1225    6.3950 O.3     1  UNL1       -0.3462
     31 O          16.4971   41.6784    8.1425 O.3     1  UNL1       -0.4794
     32 C          17.3818   43.7357    9.0020 C.3     1  UNL1        0.0472
     33 C          17.0082   42.9498    7.7614 C.3     1  UNL1        0.1661
     34 C          18.2371   42.7615    6.8966 C.3     1  UNL1        0.0472
@<TRIPOS>BOND
     1    32    33    1
     2    33    34    1
     3    33    31    1
     4    22    31    1
     5    23    24   ar
     6    25    26   ar
     7    27    22   ar
     8    21    25    1
     9    21     6    1
    10     1     6    1
    11     1     2    1
    12     2     3    1
    13     3     4    1
    14     4     5    1
    15     4     7    1
    16     5     6    1
    17     8    12   ar
    18     8    13    1
    19     9    10   ar
    20    11     7   ar
    21    15    20   ar
    22    16    19   ar
    23    17    18   ar
    24    28    23    1
    25    28    30    1
    26    29    30    1
    27    13    15    1
    28    22    23   ar
    29    24    25   ar
    30    26    27   ar
    31     7    12   ar
    32     8     9   ar
    33    10    11   ar
    34    15    19   ar
    35    16    17   ar
    36    18    20   ar
    37    13    14    1
@<TRIPOS>MOLECULE
MolPort-020-293-088 MCULE-1520767777 PubChem-110265555
 34 37 0 0 0
SMALL
GASTEIGER

@<TRIPOS>ATOM
      1 C          10.2700   38.7970    9.6331 C.3     1  UNL1        0.0724
      2 C          11.3250   37.7160    9.3837 C.3     1  UNL1        0.0178
      3 C          12.5599   37.9782   10.2450 C.3     1  UNL1        0.0087
      4 C          12.9341   39.4662   10.2921 C.3     1  UNL1        0.0563
      5 C          12.2043   40.2753    9.2166 C.3     1  UNL1        0.0783
      6 N          10.7468   40.1711    9.3668 N.3     1  UNL1       -0.2686
      7 C          14.4153   39.6489   10.1989 C.ar    1  UNL1        0.0614
      8 C          16.2547   40.7979    9.2114 C.ar    1  UNL1        0.1339
      9 C          17.1518   40.0447    9.9818 C.ar    1  UNL1        0.0345
     10 C          16.6636   39.0857   10.8690 C.ar    1  UNL1        0.0041
     11 C          15.2892   38.8830   10.9832 C.ar    1  UNL1        0.0149
     12 N          14.9177   40.5796    9.3429 N.ar    1  UNL1       -0.2348
     13 N          16.7040   41.8027    8.2913 N.pl3   1  UNL1       -0.2680
     14 H          17.6781   41.9303    8.2278 H       1  UNL1        0.1565
     15 C          15.8985   42.6426    7.4531 C.ar    1  UNL1        0.2218
     16 C          13.8815   42.9631    6.2577 C.ar    1  UNL1        0.1034
     17 C          14.3131   44.2203    5.8392 C.ar    1  UNL1        0.0414
     18 C          15.5663   44.6610    6.2587 C.ar    1  UNL1        0.1034
     19 N          14.6770   42.2007    7.0520 N.ar    1  UNL1       -0.2120
     20 N          16.3330   43.8695    7.0529 N.ar    1  UNL1       -0.2120
     21 C          10.1680   40.5967    8.1005 C.3     1  UNL1        0.0991
     22 C           6.9138   43.3158    8.8125 C.ar    1  UNL1        0.1367
     23 C           7.1173   42.2144    9.6627 C.ar    1  UNL1        0.0410
     24 C           8.1699   41.3264    9.4181 C.ar    1  UNL1       -0.0018
     25 C           9.0322   41.5340    8.3376 C.ar    1  UNL1       -0.0062
     26 C           8.8453   42.6361    7.4989 C.ar    1  UNL1        0.0002
     27 C           7.7890   43.5209    7.7323 C.ar    1  UNL1        0.0364
     28 C           6.2014   41.9520   10.8098 C.3     1  UNL1        0.1717
     29 C           4.2261   41.1830   10.2014 C.3     1  UNL1        0.1746
     30 O           5.4987   40.7670   10.5895 O.3     1  UNL1       -0.3462
     31 O           5.8468   44.1894    9.0557 O.3     1  UNL1       -0.4794
     32 C           5.2633   43.8790    6.7498 C.3     1  UNL1        0.0472
     33 C           4.9362   44.5987    8.0426 C.3     1  UNL1        0.1661
     34 C           3.5230   44.2555    8.4653 C.3     1  UNL1        0.0472
@<TRIPOS>BOND
     1    32    33    1
     2    33    34    1
     3    33    31    1
     4    22    31    1
     5    23    24   ar
     6    25    26   ar
     7    27    22   ar
     8    21    25    1
     9    21     6    1
    10     1     6    1
    11     1     2    1
    12     2     3    1
    13     3     4    1
    14     4     5    1
    15     4     7    1
    16     5     6    1
    17     8    12   ar
    18     8    13    1
    19     9    10   ar
    20    11     7   ar
    21    15    20   ar
    22    16    19   ar
    23    17    18   ar
    24    28    23    1
    25    28    30    1
    26    29    30    1
    27    13    15    1
    28    22    23   ar
    29    24    25   ar
    30    26    27   ar
    31     7    12   ar
    32     8     9   ar
    33    10    11   ar
    34    15    19   ar
    35    16    17   ar
    36    18    20   ar
    37    13    14    1
@<TRIPOS>MOLECULE
MolPort-020-293-088 MCULE-1520767777 PubChem-110265555
 34 37 0 0 0
SMALL
GASTEIGER

@<TRIPOS>ATOM
      1 C           8.4084   42.5802   11.7739 C.3     1  UNL1        0.0724
      2 C           8.8006   41.2379   12.3969 C.3     1  UNL1        0.0178
      3 C          10.2909   40.9750   12.1835 C.3     1  UNL1        0.0087
      4 C          10.7584   41.3714   10.7761 C.3     1  UNL1        0.0563
      5 C           9.5811   41.6125    9.8275 C.3     1  UNL1        0.0783
      6 N           8.7013   42.6772   10.3278 N.3     1  UNL1       -0.2686
      7 C          11.7054   40.3561   10.2208 C.ar    1  UNL1        0.0614
      8 C          13.9344   39.8014    9.5865 C.ar    1  UNL1        0.1339
      9 C          13.5172   38.5184    9.2049 C.ar    1  UNL1        0.0345
     10 C          12.1759   38.1605    9.3384 C.ar    1  UNL1        0.0041
     11 C          11.2608   39.0796    9.8494 C.ar    1  UNL1        0.0149
     12 N          13.0200   40.6790   10.0825 N.ar    1  UNL1       -0.2348
     13 N          15.3034   40.2166    9.4783 N.pl3   1  UNL1       -0.2680
     14 H          15.9636   39.6696    9.9621 H       1  UNL1        0.1565
     15 C          15.8214   41.3363    8.7470 C.ar    1  UNL1        0.2218
     16 C          17.5944   42.8588    8.3743 C.ar    1  UNL1        0.1034
     17 C          16.8612   43.4882    7.3702 C.ar    1  UNL1        0.0414
     18 C          15.5891   43.0012    7.0781 C.ar    1  UNL1        0.1034
     19 N          17.0648   41.8006    9.0414 N.ar    1  UNL1       -0.2120
     20 N          15.0937   41.9407    7.7675 N.ar    1  UNL1       -0.2120
     21 C           7.4387   42.5403    9.6161 C.3     1  UNL1        0.0991
     22 C           8.0771   40.5380    5.8647 C.ar    1  UNL1        0.1367
     23 C           8.9975   41.4974    6.3226 C.ar    1  UNL1        0.0410
     24 C           8.7773   42.1545    7.5376 C.ar    1  UNL1       -0.0018
     25 C           7.6510   41.8538    8.3090 C.ar    1  UNL1       -0.0062
     26 C           6.7414   40.8892    7.8674 C.ar    1  UNL1        0.0002
     27 C           6.9507   40.2369    6.6493 C.ar    1  UNL1        0.0364
     28 C          10.1964   41.8577    5.5124 C.3     1  UNL1        0.1717
     29 C          12.0660   40.9922    6.2990 C.3     1  UNL1        0.1746
     30 O          11.2703   42.1351    6.3588 O.3     1  UNL1       -0.3462
     31 O           8.2975   39.8981    4.6388 O.3     1  UNL1       -0.4794
     32 C          10.1866   38.8772    3.5697 C.3     1  UNL1        0.0472
     33 C           9.0240   38.6809    4.5215 C.3     1  UNL1        0.1661
     34 C           9.5511   38.2743    5.8818 C.3     1  UNL1        0.0472
@<TRIPOS>BOND
     1    32    33    1
     2    33    34    1
     3    33    31    1
     4    22    31    1
     5    23    24   ar
     6    25    26   ar
     7    27    22   ar
     8    21    25    1
     9    21     6    1
    10     1     6    1
    11     1     2    1
    12     2     3    1
    13     3     4    1
    14     4     5    1
    15     4     7    1
    16     5     6    1
    17     8    12   ar
    18     8    13    1
    19     9    10   ar
    20    11     7   ar
    21    15    20   ar
    22    16    19   ar
    23    17    18   ar
    24    28    23    1
    25    28    30    1
    26    29    30    1
    27    13    15    1
    28    22    23   ar
    29    24    25   ar
    30    26    27   ar
    31     7    12   ar
    32     8     9   ar
    33    10    11   ar
    34    15    19   ar
    35    16    17   ar
    36    18    20   ar
    37    13    14    1
@<TRIPOS>MOLECULE
MolPort-020-293-088 MCULE-1520767777 PubChem-110265555
 34 37 0 0 0
SMALL
GASTEIGER

@<TRIPOS>ATOM
      1 C           8.8060   40.5309    5.3115 C.3     1  UNL1        0.0724
      2 C           8.3104   39.4970    6.3261 C.3     1  UNL1        0.0178
      3 C           7.8145   40.1976    7.5905 C.3     1  UNL1        0.0087
      4 C           8.7264   41.3586    8.0111 C.3     1  UNL1        0.0563
      5 C          10.0703   41.3265    7.2784 C.3     1  UNL1        0.0783
      6 N           9.8870   41.4006    5.8228 N.3     1  UNL1       -0.2686
      7 C           8.9157   41.3804    9.4942 C.ar    1  UNL1        0.0614
      8 C          10.3200   40.9146   11.3623 C.ar    1  UNL1        0.1339
      9 C           9.3360   41.3991   12.2356 C.ar    1  UNL1        0.0345
     10 C           8.1318   41.8786   11.7208 C.ar    1  UNL1        0.0041
     11 C           7.9152   41.8727   10.3438 C.ar    1  UNL1        0.0149
     12 N          10.0825   40.9205   10.0222 N.ar    1  UNL1       -0.2348
     13 N          11.5790   40.4190   11.8391 N.pl3   1  UNL1       -0.2680
     14 H          11.8610   40.7318   12.7290 H       1  UNL1        0.1565
     15 C          12.4743   39.5206   11.1697 C.ar    1  UNL1        0.2218
     16 C          12.7795   37.7426    9.6381 C.ar    1  UNL1        0.1034
     17 C          14.1552   37.7701    9.8590 C.ar    1  UNL1        0.0414
     18 C          14.6604   38.7064   10.7584 C.ar    1  UNL1        0.1034
     19 N          11.9680   38.6126   10.2936 N.ar    1  UNL1       -0.2120
     20 N          13.8168   39.5599   11.3948 N.ar    1  UNL1       -0.2120
     21 C          11.1337   40.9457    5.2242 C.3     1  UNL1        0.0991
     22 C          14.4568   42.1532    7.6714 C.ar    1  UNL1        0.1367
     23 C          14.0541   42.9444    6.5810 C.ar    1  UNL1        0.0410
     24 C          12.9805   42.5394    5.7810 C.ar    1  UNL1       -0.0018
     25 C          12.2942   41.3556    6.0667 C.ar    1  UNL1       -0.0062
     26 C          12.6790   40.5736    7.1591 C.ar    1  UNL1        0.0002
     27 C          13.7575   40.9678    7.9557 C.ar    1  UNL1        0.0364
     28 C          14.7799   44.2004    6.2357 C.3     1  UNL1        0.1717
     29 C          16.8353   44.2061    5.4367 C.3     1  UNL1        0.1746
     30 O          15.5070   44.0156    5.0594 O.3     1  UNL1       -0.3462
     31 O          15.5436   42.5584    8.4559 O.3     1  UNL1       -0.4794
     32 C          17.8678   43.1499    8.4092 C.3     1  UNL1        0.0472
     33 C          16.8540   42.0296    8.2939 C.3     1  UNL1        0.1661
     34 C          17.1193   40.9987    9.3712 C.3     1  UNL1        0.0472
@<TRIPOS>BOND
     1    32    33    1
     2    33    34    1
     3    33    31    1
     4    22    31    1
     5    23    24   ar
     6    25    26   ar
     7    27    22   ar
     8    21    25    1
     9    21     6    1
    10     1     6    1
    11     1     2    1
    12     2     3    1
    13     3     4    1
    14     4     5    1
    15     4     7    1
    16     5     6    1
    17     8    12   ar
    18     8    13    1
    19     9    10   ar
    20    11     7   ar
    21    15    20   ar
    22    16    19   ar
    23    17    18   ar
    24    28    23    1
    25    28    30    1
    26    29    30    1
    27    13    15    1
    28    22    23   ar
    29    24    25   ar
    30    26    27   ar
    31     7    12   ar
    32     8     9   ar
    33    10    11   ar
    34    15    19   ar
    35    16    17   ar
    36    18    20   ar
    37    13    14    1
@<TRIPOS>MOLECULE
MolPort-020-293-088 MCULE-1520767777 PubChem-110265555
 34 37 0 0 0
SMALL
GASTEIGER

@<TRIPOS>ATOM
      1 C           9.7992   40.3695    4.9444 C.3     1  UNL1        0.0724
      2 C          10.1859   41.5791    5.7996 C.3     1  UNL1        0.0178
      3 C          11.6130   41.4186    6.3220 C.3     1  UNL1        0.0087
      4 C          11.9084   39.9847    6.7836 C.3     1  UNL1        0.0563
      5 C          10.6305   39.1538    6.9271 C.3     1  UNL1        0.0783
      6 N           9.8975   39.0774    5.6564 N.3     1  UNL1       -0.2686
      7 C          12.7035   39.9830    8.0500 C.ar    1  UNL1        0.0614
      8 C          14.7418   40.5216    9.1607 C.ar    1  UNL1        0.1339
      9 C          14.2304   40.0178   10.3650 C.ar    1  UNL1        0.0345
     10 C          12.9384   39.4939   10.4008 C.ar    1  UNL1        0.0041
     11 C          12.1658   39.4747    9.2407 C.ar    1  UNL1        0.0149
     12 N          13.9659   40.4907    8.0430 N.ar    1  UNL1       -0.2348
     13 N          16.0605   41.0796    9.0718 N.pl3   1  UNL1       -0.2680
     14 H          16.7569   40.6386    9.6100 H       1  UNL1        0.1565
     15 C          16.4816   42.2056    8.2897 C.ar    1  UNL1        0.2218
     16 C          15.9849   43.7960    6.6092 C.ar    1  UNL1        0.1034
     17 C          17.2460   44.3695    6.7598 C.ar    1  UNL1        0.0414
     18 C          18.1110   43.8225    7.7050 C.ar    1  UNL1        0.1034
     19 N          15.6271   42.7303    7.3717 N.ar    1  UNL1       -0.2120
     20 N          17.7169   42.7563    8.4486 N.ar    1  UNL1       -0.2120
     21 C           8.5433   38.6547    5.9837 C.3     1  UNL1        0.0991
     22 C           6.6388   41.6181    8.4496 C.ar    1  UNL1        0.1367
     23 C           7.9270   41.1522    8.7670 C.ar    1  UNL1        0.0410
     24 C           8.5357   40.1787    7.9681 C.ar    1  UNL1       -0.0018
     25 C           7.8752   39.6730    6.8447 C.ar    1  UNL1       -0.0062
     26 C           6.6017   40.1443    6.5145 C.ar    1  UNL1        0.0002
     27 C           5.9842   41.1093    7.3148 C.ar    1  UNL1        0.0364
     28 C           8.6486   41.6542    9.9715 C.3     1  UNL1        0.1717
     29 C           7.8215   41.3296   11.9898 C.3     1  UNL1        0.1746
     30 O           7.7326   42.1756   10.8856 O.3     1  UNL1       -0.3462
     31 O           6.0308   42.5803    9.2653 O.3     1  UNL1       -0.4794
     32 C           6.4671   44.1884    7.5398 C.3     1  UNL1        0.0472
     33 C           5.6891   43.8814    8.8034 C.3     1  UNL1        0.1661
     34 C           4.2051   43.9382    8.5064 C.3     1  UNL1        0.0472
@<TRIPOS>BOND
     1    32    33    1
     2    33    34    1
     3    33    31    1
     4    22    31    1
     5    23    24   ar
     6    25    26   ar
     7    27    22   ar
     8    21    25    1
     9    21     6    1
    10     1     6    1
    11     1     2    1
    12     2     3    1
    13     3     4    1
    14     4     5    1
    15     4     7    1
    16     5     6    1
    17     8    12   ar
    18     8    13    1
    19     9    10   ar
    20    11     7   ar
    21    15    20   ar
    22    16    19   ar
    23    17    18   ar
    24    28    23    1
    25    28    30    1
    26    29    30    1
    27    13    15    1
    28    22    23   ar
    29    24    25   ar
    30    26    27   ar
    31     7    12   ar
    32     8     9   ar
    33    10    11   ar
    34    15    19   ar
    35    16    17   ar
    36    18    20   ar
    37    13    14    1
@<TRIPOS>MOLECULE
MolPort-020-293-088 MCULE-1520767777 PubChem-110265555
 34 37 0 0 0
SMALL
GASTEIGER

@<TRIPOS>ATOM
      1 C           8.5684   41.2782    5.7836 C.3     1  UNL1        0.0724
      2 C           7.9610   40.2180    6.7062 C.3     1  UNL1        0.0178
      3 C           7.6972   40.8135    8.0887 C.3     1  UNL1        0.0087
      4 C           8.8388   41.7252    8.5596 C.3     1  UNL1        0.0563
      5 C          10.0969   41.5576    7.7034 C.3     1  UNL1        0.0783
      6 N           9.8273   41.8636    6.2922 N.3     1  UNL1       -0.2686
      7 C           9.1344   41.5078   10.0092 C.ar    1  UNL1        0.0614
      8 C          10.6926   40.8210   11.6762 C.ar    1  UNL1        0.1339
      9 C           9.7517   41.0889   12.6805 C.ar    1  UNL1        0.0345
     10 C           8.4906   41.5728   12.3335 C.ar    1  UNL1        0.0041
     11 C           8.1749   41.7863   10.9926 C.ar    1  UNL1        0.0149
     12 N          10.3582   41.0386   10.3750 N.ar    1  UNL1       -0.2348
     13 N          12.0064   40.3311   11.9798 N.pl3   1  UNL1       -0.2680
     14 H          12.5360   40.8686   12.6121 H       1  UNL1        0.1565
     15 C          12.6377   39.1491   11.4687 C.ar    1  UNL1        0.2218
     16 C          12.6124   37.3507    9.9307 C.ar    1  UNL1        0.1034
     17 C          13.8116   36.8694   10.4526 C.ar    1  UNL1        0.0414
     18 C          14.4038   37.5709   11.5006 C.ar    1  UNL1        0.1034
     19 N          12.0496   38.4749   10.4450 N.ar    1  UNL1       -0.2120
     20 N          13.8102   38.6912   11.9881 N.ar    1  UNL1       -0.2120
     21 C          10.9203   41.2826    5.5258 C.3     1  UNL1        0.0991
     22 C          14.7212   42.3535    7.2276 C.ar    1  UNL1        0.1367
     23 C          13.9304   41.3575    7.8275 C.ar    1  UNL1        0.0410
     24 C          12.6891   41.0229    7.2763 C.ar    1  UNL1       -0.0018
     25 C          12.2331   41.6651    6.1215 C.ar    1  UNL1       -0.0062
     26 C          13.0220   42.6439    5.5110 C.ar    1  UNL1        0.0002
     27 C          14.2584   42.9897    6.0630 C.ar    1  UNL1        0.0364
     28 C          14.3776   40.6704    9.0730 C.3     1  UNL1        0.1717
     29 C          16.3413   39.9291    9.7495 C.3     1  UNL1        0.1746
     30 O          15.3713   39.7402    8.7665 O.3     1  UNL1       -0.3462
     31 O          15.9547   42.6935    7.7967 O.3     1  UNL1       -0.4794
     32 C          17.6504   44.1852    8.6047 C.3     1  UNL1        0.0472
     33 C          16.6184   43.9222    7.5268 C.3     1  UNL1        0.1661
     34 C          17.3074   43.8388    6.1807 C.3     1  UNL1        0.0472
@<TRIPOS>BOND
     1    32    33    1
     2    33    34    1
     3    33    31    1
     4    22    31    1
     5    23    24   ar
     6    25    26   ar
     7    27    22   ar
     8    21    25    1
     9    21     6    1
    10     1     6    1
    11     1     2    1
    12     2     3    1
    13     3     4    1
    14     4     5    1
    15     4     7    1
    16     5     6    1
    17     8    12   ar
    18     8    13    1
    19     9    10   ar
    20    11     7   ar
    21    15    20   ar
    22    16    19   ar
    23    17    18   ar
    24    28    23    1
    25    28    30    1
    26    29    30    1
    27    13    15    1
    28    22    23   ar
    29    24    25   ar
    30    26    27   ar
    31     7    12   ar
    32     8     9   ar
    33    10    11   ar
    34    15    19   ar
    35    16    17   ar
    36    18    20   ar
    37    13    14    1
@<TRIPOS>MOLECULE
MolPort-020-293-088 MCULE-1520767777 PubChem-110265555
 34 37 0 0 0
SMALL
GASTEIGER

@<TRIPOS>ATOM
      1 C          11.0798   37.5178    9.8370 C.3     1  UNL1        0.0724
      2 C          12.3465   36.6624    9.7494 C.3     1  UNL1        0.0178
      3 C          13.4805   37.3209   10.5343 C.3     1  UNL1        0.0087
      4 C          13.5259   38.8416   10.3305 C.3     1  UNL1        0.0563
      5 C          12.6591   39.2880    9.1500 C.3     1  UNL1        0.0783
      6 N          11.2554   38.8995    9.3409 N.3     1  UNL1       -0.2686
      7 C          14.9348   39.3201   10.1825 C.ar    1  UNL1        0.0614
      8 C          16.4462   40.9032    9.2400 C.ar    1  UNL1        0.1339
      9 C          17.5235   40.2656    9.8713 C.ar    1  UNL1        0.0345
     10 C          17.2918   39.1434   10.6663 C.ar    1  UNL1        0.0041
     11 C          15.9928   38.6642   10.8273 C.ar    1  UNL1        0.0149
     12 N          15.1880   40.4144    9.4144 N.ar    1  UNL1       -0.2348
     13 N          16.6287   42.0658    8.4195 N.pl3   1  UNL1       -0.2680
     14 H          17.5055   42.5092    8.4819 H       1  UNL1        0.1565
     15 C          15.6819   42.6569    7.5190 C.ar    1  UNL1        0.2218
     16 C          13.6360   42.4858    6.3420 C.ar    1  UNL1        0.1034
     17 C          13.8320   43.7501    5.7897 C.ar    1  UNL1        0.0414
     18 C          14.9865   44.4491    6.1350 C.ar    1  UNL1        0.1034
     19 N          14.5589   41.9642    7.1914 N.ar    1  UNL1       -0.2120
     20 N          15.8863   43.8940    6.9879 N.ar    1  UNL1       -0.2120
     21 C          10.6219   38.9779    8.0324 C.3     1  UNL1        0.0991
     22 C           7.1335   41.4868    8.1957 C.ar    1  UNL1        0.1367
     23 C           8.1839   41.6713    9.1122 C.ar    1  UNL1        0.0410
     24 C           9.3102   40.8434    9.0620 C.ar    1  UNL1       -0.0018
     25 C           9.4051   39.8382    8.0952 C.ar    1  UNL1       -0.0062
     26 C           8.3720   39.6608    7.1709 C.ar    1  UNL1        0.0002
     27 C           7.2397   40.4782    7.2228 C.ar    1  UNL1        0.0364
     28 C           8.1030   42.7191   10.1701 C.3     1  UNL1        0.1717
     29 C           9.9727   43.8628   10.4140 C.3     1  UNL1        0.1746
     30 O           8.7537   43.8752    9.7382 O.3     1  UNL1       -0.3462
     31 O           6.0026   42.3096    8.2650 O.3     1  UNL1       -0.4794
     32 C           6.5609   43.8449    6.5086 C.3     1  UNL1        0.0472
     33 C           6.0273   43.6888    7.9183 C.3     1  UNL1        0.1661
     34 C           4.6235   44.2527    7.9898 C.3     1  UNL1        0.0472
@<TRIPOS>BOND
     1    32    33    1
     2    33    34    1
     3    33    31    1
     4    22    31    1
     5    23    24   ar
     6    25    26   ar
     7    27    22   ar
     8    21    25    1
     9    21     6    1
    10     1     6    1
    11     1     2    1
    12     2     3    1
    13     3     4    1
    14     4     5    1
    15     4     7    1
    16     5     6    1
    17     8    12   ar
    18     8    13    1
    19     9    10   ar
    20    11     7   ar
    21    15    20   ar
    22    16    19   ar
    23    17    18   ar
    24    28    23    1
    25    28    30    1
    26    29    30    1
    27    13    15    1
    28    22    23   ar
    29    24    25   ar
    30    26    27   ar
    31     7    12   ar
    32     8     9   ar
    33    10    11   ar
    34    15    19   ar
    35    16    17   ar
    36    18    20   ar
    37    13    14    1
@<TRIPOS>MOLECULE
MolPort-020-293-088 MCULE-1520767777 PubChem-110265555
 34 37 0 0 0
SMALL
GASTEIGER

@<TRIPOS>ATOM
      1 C          10.7005   38.9092    9.9687 C.3     1  UNL1        0.0724
      2 C          11.5893   37.7886    9.4227 C.3     1  UNL1        0.0178
      3 C          12.7887   37.5727   10.3448 C.3     1  UNL1        0.0087
      4 C          13.3853   38.8951   10.8467 C.3     1  UNL1        0.0563
      5 C          12.8645   40.0966   10.0536 C.3     1  UNL1        0.0783
      6 N          11.4017   40.1997   10.1393 N.3     1  UNL1       -0.2686
      7 C          14.8798   38.8450   10.8395 C.ar    1  UNL1        0.0614
      8 C          16.9340   39.8162   10.1213 C.ar    1  UNL1        0.1339
      9 C          17.6527   38.8162   10.7915 C.ar    1  UNL1        0.0345
     10 C          16.9664   37.8245   11.4920 C.ar    1  UNL1        0.0041
     11 C          15.5727   37.8344   11.5205 C.ar    1  UNL1        0.0149
     12 N          15.5738   39.8020   10.1657 N.ar    1  UNL1       -0.2348
     13 N          17.5912   40.8639    9.3944 N.pl3   1  UNL1       -0.2680
     14 H          18.5751   40.8652    9.4269 H       1  UNL1        0.1565
     15 C          16.9808   41.9096    8.6258 C.ar    1  UNL1        0.2218
     16 C          15.1982   42.6208    7.2413 C.ar    1  UNL1        0.1034
     17 C          15.7690   43.8875    7.1334 C.ar    1  UNL1        0.0414
     18 C          16.9677   44.1300    7.8007 C.ar    1  UNL1        0.1034
     19 N          15.8105   41.6597    7.9806 N.ar    1  UNL1       -0.2120
     20 N          17.5498   43.1431    8.5303 N.ar    1  UNL1       -0.2120
     21 C          10.9830   41.0716    9.0511 C.3     1  UNL1        0.0991
     22 C           6.7373   41.7255    9.2420 C.ar    1  UNL1        0.1367
     23 C           7.3110   41.1129    8.1137 C.ar    1  UNL1        0.0410
     24 C           8.6943   40.9148    8.0523 C.ar    1  UNL1       -0.0018
     25 C           9.5123   41.3114    9.1142 C.ar    1  UNL1       -0.0062
     26 C           8.9462   41.9054   10.2454 C.ar    1  UNL1        0.0002
     27 C           7.5659   42.1154   10.3080 C.ar    1  UNL1        0.0364
     28 C           6.4690   40.6997    6.9545 C.3     1  UNL1        0.1717
     29 C           6.7930   42.6758    6.0307 C.3     1  UNL1        0.1746
     30 O           6.9378   41.3103    5.7909 O.3     1  UNL1       -0.3462
     31 O           5.3535   41.9350    9.2866 O.3     1  UNL1       -0.4794
     32 C           4.4759   40.8978   11.2635 C.3     1  UNL1        0.0472
     33 C           4.4369   40.9508    9.7496 C.3     1  UNL1        0.1661
     34 C           3.0378   41.3103    9.2949 C.3     1  UNL1        0.0472
@<TRIPOS>BOND
     1    32    33    1
     2    33    34    1
     3    33    31    1
     4    22    31    1
     5    23    24   ar
     6    25    26   ar
     7    27    22   ar
     8    21    25    1
     9    21     6    1
    10     1     6    1
    11     1     2    1
    12     2     3    1
    13     3     4    1
    14     4     5    1
    15     4     7    1
    16     5     6    1
    17     8    12   ar
    18     8    13    1
    19     9    10   ar
    20    11     7   ar
    21    15    20   ar
    22    16    19   ar
    23    17    18   ar
    24    28    23    1
    25    28    30    1
    26    29    30    1
    27    13    15    1
    28    22    23   ar
    29    24    25   ar
    30    26    27   ar
    31     7    12   ar
    32     8     9   ar
    33    10    11   ar
    34    15    19   ar
    35    16    17   ar
    36    18    20   ar
    37    13    14    1
