@<TRIPOS>MOLECULE
MolPort-005-291-842 12422387 CSSS00106609014 MCULE-9814528495 PubChem-16879787 ZINC000012422387 ZINC12422387
 29 32 0 0 0
SMALL
GASTEIGER

@<TRIPOS>ATOM
      1 C           7.7786   41.1287    6.6281 C.ar    1  UNL1        0.1659
      2 C           6.3881   41.6530    8.3200 C.ar    1  UNL1        0.0923
      3 C           6.7959   42.9468    7.9442 C.ar    1  UNL1        0.0886
      4 N           6.9439   40.6548    7.5771 N.ar    1  UNL1       -0.2238
      5 S           7.8688   42.8007    6.6502 S.2     1  UNL1       -0.0481
      6 C           5.4844   41.3299    9.4462 C.ar    1  UNL1        0.0183
      7 C           4.1671   40.9258    9.1819 C.ar    1  UNL1        0.0015
      8 C           3.3075   40.5789   10.2282 C.ar    1  UNL1        0.0000
      9 C           3.7612   40.6225   11.5488 C.ar    1  UNL1        0.0000
     10 C           5.0756   41.0081   11.8224 C.ar    1  UNL1        0.0000
     11 C           5.9343   41.3544   10.7752 C.ar    1  UNL1        0.0015
     12 C           9.6630   39.5373    6.0248 C.2     1  UNL1        0.2883
     13 N           8.4969   40.3054    5.7047 N.am    1  UNL1       -0.2580
     14 O          10.1410   39.5465    7.1908 O.2     1  UNL1       -0.2663
     15 H           8.1647   40.2636    4.7789 H       1  UNL1        0.1572
     16 C          12.9642   37.3331    2.9997 C.3     1  UNL1        0.0557
     17 C          11.7217   37.7788    3.6830 C.ar    1  UNL1        0.1012
     18 C          10.3108   38.7301    4.9868 C.ar    1  UNL1        0.2298
     19 C          11.6711   38.6660    4.7415 C.ar    1  UNL1        0.0629
     20 N          10.4905   37.3605    3.3399 N.ar    1  UNL1       -0.0812
     21 O           9.6660   37.9549    4.1476 O.2     1  UNL1       -0.3490
     22 C           6.2659   44.2370    8.4333 C.2     1  UNL1        0.2030
     23 O           6.9986   44.9572    9.1649 O.2     1  UNL1       -0.2860
     24 C           4.8929   44.6899    8.1171 C.ar    1  UNL1        0.0395
     25 C           4.6931   45.7174    7.1822 C.ar    1  UNL1        0.0032
     26 C           3.4011   46.1431    6.8601 C.ar    1  UNL1        0.0001
     27 C           2.2958   45.5412    7.4665 C.ar    1  UNL1        0.0000
     28 C           2.4823   44.5123    8.3930 C.ar    1  UNL1        0.0001
     29 C           3.7745   44.0872    8.7142 C.ar    1  UNL1        0.0032
@<TRIPOS>BOND
     1    16    17    1
     2    18    21   ar
     3    18    12    1
     4    19    17   ar
     5    12    13   am
     6     1     5   ar
     7     2     4   ar
     8     2     6    1
     9     3     5   ar
    10     3    22    1
    11    22    24    1
    12    25    26   ar
    13    27    28   ar
    14    29    24   ar
    15     7     8   ar
    16     9    10   ar
    17    11     6   ar
    18    20    21   ar
    19    13     1    1
    20    17    20   ar
    21    18    19   ar
    22    12    14    2
    23     1     4   ar
    24     2     3   ar
    25    22    23    2
    26    24    25   ar
    27    26    27   ar
    28    28    29   ar
    29     6     7   ar
    30     8     9   ar
    31    10    11   ar
    32    13    15    1
@<TRIPOS>MOLECULE
MolPort-005-291-842 12422387 CSSS00106609014 MCULE-9814528495 PubChem-16879787 ZINC000012422387 ZINC12422387
 29 32 0 0 0
SMALL
GASTEIGER

@<TRIPOS>ATOM
      1 C          10.9210   41.8500    8.1004 C.ar    1  UNL1        0.1659
      2 C          13.1251   42.0426    7.6807 C.ar    1  UNL1        0.0923
      3 C          13.1548   40.9741    8.5966 C.ar    1  UNL1        0.0886
      4 N          11.8749   42.5162    7.4162 N.ar    1  UNL1       -0.2238
      5 S          11.5673   40.6389    9.0596 S.2     1  UNL1       -0.0481
      6 C          14.3099   42.6802    7.0651 C.ar    1  UNL1        0.0183
      7 C          14.1953   43.2772    5.8007 C.ar    1  UNL1        0.0015
      8 C          15.2914   43.9188    5.2166 C.ar    1  UNL1        0.0000
      9 C          16.5101   43.9785    5.8971 C.ar    1  UNL1        0.0000
     10 C          16.6310   43.4013    7.1633 C.ar    1  UNL1        0.0000
     11 C          15.5341   42.7604    7.7465 C.ar    1  UNL1        0.0015
     12 C           8.7963   42.9708    8.9230 C.2     1  UNL1        0.2883
     13 N           9.5218   42.1347    8.0138 N.am    1  UNL1       -0.2580
     14 O           9.3787   43.5256    9.8932 O.2     1  UNL1       -0.2663
     15 H           9.0192   41.7248    7.2731 H       1  UNL1        0.1572
     16 C           4.3225   44.8756    7.7985 C.3     1  UNL1        0.0557
     17 C           5.4339   43.9961    8.2462 C.ar    1  UNL1        0.1012
     18 C           7.3597   43.1859    8.7263 C.ar    1  UNL1        0.2298
     19 C           6.7750   44.3284    8.2091 C.ar    1  UNL1        0.0629
     20 N           5.2528   42.7603    8.7448 N.ar    1  UNL1       -0.0812
     21 O           6.4357   42.3031    9.0228 O.2     1  UNL1       -0.3490
     22 C          14.3158   40.1395    8.9710 C.2     1  UNL1        0.2030
     23 O          15.4770   40.5744    8.7404 O.2     1  UNL1       -0.2860
     24 C          14.1536   38.7986    9.5759 C.ar    1  UNL1        0.0395
     25 C          14.2114   38.6485   10.9701 C.ar    1  UNL1        0.0032
     26 C          14.0417   37.3909   11.5565 C.ar    1  UNL1        0.0001
     27 C          13.8074   36.2717   10.7540 C.ar    1  UNL1        0.0000
     28 C          13.7403   36.4103    9.3655 C.ar    1  UNL1        0.0001
     29 C          13.9098   37.6682    8.7800 C.ar    1  UNL1        0.0032
@<TRIPOS>BOND
     1    16    17    1
     2    18    21   ar
     3    18    12    1
     4    19    17   ar
     5    12    13   am
     6     1     5   ar
     7     2     4   ar
     8     2     6    1
     9     3     5   ar
    10     3    22    1
    11    22    24    1
    12    25    26   ar
    13    27    28   ar
    14    29    24   ar
    15     7     8   ar
    16     9    10   ar
    17    11     6   ar
    18    20    21   ar
    19    13     1    1
    20    17    20   ar
    21    18    19   ar
    22    12    14    2
    23     1     4   ar
    24     2     3   ar
    25    22    23    2
    26    24    25   ar
    27    26    27   ar
    28    28    29   ar
    29     6     7   ar
    30     8     9   ar
    31    10    11   ar
    32    13    15    1
@<TRIPOS>MOLECULE
MolPort-005-291-842 12422387 CSSS00106609014 MCULE-9814528495 PubChem-16879787 ZINC000012422387 ZINC12422387
 29 32 0 0 0
SMALL
GASTEIGER

@<TRIPOS>ATOM
      1 C          11.7627   40.1555   10.0761 C.ar    1  UNL1        0.1659
      2 C          13.8684   40.5973    9.4112 C.ar    1  UNL1        0.0923
      3 C          14.1178   39.5069   10.2657 C.ar    1  UNL1        0.0886
      4 N          12.5536   40.9434    9.3175 N.ar    1  UNL1       -0.2238
      5 S          12.6407   38.9878   10.8946 S.2     1  UNL1       -0.0481
      6 C          14.8985   41.3791    8.6922 C.ar    1  UNL1        0.0183
      7 C          16.2405   41.2864    9.0909 C.ar    1  UNL1        0.0015
      8 C          17.2356   41.9861    8.4023 C.ar    1  UNL1        0.0000
      9 C          16.8988   42.7770    7.3010 C.ar    1  UNL1        0.0000
     10 C          15.5679   42.8640    6.8856 C.ar    1  UNL1        0.0000
     11 C          14.5738   42.1635    7.5748 C.ar    1  UNL1        0.0015
     12 C           9.6581   41.4436   10.6754 C.2     1  UNL1        0.2883
     13 N          10.3416   40.2917   10.1672 N.am    1  UNL1       -0.2580
     14 O          10.3021   42.4449   11.0890 O.2     1  UNL1       -0.2663
     15 H           9.7915   39.5364    9.8572 H       1  UNL1        0.1572
     16 C           4.8089   41.5188    9.4979 C.3     1  UNL1        0.0557
     17 C           6.1078   41.4940   10.2200 C.ar    1  UNL1        0.1012
     18 C           8.1930   41.4618   10.7165 C.ar    1  UNL1        0.2298
     19 C           7.3519   41.4851    9.6180 C.ar    1  UNL1        0.0629
     20 N           6.2161   41.4773   11.5603 N.ar    1  UNL1       -0.0812
     21 O           7.4875   41.4580   11.8225 O.2     1  UNL1       -0.3490
     22 C          15.3947   38.7886   10.4618 C.2     1  UNL1        0.2030
     23 O          16.1770   39.1765   11.3719 O.2     1  UNL1       -0.2860
     24 C          15.7942   37.6526    9.6016 C.ar    1  UNL1        0.0395
     25 C          17.1003   37.1445    9.6757 C.ar    1  UNL1        0.0032
     26 C          17.4866   36.0601    8.8825 C.ar    1  UNL1        0.0001
     27 C          16.5680   35.4699    8.0110 C.ar    1  UNL1        0.0000
     28 C          15.2629   35.9624    7.9343 C.ar    1  UNL1        0.0001
     29 C          14.8776   37.0465    8.7280 C.ar    1  UNL1        0.0032
@<TRIPOS>BOND
     1    16    17    1
     2    18    21   ar
     3    18    12    1
     4    19    17   ar
     5    12    13   am
     6     1     5   ar
     7     2     4   ar
     8     2     6    1
     9     3     5   ar
    10     3    22    1
    11    22    24    1
    12    25    26   ar
    13    27    28   ar
    14    29    24   ar
    15     7     8   ar
    16     9    10   ar
    17    11     6   ar
    18    20    21   ar
    19    13     1    1
    20    17    20   ar
    21    18    19   ar
    22    12    14    2
    23     1     4   ar
    24     2     3   ar
    25    22    23    2
    26    24    25   ar
    27    26    27   ar
    28    28    29   ar
    29     6     7   ar
    30     8     9   ar
    31    10    11   ar
    32    13    15    1
@<TRIPOS>MOLECULE
MolPort-005-291-842 12422387 CSSS00106609014 MCULE-9814528495 PubChem-16879787 ZINC000012422387 ZINC12422387
 29 32 0 0 0
SMALL
GASTEIGER

@<TRIPOS>ATOM
      1 C           4.9783   42.1921   11.1341 C.ar    1  UNL1        0.1659
      2 C           7.1196   41.8401   10.5325 C.ar    1  UNL1        0.0923
      3 C           6.5955   42.2580    9.2947 C.ar    1  UNL1        0.0886
      4 N           6.2064   41.8102   11.5437 N.ar    1  UNL1       -0.2238
      5 S           4.9558   42.5935    9.5085 S.2     1  UNL1       -0.0481
      6 C           8.5130   41.4042   10.7728 C.ar    1  UNL1        0.0183
      7 C           9.2888   40.9440    9.6983 C.ar    1  UNL1        0.0015
      8 C          10.6194   40.5632    9.8951 C.ar    1  UNL1        0.0000
      9 C          11.1899   40.6497   11.1674 C.ar    1  UNL1        0.0000
     10 C          10.4315   41.1216   12.2413 C.ar    1  UNL1        0.0000
     11 C           9.1012   41.5024   12.0432 C.ar    1  UNL1        0.0015
     12 C           2.4712   42.1989   11.5364 C.2     1  UNL1        0.2883
     13 N           3.8304   42.2566   11.9853 N.am    1  UNL1       -0.2580
     14 O           2.2014   42.0837   10.3108 O.2     1  UNL1       -0.2663
     15 H           3.9863   42.3474   12.9531 H       1  UNL1        0.1572
     16 C          -0.2422   42.4839   15.7154 C.3     1  UNL1        0.0557
     17 C           0.2052   42.3971   14.3006 C.ar    1  UNL1        0.1012
     18 C           1.3787   42.2748   12.5108 C.ar    1  UNL1        0.2298
     19 C           1.5225   42.3473   13.8851 C.ar    1  UNL1        0.0629
     20 N          -0.6370   42.3569   13.2530 N.ar    1  UNL1       -0.0812
     21 O           0.1064   42.2834   12.1911 O.2     1  UNL1       -0.3490
     22 C           7.3410   42.5501    8.0523 C.2     1  UNL1        0.2030
     23 O           7.6264   43.7485    7.7819 O.2     1  UNL1       -0.2860
     24 C           7.7311   41.4830    7.1040 C.ar    1  UNL1        0.0395
     25 C           8.9134   41.6079    6.3580 C.ar    1  UNL1        0.0032
     26 C           9.3038   40.5996    5.4720 C.ar    1  UNL1        0.0001
     27 C           8.5179   39.4538    5.3274 C.ar    1  UNL1        0.0000
     28 C           7.3429   39.3151    6.0703 C.ar    1  UNL1        0.0001
     29 C           6.9534   40.3237    6.9562 C.ar    1  UNL1        0.0032
@<TRIPOS>BOND
     1    16    17    1
     2    18    21   ar
     3    18    12    1
     4    19    17   ar
     5    12    13   am
     6     1     5   ar
     7     2     4   ar
     8     2     6    1
     9     3     5   ar
    10     3    22    1
    11    22    24    1
    12    25    26   ar
    13    27    28   ar
    14    29    24   ar
    15     7     8   ar
    16     9    10   ar
    17    11     6   ar
    18    20    21   ar
    19    13     1    1
    20    17    20   ar
    21    18    19   ar
    22    12    14    2
    23     1     4   ar
    24     2     3   ar
    25    22    23    2
    26    24    25   ar
    27    26    27   ar
    28    28    29   ar
    29     6     7   ar
    30     8     9   ar
    31    10    11   ar
    32    13    15    1
@<TRIPOS>MOLECULE
MolPort-005-291-842 12422387 CSSS00106609014 MCULE-9814528495 PubChem-16879787 ZINC000012422387 ZINC12422387
 29 32 0 0 0
SMALL
GASTEIGER

@<TRIPOS>ATOM
      1 C          10.4594   41.7598    9.1169 C.ar    1  UNL1        0.1659
      2 C          12.1944   40.4104    9.6069 C.ar    1  UNL1        0.0923
      3 C          12.7837   41.1887    8.5929 C.ar    1  UNL1        0.0886
      4 N          10.9023   40.7423    9.8854 N.ar    1  UNL1       -0.2238
      5 S          11.6382   42.3076    8.0611 S.2     1  UNL1       -0.0481
      6 C          12.8425   39.2812   10.3100 C.ar    1  UNL1        0.0183
      7 C          12.6065   37.9685    9.8747 C.ar    1  UNL1        0.0015
      8 C          13.2379   36.8891   10.4995 C.ar    1  UNL1        0.0000
      9 C          14.1202   37.1138   11.5592 C.ar    1  UNL1        0.0000
     10 C          14.3747   38.4179   11.9904 C.ar    1  UNL1        0.0000
     11 C          13.7430   39.4964   11.3645 C.ar    1  UNL1        0.0015
     12 C           8.1898   42.3227    8.1272 C.2     1  UNL1        0.2883
     13 N           9.1430   42.3141    9.1965 N.am    1  UNL1       -0.2580
     14 O           8.4732   41.8197    7.0070 O.2     1  UNL1       -0.2663
     15 H           8.8715   42.7205   10.0512 H       1  UNL1        0.1572
     16 C           3.9937   44.9912    7.7039 C.3     1  UNL1        0.0557
     17 C           5.0629   44.0651    8.1605 C.ar    1  UNL1        0.1012
     18 C           6.8685   42.9228    8.3343 C.ar    1  UNL1        0.2298
     19 C           6.2612   43.8501    7.5061 C.ar    1  UNL1        0.0629
     20 N           4.9797   43.3231    9.2789 N.ar    1  UNL1       -0.0812
     21 O           6.0861   42.6476    9.3506 O.2     1  UNL1       -0.3490
     22 C          14.1994   41.1939    8.1679 C.2     1  UNL1        0.2030
     23 O          14.9478   40.2473    8.5349 O.2     1  UNL1       -0.2860
     24 C          14.7689   42.2916    7.3550 C.ar    1  UNL1        0.0395
     25 C          14.0565   42.7877    6.2523 C.ar    1  UNL1        0.0032
     26 C          14.5737   43.8365    5.4862 C.ar    1  UNL1        0.0001
     27 C          15.8065   44.4028    5.8192 C.ar    1  UNL1        0.0000
     28 C          16.5211   43.9222    6.9192 C.ar    1  UNL1        0.0001
     29 C          16.0030   42.8737    7.6847 C.ar    1  UNL1        0.0032
@<TRIPOS>BOND
     1    16    17    1
     2    18    21   ar
     3    18    12    1
     4    19    17   ar
     5    12    13   am
     6     1     5   ar
     7     2     4   ar
     8     2     6    1
     9     3     5   ar
    10     3    22    1
    11    22    24    1
    12    25    26   ar
    13    27    28   ar
    14    29    24   ar
    15     7     8   ar
    16     9    10   ar
    17    11     6   ar
    18    20    21   ar
    19    13     1    1
    20    17    20   ar
    21    18    19   ar
    22    12    14    2
    23     1     4   ar
    24     2     3   ar
    25    22    23    2
    26    24    25   ar
    27    26    27   ar
    28    28    29   ar
    29     6     7   ar
    30     8     9   ar
    31    10    11   ar
    32    13    15    1
@<TRIPOS>MOLECULE
MolPort-005-291-842 12422387 CSSS00106609014 MCULE-9814528495 PubChem-16879787 ZINC000012422387 ZINC12422387
 29 32 0 0 0
SMALL
GASTEIGER

@<TRIPOS>ATOM
      1 C          11.9114   40.5439    9.1758 C.ar    1  UNL1        0.1659
      2 C          14.1232   40.8818    8.9212 C.ar    1  UNL1        0.0923
      3 C          14.1551   39.7865    9.8048 C.ar    1  UNL1        0.0886
      4 N          12.8676   41.2887    8.5819 N.ar    1  UNL1       -0.2238
      5 S          12.5629   39.3417   10.1426 S.2     1  UNL1       -0.0481
      6 C          15.3064   41.6095    8.4113 C.ar    1  UNL1        0.0183
      7 C          16.5728   41.3324    8.9475 C.ar    1  UNL1        0.0015
      8 C          17.7095   41.9799    8.4549 C.ar    1  UNL1        0.0000
      9 C          17.5912   42.9033    7.4132 C.ar    1  UNL1        0.0000
     10 C          16.3372   43.1751    6.8611 C.ar    1  UNL1        0.0000
     11 C          15.2014   42.5267    7.3544 C.ar    1  UNL1        0.0015
     12 C           9.7198   40.1687    7.9495 C.2     1  UNL1        0.2883
     13 N          10.5067   40.7473    8.9975 N.am    1  UNL1       -0.2580
     14 O          10.2476   39.4151    7.0882 O.2     1  UNL1       -0.2663
     15 H          10.0457   41.3291    9.6442 H       1  UNL1        0.1572
     16 C           5.0663   41.7257    8.8595 C.3     1  UNL1        0.0557
     17 C           6.2823   41.1192    8.2571 C.ar    1  UNL1        0.1012
     18 C           8.2840   40.4543    7.8744 C.ar    1  UNL1        0.2298
     19 C           7.5441   41.1408    8.8209 C.ar    1  UNL1        0.0629
     20 N           6.2876   40.4724    7.0781 N.ar    1  UNL1       -0.0812
     21 O           7.5112   40.0859    6.8805 O.2     1  UNL1       -0.3490
     22 C          15.3365   39.0104   10.2366 C.2     1  UNL1        0.2030
     23 O          16.0226   39.4359   11.2056 O.2     1  UNL1       -0.2860
     24 C          15.7544   37.7706    9.5450 C.ar    1  UNL1        0.0395
     25 C          14.8607   37.1142    8.6847 C.ar    1  UNL1        0.0032
     26 C          15.2478   35.9523    8.0106 C.ar    1  UNL1        0.0001
     27 C          16.5349   35.4385    8.1866 C.ar    1  UNL1        0.0000
     28 C          17.4356   36.0876    9.0346 C.ar    1  UNL1        0.0001
     29 C          17.0477   37.2495    9.7080 C.ar    1  UNL1        0.0032
@<TRIPOS>BOND
     1    16    17    1
     2    18    21   ar
     3    18    12    1
     4    19    17   ar
     5    12    13   am
     6     1     5   ar
     7     2     4   ar
     8     2     6    1
     9     3     5   ar
    10     3    22    1
    11    22    24    1
    12    25    26   ar
    13    27    28   ar
    14    29    24   ar
    15     7     8   ar
    16     9    10   ar
    17    11     6   ar
    18    20    21   ar
    19    13     1    1
    20    17    20   ar
    21    18    19   ar
    22    12    14    2
    23     1     4   ar
    24     2     3   ar
    25    22    23    2
    26    24    25   ar
    27    26    27   ar
    28    28    29   ar
    29     6     7   ar
    30     8     9   ar
    31    10    11   ar
    32    13    15    1
@<TRIPOS>MOLECULE
MolPort-005-291-842 12422387 CSSS00106609014 MCULE-9814528495 PubChem-16879787 ZINC000012422387 ZINC12422387
 29 32 0 0 0
SMALL
GASTEIGER

@<TRIPOS>ATOM
      1 C          11.0333   41.2260    8.6780 C.ar    1  UNL1        0.1659
      2 C          13.2363   40.9004    9.0125 C.ar    1  UNL1        0.0923
      3 C          12.7207   39.9771    9.9415 C.ar    1  UNL1        0.0886
      4 N          12.2838   41.5850    8.3187 N.ar    1  UNL1       -0.2238
      5 S          11.0365   40.0419    9.8623 S.2     1  UNL1       -0.0481
      6 C          14.6707   41.1926    8.7967 C.ar    1  UNL1        0.0183
      7 C          15.0432   42.1972    7.8910 C.ar    1  UNL1        0.0015
      8 C          16.3906   42.5166    7.6996 C.ar    1  UNL1        0.0000
      9 C          17.3780   41.8409    8.4211 C.ar    1  UNL1        0.0000
     10 C          17.0175   40.8499    9.3371 C.ar    1  UNL1        0.0000
     11 C          15.6698   40.5318    9.5278 C.ar    1  UNL1        0.0015
     12 C           8.9369   42.6536    8.7977 C.2     1  UNL1        0.2883
     13 N           9.8429   41.7814    8.1117 N.am    1  UNL1       -0.2580
     14 O           9.1496   42.9936    9.9925 O.2     1  UNL1       -0.2663
     15 H           9.6300   41.5463    7.1796 H       1  UNL1        0.1572
     16 C           4.5580   44.7625    7.6642 C.3     1  UNL1        0.0557
     17 C           5.8678   44.0620    7.6097 C.ar    1  UNL1        0.1012
     18 C           7.7474   43.1584    8.1057 C.ar    1  UNL1        0.2298
     19 C           6.6870   43.8224    8.6967 C.ar    1  UNL1        0.0629
     20 N           6.4076   43.5766    6.4777 N.ar    1  UNL1       -0.0812
     21 O           7.5401   43.0392    6.8158 O.2     1  UNL1       -0.3490
     22 C          13.4704   38.9752   10.7282 C.2     1  UNL1        0.2030
     23 O          14.0575   39.3447   11.7816 O.2     1  UNL1       -0.2860
     24 C          13.5788   37.5634   10.2981 C.ar    1  UNL1        0.0395
     25 C          12.5791   36.6449   10.6541 C.ar    1  UNL1        0.0032
     26 C          12.6589   35.3123   10.2395 C.ar    1  UNL1        0.0001
     27 C          13.7373   34.8865    9.4601 C.ar    1  UNL1        0.0000
     28 C          14.7344   35.7936    9.0933 C.ar    1  UNL1        0.0001
     29 C          14.6536   37.1260    9.5081 C.ar    1  UNL1        0.0032
@<TRIPOS>BOND
     1    16    17    1
     2    18    21   ar
     3    18    12    1
     4    19    17   ar
     5    12    13   am
     6     1     5   ar
     7     2     4   ar
     8     2     6    1
     9     3     5   ar
    10     3    22    1
    11    22    24    1
    12    25    26   ar
    13    27    28   ar
    14    29    24   ar
    15     7     8   ar
    16     9    10   ar
    17    11     6   ar
    18    20    21   ar
    19    13     1    1
    20    17    20   ar
    21    18    19   ar
    22    12    14    2
    23     1     4   ar
    24     2     3   ar
    25    22    23    2
    26    24    25   ar
    27    26    27   ar
    28    28    29   ar
    29     6     7   ar
    30     8     9   ar
    31    10    11   ar
    32    13    15    1
@<TRIPOS>MOLECULE
MolPort-005-291-842 12422387 CSSS00106609014 MCULE-9814528495 PubChem-16879787 ZINC000012422387 ZINC12422387
 29 32 0 0 0
SMALL
GASTEIGER

@<TRIPOS>ATOM
      1 C           8.1560   40.2698    7.7229 C.ar    1  UNL1        0.1659
      2 C           6.8701   41.3206    9.2439 C.ar    1  UNL1        0.0923
      3 C           8.1410   41.5994    9.7809 C.ar    1  UNL1        0.0886
      4 N           6.8978   40.5810    8.0995 N.ar    1  UNL1       -0.2238
      5 S           9.2986   40.8957    8.7751 S.2     1  UNL1       -0.0481
      6 C           5.5772   41.7155    9.8455 C.ar    1  UNL1        0.0183
      7 C           4.7085   42.5530    9.1299 C.ar    1  UNL1        0.0015
      8 C           3.4656   42.9080    9.6623 C.ar    1  UNL1        0.0000
      9 C           3.0755   42.4193   10.9117 C.ar    1  UNL1        0.0000
     10 C           3.9259   41.5720   11.6258 C.ar    1  UNL1        0.0000
     11 C           5.1682   41.2174   11.0922 C.ar    1  UNL1        0.0015
     12 C           9.1098   40.0253    5.3824 C.2     1  UNL1        0.2883
     13 N           8.4812   39.5038    6.5594 N.am    1  UNL1       -0.2580
     14 O           9.4240   41.2433    5.3052 O.2     1  UNL1       -0.2663
     15 H           8.2560   38.5455    6.5681 H       1  UNL1        0.1572
     16 C          10.3771   36.1474    2.5077 C.3     1  UNL1        0.0557
     17 C           9.9348   37.4746    3.0101 C.ar    1  UNL1        0.1012
     18 C           9.3924   39.1351    4.2526 C.ar    1  UNL1        0.2298
     19 C           9.8383   37.8283    4.3427 C.ar    1  UNL1        0.0629
     20 N           9.5744   38.4931    2.2093 N.ar    1  UNL1       -0.0812
     21 O           9.2538   39.4768    2.9936 O.2     1  UNL1       -0.3490
     22 C           8.4661   42.4988   10.9079 C.2     1  UNL1        0.2030
     23 O           8.3437   43.7437   10.7472 O.2     1  UNL1       -0.2860
     24 C           8.9614   41.9829   12.2036 C.ar    1  UNL1        0.0395
     25 C          10.2532   41.4418   12.2934 C.ar    1  UNL1        0.0032
     26 C          10.7411   40.9675   13.5146 C.ar    1  UNL1        0.0001
     27 C           9.9430   41.0347   14.6592 C.ar    1  UNL1        0.0000
     28 C           8.6583   41.5782   14.5833 C.ar    1  UNL1        0.0001
     29 C           8.1714   42.0524   13.3619 C.ar    1  UNL1        0.0032
@<TRIPOS>BOND
     1    16    17    1
     2    18    21   ar
     3    18    12    1
     4    19    17   ar
     5    12    13   am
     6     1     5   ar
     7     2     4   ar
     8     2     6    1
     9     3     5   ar
    10     3    22    1
    11    22    24    1
    12    25    26   ar
    13    27    28   ar
    14    29    24   ar
    15     7     8   ar
    16     9    10   ar
    17    11     6   ar
    18    20    21   ar
    19    13     1    1
    20    17    20   ar
    21    18    19   ar
    22    12    14    2
    23     1     4   ar
    24     2     3   ar
    25    22    23    2
    26    24    25   ar
    27    26    27   ar
    28    28    29   ar
    29     6     7   ar
    30     8     9   ar
    31    10    11   ar
    32    13    15    1
@<TRIPOS>MOLECULE
MolPort-005-291-842 12422387 CSSS00106609014 MCULE-9814528495 PubChem-16879787 ZINC000012422387 ZINC12422387
 29 32 0 0 0
SMALL
GASTEIGER

@<TRIPOS>ATOM
      1 C          10.2483   41.2650    8.7799 C.ar    1  UNL1        0.1659
      2 C          12.0927   40.1620    9.4528 C.ar    1  UNL1        0.0923
      3 C          12.6495   40.9377    8.4186 C.ar    1  UNL1        0.0886
      4 N          10.7570   40.3575    9.6398 N.ar    1  UNL1       -0.2238
      5 S          11.4184   41.8786    7.7508 S.2     1  UNL1       -0.0481
      6 C          12.8214   39.1635   10.2662 C.ar    1  UNL1        0.0183
      7 C          12.7055   37.8005    9.9548 C.ar    1  UNL1        0.0015
      8 C          13.4148   36.8426   10.6853 C.ar    1  UNL1        0.0000
      9 C          14.2555   37.2406   11.7278 C.ar    1  UNL1        0.0000
     10 C          14.3906   38.5963   12.0361 C.ar    1  UNL1        0.0000
     11 C          13.6811   39.5531   11.3046 C.ar    1  UNL1        0.0015
     12 C           8.3780   42.9258    9.2169 C.2     1  UNL1        0.2883
     13 N           8.8753   41.6654    8.7519 N.am    1  UNL1       -0.2580
     14 O           9.1596   43.7892    9.6985 O.2     1  UNL1       -0.2663
     15 H           8.2225   41.0262    8.3852 H       1  UNL1        0.1572
     16 C           3.3955   42.6431    9.2648 C.3     1  UNL1        0.0557
     17 C           4.8034   43.1062    9.1519 C.ar    1  UNL1        0.1012
     18 C           6.9441   43.2184    9.1337 C.ar    1  UNL1        0.2298
     19 C           5.9189   42.3176    9.3622 C.ar    1  UNL1        0.0629
     20 N           5.1513   44.3640    8.8272 N.ar    1  UNL1       -0.0812
     21 O           6.4492   44.3938    8.8262 O.2     1  UNL1       -0.3490
     22 C          14.0783   41.0814    8.0685 C.2     1  UNL1        0.2030
     23 O          14.8890   40.1914    8.4446 O.2     1  UNL1       -0.2860
     24 C          14.5873   42.2526    7.3206 C.ar    1  UNL1        0.0395
     25 C          13.8480   42.7720    6.2466 C.ar    1  UNL1        0.0032
     26 C          14.3074   43.8890    5.5427 C.ar    1  UNL1        0.0001
     27 C          15.5085   44.5006    5.9097 C.ar    1  UNL1        0.0000
     28 C          16.2490   43.9970    6.9819 C.ar    1  UNL1        0.0001
     29 C          15.7888   42.8802    7.6854 C.ar    1  UNL1        0.0032
@<TRIPOS>BOND
     1    16    17    1
     2    18    21   ar
     3    18    12    1
     4    19    17   ar
     5    12    13   am
     6     1     5   ar
     7     2     4   ar
     8     2     6    1
     9     3     5   ar
    10     3    22    1
    11    22    24    1
    12    25    26   ar
    13    27    28   ar
    14    29    24   ar
    15     7     8   ar
    16     9    10   ar
    17    11     6   ar
    18    20    21   ar
    19    13     1    1
    20    17    20   ar
    21    18    19   ar
    22    12    14    2
    23     1     4   ar
    24     2     3   ar
    25    22    23    2
    26    24    25   ar
    27    26    27   ar
    28    28    29   ar
    29     6     7   ar
    30     8     9   ar
    31    10    11   ar
    32    13    15    1
@<TRIPOS>MOLECULE
MolPort-005-291-842 12422387 CSSS00106609014 MCULE-9814528495 PubChem-16879787 ZINC000012422387 ZINC12422387
 29 32 0 0 0
SMALL
GASTEIGER

@<TRIPOS>ATOM
      1 C           5.3730   41.8601    9.8439 C.ar    1  UNL1        0.1659
      2 C           7.5447   41.5805    9.3177 C.ar    1  UNL1        0.0923
      3 C           6.9531   41.0409    8.1600 C.ar    1  UNL1        0.0886
      4 N           6.6511   42.0316   10.2425 N.ar    1  UNL1       -0.2238
      5 S           5.2780   41.1517    8.3295 S.2     1  UNL1       -0.0481
      6 C           8.9970   41.6336    9.5959 C.ar    1  UNL1        0.0183
      7 C           9.6367   40.5139   10.1485 C.ar    1  UNL1        0.0015
      8 C          11.0145   40.5279   10.3842 C.ar    1  UNL1        0.0000
      9 C          11.7675   41.6588   10.0590 C.ar    1  UNL1        0.0000
     10 C          11.1434   42.7734    9.4936 C.ar    1  UNL1        0.0000
     11 C           9.7657   42.7581    9.2581 C.ar    1  UNL1        0.0015
     12 C           3.4795   41.3659   11.4619 C.2     1  UNL1        0.2883
     13 N           4.2313   42.2439   10.6156 N.am    1  UNL1       -0.2580
     14 O           3.7981   40.1520   11.5766 O.2     1  UNL1       -0.2663
     15 H           3.9401   43.1828   10.5610 H       1  UNL1        0.1572
     16 C           0.1457   42.5009   14.9981 C.3     1  UNL1        0.0557
     17 C           0.8885   42.3738   13.7169 C.ar    1  UNL1        0.1012
     18 C           2.3256   41.8814   12.2043 C.ar    1  UNL1        0.2298
     19 C           2.0779   41.6894   13.5521 C.ar    1  UNL1        0.0629
     20 N           0.4772   42.9198   12.5588 N.ar    1  UNL1       -0.0812
     21 O           1.3685   42.6021   11.6699 O.2     1  UNL1       -0.3490
     22 C           7.6290   40.6178    6.9155 C.2     1  UNL1        0.2030
     23 O           6.9266   40.2107    5.9502 O.2     1  UNL1       -0.2860
     24 C           9.1030   40.6269    6.7829 C.ar    1  UNL1        0.0395
     25 C           9.8461   39.4971    7.1582 C.ar    1  UNL1        0.0032
     26 C          11.2373   39.4846    7.0214 C.ar    1  UNL1        0.0001
     27 C          11.8983   40.6007    6.5028 C.ar    1  UNL1        0.0000
     28 C          11.1682   41.7282    6.1188 C.ar    1  UNL1        0.0001
     29 C           9.7772   41.7396    6.2557 C.ar    1  UNL1        0.0032
@<TRIPOS>BOND
     1    16    17    1
     2    18    21   ar
     3    18    12    1
     4    19    17   ar
     5    12    13   am
     6     1     5   ar
     7     2     4   ar
     8     2     6    1
     9     3     5   ar
    10     3    22    1
    11    22    24    1
    12    25    26   ar
    13    27    28   ar
    14    29    24   ar
    15     7     8   ar
    16     9    10   ar
    17    11     6   ar
    18    20    21   ar
    19    13     1    1
    20    17    20   ar
    21    18    19   ar
    22    12    14    2
    23     1     4   ar
    24     2     3   ar
    25    22    23    2
    26    24    25   ar
    27    26    27   ar
    28    28    29   ar
    29     6     7   ar
    30     8     9   ar
    31    10    11   ar
    32    13    15    1
