@<TRIPOS>MOLECULE
MolPort-008-869-463 36182764 CSSS00160342980 ChemDiv-Y300-3262 MCULE-7091247739 PubChem-56919441 ZINC000036182764 ZINC36182764
 21 22 0 0 0
SMALL
GASTEIGER

@<TRIPOS>ATOM
      1 S          11.4397   41.4355    8.7803 S.O2    1  UNL1        0.1010
      2 O          11.1134   40.3763    7.7647 O.2     1  UNL1       -0.1477
      3 O          12.5742   42.2746    8.2626 O.2     1  UNL1       -0.1477
      4 C          10.0238   42.4355    9.0320 C.ar    1  UNL1        0.2593
      5 C           7.8795   43.4781    9.1540 C.ar    1  UNL1        0.1893
      6 N          10.0337   43.5809    9.7478 N.ar    1  UNL1       -0.1187
      7 N           8.8381   44.1636    9.8157 N.ar    1  UNL1       -0.1239
      8 S           8.4880   42.0830    8.4370 S.2     1  UNL1       -0.0102
      9 C           5.8197   44.1964    7.8579 C.2     1  UNL1        0.2281
     10 C           4.3926   44.6058    7.9149 C.3     1  UNL1        0.0950
     11 N           6.5100   43.8837    9.0717 N.am    1  UNL1       -0.2627
     12 O           6.4013   44.1306    6.7427 O.2     1  UNL1       -0.2747
     13 H           6.0044   43.9530    9.9136 H       1  UNL1        0.1568
     14 C          10.9470   40.6983   11.3747 C.3     1  UNL1        0.1392
     15 N          11.9115   40.6990   10.2831 N.pl3   1  UNL1       -0.1870
     16 C          13.2211   40.1233   10.4636 C.ar    1  UNL1        0.0689
     17 C          13.5010   39.3230   11.5847 C.ar    1  UNL1        0.0161
     18 C          14.7703   38.7664   11.7641 C.ar    1  UNL1        0.0013
     19 C          15.7761   39.0032   10.8244 C.ar    1  UNL1        0.0001
     20 C          15.5123   39.7958    9.7052 C.ar    1  UNL1        0.0013
     21 C          14.2427   40.3517    9.5266 C.ar    1  UNL1        0.0161
@<TRIPOS>BOND
     1    14    15    1
     2    17    18   ar
     3    19    20   ar
     4    21    16   ar
     5     4     8   ar
     6     5    11    1
     7     5     8   ar
     8    10     9    1
     9    15    16    1
    10     6     7   ar
    11    11     9   am
    12     1    15    1
    13     1     4    1
    14    16    17   ar
    15    18    19   ar
    16    20    21   ar
    17     4     6   ar
    18     5     7   ar
    19     9    12    2
    20     1     2    2
    21     1     3    2
    22    11    13    1
@<TRIPOS>MOLECULE
MolPort-008-869-463 36182764 CSSS00160342980 ChemDiv-Y300-3262 MCULE-7091247739 PubChem-56919441 ZINC000036182764 ZINC36182764
 21 22 0 0 0
SMALL
GASTEIGER

@<TRIPOS>ATOM
      1 S          10.1683   42.2642   10.0588 S.O2    1  UNL1        0.1010
      2 O          10.7980   43.6082   10.2971 O.2     1  UNL1       -0.1477
      3 O           9.9532   41.5849   11.3822 O.2     1  UNL1       -0.1477
      4 C           8.6323   42.4930    9.2484 C.ar    1  UNL1        0.2593
      5 C           6.6419   43.2368    8.1601 C.ar    1  UNL1        0.1893
      6 N           7.8399   41.4763    8.8449 N.ar    1  UNL1       -0.1187
      7 N           6.7289   41.8904    8.2384 N.ar    1  UNL1       -0.1239
      8 S           7.9733   43.9929    8.8575 S.2     1  UNL1       -0.0102
      9 C           4.3281   44.2771    8.2158 C.2     1  UNL1        0.2281
     10 C           3.2751   45.0123    7.4688 C.3     1  UNL1        0.0950
     11 N           5.5523   43.9402    7.5559 N.am    1  UNL1       -0.2627
     12 O           4.1283   43.9608    9.4184 O.2     1  UNL1       -0.2747
     13 H           5.6523   44.2131    6.6153 H       1  UNL1        0.1568
     14 C          10.8141   41.0398    7.6922 C.3     1  UNL1        0.1392
     15 N          11.2101   41.2812    9.0731 N.pl3   1  UNL1       -0.1870
     16 C          12.4195   40.6989    9.5998 C.ar    1  UNL1        0.0689
     17 C          13.6415   40.8568    8.9235 C.ar    1  UNL1        0.0161
     18 C          14.8147   40.2907    9.4298 C.ar    1  UNL1        0.0013
     19 C          14.7806   39.5592   10.6191 C.ar    1  UNL1        0.0001
     20 C          13.5737   39.3945   11.3023 C.ar    1  UNL1        0.0013
     21 C          12.4012   39.9612   10.7954 C.ar    1  UNL1        0.0161
@<TRIPOS>BOND
     1    14    15    1
     2    17    18   ar
     3    19    20   ar
     4    21    16   ar
     5     4     8   ar
     6     5    11    1
     7     5     8   ar
     8    10     9    1
     9    15    16    1
    10     6     7   ar
    11    11     9   am
    12     1    15    1
    13     1     4    1
    14    16    17   ar
    15    18    19   ar
    16    20    21   ar
    17     4     6   ar
    18     5     7   ar
    19     9    12    2
    20     1     2    2
    21     1     3    2
    22    11    13    1
@<TRIPOS>MOLECULE
MolPort-008-869-463 36182764 CSSS00160342980 ChemDiv-Y300-3262 MCULE-7091247739 PubChem-56919441 ZINC000036182764 ZINC36182764
 21 22 0 0 0
SMALL
GASTEIGER

@<TRIPOS>ATOM
      1 S           8.1553   42.7510    9.0753 S.O2    1  UNL1        0.1010
      2 O           8.5338   44.1736    9.3799 O.2     1  UNL1       -0.1477
      3 O           7.4493   42.7074    7.7491 O.2     1  UNL1       -0.1477
      4 C           9.6107   41.7785    9.0092 C.ar    1  UNL1        0.2593
      5 C          11.7975   40.8219    9.0613 C.ar    1  UNL1        0.1893
      6 N           9.6201   40.4653    8.6932 N.ar    1  UNL1       -0.1187
      7 N          10.8396   39.9311    8.7213 N.ar    1  UNL1       -0.1239
      8 S          11.1577   42.3510    9.3498 S.2     1  UNL1       -0.0102
      9 C          13.8197   39.9609   10.3296 C.2     1  UNL1        0.2281
     10 C          15.2785   39.6808   10.3047 C.3     1  UNL1        0.0950
     11 N          13.1893   40.5077    9.1672 N.am    1  UNL1       -0.2627
     12 O          13.1589   39.7134   11.3729 O.2     1  UNL1       -0.2747
     13 H          13.7561   40.6808    8.3811 H       1  UNL1        0.1568
     14 C           7.6855   41.7430   11.5813 C.3     1  UNL1        0.1392
     15 N           7.0955   42.1361   10.3089 N.pl3   1  UNL1       -0.1870
     16 C           5.6782   41.9938   10.0847 C.ar    1  UNL1        0.0689
     17 C           5.0039   40.8302   10.4932 C.ar    1  UNL1        0.0161
     18 C           3.6309   40.6879   10.2743 C.ar    1  UNL1        0.0013
     19 C           2.9147   41.7078    9.6437 C.ar    1  UNL1        0.0001
     20 C           3.5713   42.8700    9.2328 C.ar    1  UNL1        0.0013
     21 C           4.9441   43.0113    9.4525 C.ar    1  UNL1        0.0161
@<TRIPOS>BOND
     1    14    15    1
     2    17    18   ar
     3    19    20   ar
     4    21    16   ar
     5     4     8   ar
     6     5    11    1
     7     5     8   ar
     8    10     9    1
     9    15    16    1
    10     6     7   ar
    11    11     9   am
    12     1    15    1
    13     1     4    1
    14    16    17   ar
    15    18    19   ar
    16    20    21   ar
    17     4     6   ar
    18     5     7   ar
    19     9    12    2
    20     1     2    2
    21     1     3    2
    22    11    13    1
@<TRIPOS>MOLECULE
MolPort-008-869-463 36182764 CSSS00160342980 ChemDiv-Y300-3262 MCULE-7091247739 PubChem-56919441 ZINC000036182764 ZINC36182764
 21 22 0 0 0
SMALL
GASTEIGER

@<TRIPOS>ATOM
      1 S          10.4377   42.1420    9.4481 S.O2    1  UNL1        0.1010
      2 O          11.3026   43.3614    9.6064 O.2     1  UNL1       -0.1477
      3 O           8.9945   42.5605    9.4780 O.2     1  UNL1       -0.1477
      4 C          10.8069   41.3798    7.9148 C.ar    1  UNL1        0.2593
      5 C          10.9559   40.0871    5.9133 C.ar    1  UNL1        0.1893
      6 N          11.7970   41.7911    7.0933 N.ar    1  UNL1       -0.1187
      7 N          11.8814   41.0700    5.9769 N.ar    1  UNL1       -0.1239
      8 S           9.9665   40.0683    7.2739 S.2     1  UNL1       -0.0102
      9 C           9.6837   39.0711    3.9668 C.2     1  UNL1        0.2281
     10 C           9.6807   38.0728    2.8666 C.3     1  UNL1        0.0950
     11 N          10.8269   39.1711    4.8217 N.am    1  UNL1       -0.2627
     12 O           8.6807   39.8148    4.1315 O.2     1  UNL1       -0.2747
     13 H          11.5814   38.5638    4.6456 H       1  UNL1        0.1568
     14 C          10.0257   41.2283   12.0001 C.3     1  UNL1        0.1392
     15 N          10.7367   41.0235   10.7454 N.pl3   1  UNL1       -0.1870
     16 C          11.6732   39.9361   10.6042 C.ar    1  UNL1        0.0689
     17 C          11.2427   38.6773   10.1509 C.ar    1  UNL1        0.0161
     18 C          12.1474   37.6205   10.0163 C.ar    1  UNL1        0.0013
     19 C          13.4943   37.8094   10.3336 C.ar    1  UNL1        0.0001
     20 C          13.9366   39.0550   10.7847 C.ar    1  UNL1        0.0013
     21 C          13.0313   40.1110   10.9186 C.ar    1  UNL1        0.0161
@<TRIPOS>BOND
     1    14    15    1
     2    17    18   ar
     3    19    20   ar
     4    21    16   ar
     5     4     8   ar
     6     5    11    1
     7     5     8   ar
     8    10     9    1
     9    15    16    1
    10     6     7   ar
    11    11     9   am
    12     1    15    1
    13     1     4    1
    14    16    17   ar
    15    18    19   ar
    16    20    21   ar
    17     4     6   ar
    18     5     7   ar
    19     9    12    2
    20     1     2    2
    21     1     3    2
    22    11    13    1
@<TRIPOS>MOLECULE
MolPort-008-869-463 36182764 CSSS00160342980 ChemDiv-Y300-3262 MCULE-7091247739 PubChem-56919441 ZINC000036182764 ZINC36182764
 21 22 0 0 0
SMALL
GASTEIGER

@<TRIPOS>ATOM
      1 S           9.9527   40.2340    8.4594 S.O2    1  UNL1        0.1010
      2 O           8.9279   39.8444    7.4309 O.2     1  UNL1       -0.1477
      3 O          10.4368   38.9951    9.1592 O.2     1  UNL1       -0.1477
      4 C          11.2912   41.0269    7.6545 C.ar    1  UNL1        0.2593
      5 C          13.3094   42.0948    6.9573 C.ar    1  UNL1        0.1893
      6 N          11.3208   41.2858    6.3292 N.ar    1  UNL1       -0.1187
      7 N          12.4460   41.8822    5.9395 N.ar    1  UNL1       -0.1239
      8 S          12.7000   41.5381    8.4234 S.2     1  UNL1       -0.0102
      9 C          14.8251   43.9631    6.1502 C.2     1  UNL1        0.2281
     10 C          16.2095   44.4965    6.0699 C.3     1  UNL1        0.0950
     11 N          14.5900   42.7160    6.8114 N.am    1  UNL1       -0.2627
     12 O          13.8789   44.6155    5.6354 O.2     1  UNL1       -0.2747
     13 H          15.3681   42.2504    7.1948 H       1  UNL1        0.1568
     14 C           9.8321   41.3493   10.9612 C.3     1  UNL1        0.1392
     15 N           9.2488   41.3133    9.6269 N.pl3   1  UNL1       -0.1870
     16 C           8.1093   42.1359    9.3042 C.ar    1  UNL1        0.0689
     17 C           8.2860   43.4112    8.7403 C.ar    1  UNL1        0.0161
     18 C           7.1837   44.2122    8.4296 C.ar    1  UNL1        0.0013
     19 C           5.8903   43.7477    8.6790 C.ar    1  UNL1        0.0001
     20 C           5.6994   42.4824    9.2383 C.ar    1  UNL1        0.0013
     21 C           6.8023   41.6822    9.5483 C.ar    1  UNL1        0.0161
@<TRIPOS>BOND
     1    14    15    1
     2    17    18   ar
     3    19    20   ar
     4    21    16   ar
     5     4     8   ar
     6     5    11    1
     7     5     8   ar
     8    10     9    1
     9    15    16    1
    10     6     7   ar
    11    11     9   am
    12     1    15    1
    13     1     4    1
    14    16    17   ar
    15    18    19   ar
    16    20    21   ar
    17     4     6   ar
    18     5     7   ar
    19     9    12    2
    20     1     2    2
    21     1     3    2
    22    11    13    1
@<TRIPOS>MOLECULE
MolPort-008-869-463 36182764 CSSS00160342980 ChemDiv-Y300-3262 MCULE-7091247739 PubChem-56919441 ZINC000036182764 ZINC36182764
 21 22 0 0 0
SMALL
GASTEIGER

@<TRIPOS>ATOM
      1 S           8.7815   42.8144   10.2298 S.O2    1  UNL1        0.1010
      2 O           8.2893   42.4378   11.5994 O.2     1  UNL1       -0.1477
      3 O           8.9174   44.3093   10.1544 O.2     1  UNL1       -0.1477
      4 C          10.3383   42.0588    9.9587 C.ar    1  UNL1        0.2593
      5 C          12.3426   40.7620    9.9247 C.ar    1  UNL1        0.1893
      6 N          11.1782   42.4113    8.9615 N.ar    1  UNL1       -0.1187
      7 N          12.2969   41.6890    8.9422 N.ar    1  UNL1       -0.1239
      8 S          10.9619   40.7981   10.8855 S.2     1  UNL1       -0.0102
      9 C          14.7604   40.0480    9.6357 C.2     1  UNL1        0.2281
     10 C          15.7986   39.0236    9.9189 C.3     1  UNL1        0.0950
     11 N          13.4303   39.8549   10.1269 N.am    1  UNL1       -0.2627
     12 O          15.0654   41.0711    8.9676 O.2     1  UNL1       -0.2747
     13 H          13.2502   39.0361   10.6430 H       1  UNL1        0.1568
     14 C           8.0082   41.1144    8.2225 C.3     1  UNL1        0.1392
     15 N           7.6524   42.2802    9.0202 N.pl3   1  UNL1       -0.1870
     16 C           6.4096   42.9736    8.7884 C.ar    1  UNL1        0.0689
     17 C           5.2483   42.6126    9.4933 C.ar    1  UNL1        0.0161
     18 C           4.0414   43.2806    9.2685 C.ar    1  UNL1        0.0013
     19 C           3.9807   44.3181    8.3355 C.ar    1  UNL1        0.0001
     20 C           5.1266   44.6881    7.6281 C.ar    1  UNL1        0.0013
     21 C           6.3329   44.0198    7.8539 C.ar    1  UNL1        0.0161
@<TRIPOS>BOND
     1    14    15    1
     2    17    18   ar
     3    19    20   ar
     4    21    16   ar
     5     4     8   ar
     6     5    11    1
     7     5     8   ar
     8    10     9    1
     9    15    16    1
    10     6     7   ar
    11    11     9   am
    12     1    15    1
    13     1     4    1
    14    16    17   ar
    15    18    19   ar
    16    20    21   ar
    17     4     6   ar
    18     5     7   ar
    19     9    12    2
    20     1     2    2
    21     1     3    2
    22    11    13    1
@<TRIPOS>MOLECULE
MolPort-008-869-463 36182764 CSSS00160342980 ChemDiv-Y300-3262 MCULE-7091247739 PubChem-56919441 ZINC000036182764 ZINC36182764
 21 22 0 0 0
SMALL
GASTEIGER

@<TRIPOS>ATOM
      1 S          10.7726   40.2506    7.2005 S.O2    1  UNL1        0.1010
      2 O          10.3622   39.8659    5.8065 O.2     1  UNL1       -0.1477
      3 O          10.8931   39.0060    8.0345 O.2     1  UNL1       -0.1477
      4 C          12.3170   41.0742    7.1303 C.ar    1  UNL1        0.2593
      5 C          14.5237   41.9480    7.3887 C.ar    1  UNL1        0.1893
      6 N          12.6524   41.9553    6.1632 N.ar    1  UNL1       -0.1187
      7 N          13.8829   42.4439    6.3069 N.ar    1  UNL1       -0.1239
      8 S          13.5678   40.8534    8.2365 S.2     1  UNL1       -0.0102
      9 C          16.4538   43.5869    7.5540 C.2     1  UNL1        0.2281
     10 C          17.8503   43.8250    8.0020 C.3     1  UNL1        0.0950
     11 N          15.8554   42.3053    7.7706 N.am    1  UNL1       -0.2627
     12 O          15.8171   44.5158    6.9903 O.2     1  UNL1       -0.2747
     13 H          16.4012   41.6175    8.2160 H       1  UNL1        0.1568
     14 C           8.8254   42.1721    7.0174 C.3     1  UNL1        0.1392
     15 N           9.5804   41.3005    7.9074 N.pl3   1  UNL1       -0.1870
     16 C           9.3518   41.3333    9.3308 C.ar    1  UNL1        0.0689
     17 C          10.4163   41.1464   10.2294 C.ar    1  UNL1        0.0161
     18 C          10.1973   41.1743   11.6095 C.ar    1  UNL1        0.0013
     19 C           8.9106   41.3894   12.1083 C.ar    1  UNL1        0.0001
     20 C           7.8433   41.5772   11.2273 C.ar    1  UNL1        0.0013
     21 C           8.0634   41.5494    9.8476 C.ar    1  UNL1        0.0161
@<TRIPOS>BOND
     1    14    15    1
     2    17    18   ar
     3    19    20   ar
     4    21    16   ar
     5     4     8   ar
     6     5    11    1
     7     5     8   ar
     8    10     9    1
     9    15    16    1
    10     6     7   ar
    11    11     9   am
    12     1    15    1
    13     1     4    1
    14    16    17   ar
    15    18    19   ar
    16    20    21   ar
    17     4     6   ar
    18     5     7   ar
    19     9    12    2
    20     1     2    2
    21     1     3    2
    22    11    13    1
@<TRIPOS>MOLECULE
MolPort-008-869-463 36182764 CSSS00160342980 ChemDiv-Y300-3262 MCULE-7091247739 PubChem-56919441 ZINC000036182764 ZINC36182764
 21 22 0 0 0
SMALL
GASTEIGER

@<TRIPOS>ATOM
      1 S          14.6602   37.9474    9.9380 S.O2    1  UNL1        0.1010
      2 O          14.7453   36.8614   10.9739 O.2     1  UNL1       -0.1477
      3 O          14.9917   37.3651    8.5926 O.2     1  UNL1       -0.1477
      4 C          13.0317   38.5924    9.9247 C.ar    1  UNL1        0.2593
      5 C          10.9549   39.7267   10.2412 C.ar    1  UNL1        0.1893
      6 N          12.0915   38.2336    9.0237 N.ar    1  UNL1       -0.1187
      7 N          10.9325   38.8652    9.2000 N.ar    1  UNL1       -0.1239
      8 S          12.4519   39.7435   11.0089 S.2     1  UNL1       -0.0102
      9 C           9.2170   41.5302    9.8337 C.2     1  UNL1        0.2281
     10 C           8.0667   42.2967   10.3784 C.3     1  UNL1        0.0950
     11 N           9.8433   40.5318   10.6452 N.am    1  UNL1       -0.2627
     12 O           9.6243   41.7700    8.6664 O.2     1  UNL1       -0.2747
     13 H           9.4821   40.3880   11.5497 H       1  UNL1        0.1568
     14 C          16.5621   39.1061   11.5371 C.3     1  UNL1        0.1392
     15 N          15.7899   39.2165   10.3069 N.pl3   1  UNL1       -0.1870
     16 C          15.9512   40.3590    9.4420 C.ar    1  UNL1        0.0689
     17 C          14.8856   40.8040    8.6407 C.ar    1  UNL1        0.0161
     18 C          15.0399   41.9090    7.7989 C.ar    1  UNL1        0.0013
     19 C          16.2622   42.5829    7.7479 C.ar    1  UNL1        0.0001
     20 C          17.3296   42.1525    8.5389 C.ar    1  UNL1        0.0013
     21 C          17.1742   41.0477    9.3804 C.ar    1  UNL1        0.0161
@<TRIPOS>BOND
     1    14    15    1
     2    17    18   ar
     3    19    20   ar
     4    21    16   ar
     5     4     8   ar
     6     5    11    1
     7     5     8   ar
     8    10     9    1
     9    15    16    1
    10     6     7   ar
    11    11     9   am
    12     1    15    1
    13     1     4    1
    14    16    17   ar
    15    18    19   ar
    16    20    21   ar
    17     4     6   ar
    18     5     7   ar
    19     9    12    2
    20     1     2    2
    21     1     3    2
    22    11    13    1
@<TRIPOS>MOLECULE
MolPort-008-869-463 36182764 CSSS00160342980 ChemDiv-Y300-3262 MCULE-7091247739 PubChem-56919441 ZINC000036182764 ZINC36182764
 21 22 0 0 0
SMALL
GASTEIGER

@<TRIPOS>ATOM
      1 S          12.1531   41.1184    7.1233 S.O2    1  UNL1        0.1010
      2 O          11.9983   39.6891    6.6842 O.2     1  UNL1       -0.1477
      3 O          11.8887   42.0203    5.9504 O.2     1  UNL1       -0.1477
      4 C          11.0011   41.4474    8.4011 C.ar    1  UNL1        0.2593
      5 C           9.2219   41.5342    9.9906 C.ar    1  UNL1        0.1893
      6 N          11.1463   42.4431    9.3021 N.ar    1  UNL1       -0.1187
      7 N          10.1538   42.4928   10.1887 N.ar    1  UNL1       -0.1239
      8 S           9.5972   40.5574    8.6732 S.2     1  UNL1       -0.0102
      9 C           6.7163   41.6382   10.3787 C.2     1  UNL1        0.2281
     10 C           5.5927   41.4171   11.3251 C.3     1  UNL1        0.0950
     11 N           8.0556   41.3641   10.8017 N.am    1  UNL1       -0.2627
     12 O           6.4744   42.0637    9.2183 O.2     1  UNL1       -0.2747
     13 H           8.1841   41.0336   11.7201 H       1  UNL1        0.1568
     14 C          14.2642   40.5369    8.7733 C.3     1  UNL1        0.1392
     15 N          13.7682   41.3943    7.7053 N.pl3   1  UNL1       -0.1870
     16 C          14.5933   42.4496    7.1715 C.ar    1  UNL1        0.0689
     17 C          14.0728   43.3579    6.2336 C.ar    1  UNL1        0.0161
     18 C          14.8711   44.3796    5.7119 C.ar    1  UNL1        0.0013
     19 C          16.2002   44.5059    6.1218 C.ar    1  UNL1        0.0001
     20 C          16.7308   43.6111    7.0536 C.ar    1  UNL1        0.0013
     21 C          15.9318   42.5900    7.5748 C.ar    1  UNL1        0.0161
@<TRIPOS>BOND
     1    14    15    1
     2    17    18   ar
     3    19    20   ar
     4    21    16   ar
     5     4     8   ar
     6     5    11    1
     7     5     8   ar
     8    10     9    1
     9    15    16    1
    10     6     7   ar
    11    11     9   am
    12     1    15    1
    13     1     4    1
    14    16    17   ar
    15    18    19   ar
    16    20    21   ar
    17     4     6   ar
    18     5     7   ar
    19     9    12    2
    20     1     2    2
    21     1     3    2
    22    11    13    1
@<TRIPOS>MOLECULE
MolPort-008-869-463 36182764 CSSS00160342980 ChemDiv-Y300-3262 MCULE-7091247739 PubChem-56919441 ZINC000036182764 ZINC36182764
 21 22 0 0 0
SMALL
GASTEIGER

@<TRIPOS>ATOM
      1 S           7.6352   42.5285    7.3292 S.O2    1  UNL1        0.1010
      2 O           7.2870   43.7828    8.0811 O.2     1  UNL1       -0.1477
      3 O           7.5760   42.8116    5.8543 O.2     1  UNL1       -0.1477
      4 C           9.2533   42.0293    7.7770 C.ar    1  UNL1        0.2593
      5 C          11.3158   41.4045    8.8044 C.ar    1  UNL1        0.1893
      6 N          10.1889   41.6352    6.8860 N.ar    1  UNL1       -0.1187
      7 N          11.3400   41.2873    7.4581 N.ar    1  UNL1       -0.1239
      8 S           9.8274   41.9591    9.3589 S.2     1  UNL1       -0.0102
      9 C          12.6889   39.8017   10.2132 C.2     1  UNL1        0.2281
     10 C          13.8738   39.6162   11.0901 C.3     1  UNL1        0.0950
     11 N          12.4194   41.0937    9.6603 N.am    1  UNL1       -0.2627
     12 O          11.9390   38.8198    9.9690 O.2     1  UNL1       -0.2747
     13 H          13.0401   41.8238    9.8860 H       1  UNL1        0.1568
     14 C           6.3155   40.1978    6.7429 C.3     1  UNL1        0.1392
     15 N           6.5044   41.2654    7.7157 N.pl3   1  UNL1       -0.1870
     16 C           5.7544   41.2741    8.9472 C.ar    1  UNL1        0.0689
     17 C           6.4086   41.4354   10.1807 C.ar    1  UNL1        0.0161
     18 C           5.6847   41.4409   11.3762 C.ar    1  UNL1        0.0013
     19 C           4.2970   41.2850   11.3532 C.ar    1  UNL1        0.0001
     20 C           3.6332   41.1244   10.1349 C.ar    1  UNL1        0.0013
     21 C           4.3580   41.1193    8.9401 C.ar    1  UNL1        0.0161
@<TRIPOS>BOND
     1    14    15    1
     2    17    18   ar
     3    19    20   ar
     4    21    16   ar
     5     4     8   ar
     6     5    11    1
     7     5     8   ar
     8    10     9    1
     9    15    16    1
    10     6     7   ar
    11    11     9   am
    12     1    15    1
    13     1     4    1
    14    16    17   ar
    15    18    19   ar
    16    20    21   ar
    17     4     6   ar
    18     5     7   ar
    19     9    12    2
    20     1     2    2
    21     1     3    2
    22    11    13    1
