@<TRIPOS>MOLECULE
MolPort-020-278-602 MCULE-1424883929 MCULE-1992094285 PubChem-110255474
 23 25 0 0 0
SMALL
GASTEIGER

@<TRIPOS>ATOM
      1 C          12.5558   41.2624    8.0846 C.ar    1  UNL1        0.1357
      2 C          10.3127   40.6081    8.4837 C.ar    1  UNL1        0.1411
      3 C          11.9249   40.2657   10.1780 C.ar    1  UNL1        0.0635
      4 C          12.9109   40.8160    9.3622 C.ar    1  UNL1        0.0492
      5 C          12.2712   39.7828   11.5397 C.3     1  UNL1        0.0522
      6 N          11.2641   41.1474    7.6766 N.ar    1  UNL1       -0.2159
      7 N          10.6475   40.1710    9.7281 N.ar    1  UNL1       -0.2349
      8 C           8.9069   40.5011    7.9953 C.3     1  UNL1        0.0746
      9 C           8.8008   39.4746    6.8665 C.3     1  UNL1        0.0104
     10 C           7.3786   39.4234    6.3012 C.3     1  UNL1        0.0178
     11 C           6.7168   40.8069    6.2526 C.3     1  UNL1        0.0722
     12 C           8.3661   41.8838    7.5856 C.3     1  UNL1        0.0797
     13 C           7.0091   43.1240    6.1373 C.3     1  UNL1        0.0896
     14 N           7.7220   41.8670    6.2691 N.3     1  UNL1       -0.2711
     15 N          13.5161   41.8400    7.1887 N.pl3   1  UNL1       -0.2833
     16 H          13.1924   42.0602    6.2854 H       1  UNL1        0.1550
     17 C          17.5835   44.3841    6.1791 C.3     1  UNL1        0.0521
     18 C          16.8815   43.3547    6.9887 C.ar    1  UNL1        0.0608
     19 C          14.8937   42.1332    7.4585 C.ar    1  UNL1        0.1328
     20 C          15.5459   41.4399    8.4820 C.ar    1  UNL1        0.0344
     21 C          16.8868   41.7172    8.7535 C.ar    1  UNL1        0.0041
     22 C          17.5630   42.6807    8.0039 C.ar    1  UNL1        0.0148
     23 N          15.5750   43.0697    6.7400 N.ar    1  UNL1       -0.2349
@<TRIPOS>BOND
     1    17    18    1
     2    19    23   ar
     3    19    15    1
     4    20    21   ar
     5    22    18   ar
     6     2     6   ar
     7     3     7   ar
     8     4     1   ar
     9     5     3    1
    10     8     2    1
    11     8     9    1
    12     9    10    1
    13    10    11    1
    14    11    14    1
    15    12    14    1
    16    12     8    1
    17    13    14    1
    18    15     1    1
    19    18    23   ar
    20    19    20   ar
    21    21    22   ar
    22     1     6   ar
    23     2     7   ar
    24     3     4   ar
    25    15    16    1
@<TRIPOS>MOLECULE
MolPort-020-278-602 MCULE-1424883929 MCULE-1992094285 PubChem-110255474
 23 25 0 0 0
SMALL
GASTEIGER

@<TRIPOS>ATOM
      1 C          12.0623   41.0570    7.3043 C.ar    1  UNL1        0.1357
      2 C          11.6877   39.0058    8.4317 C.ar    1  UNL1        0.1411
      3 C           9.8312   40.3441    7.8406 C.ar    1  UNL1        0.0635
      4 C          10.6829   41.2896    7.2742 C.ar    1  UNL1        0.0492
      5 C           8.3617   40.5630    7.8242 C.3     1  UNL1        0.0522
      6 N          12.5310   39.9196    7.8829 N.ar    1  UNL1       -0.2159
      7 N          10.3445   39.2224    8.4076 N.ar    1  UNL1       -0.2349
      8 C          12.2454   37.7709    9.0565 C.3     1  UNL1        0.0746
      9 C          11.2138   37.1131    9.9742 C.3     1  UNL1        0.0104
     10 C          11.8084   35.8950   10.6865 C.3     1  UNL1        0.0178
     11 C          13.2778   36.1031   11.0763 C.3     1  UNL1        0.0722
     12 C          13.5680   38.0782    9.7835 C.3     1  UNL1        0.0797
     13 C          14.9793   37.6213   11.5936 C.3     1  UNL1        0.0896
     14 N          13.6041   37.5258   11.1406 N.3     1  UNL1       -0.2711
     15 N          13.0005   41.9850    6.7413 N.pl3   1  UNL1       -0.2833
     16 H          12.6756   42.5315    5.9897 H       1  UNL1        0.1550
     17 C          17.2590   44.3488    6.1814 C.3     1  UNL1        0.0521
     18 C          16.4354   43.3405    6.8976 C.ar    1  UNL1        0.0608
     19 C          14.3575   42.2075    7.1483 C.ar    1  UNL1        0.1328
     20 C          14.8750   41.4666    8.2145 C.ar    1  UNL1        0.0344
     21 C          16.1946   41.6749    8.6192 C.ar    1  UNL1        0.0041
     22 C          16.9837   42.6176    7.9588 C.ar    1  UNL1        0.0148
     23 N          15.1475   43.1225    6.5188 N.ar    1  UNL1       -0.2349
@<TRIPOS>BOND
     1    17    18    1
     2    19    23   ar
     3    19    15    1
     4    20    21   ar
     5    22    18   ar
     6     2     6   ar
     7     3     7   ar
     8     4     1   ar
     9     5     3    1
    10     8     2    1
    11     8     9    1
    12     9    10    1
    13    10    11    1
    14    11    14    1
    15    12    14    1
    16    12     8    1
    17    13    14    1
    18    15     1    1
    19    18    23   ar
    20    19    20   ar
    21    21    22   ar
    22     1     6   ar
    23     2     7   ar
    24     3     4   ar
    25    15    16    1
@<TRIPOS>MOLECULE
MolPort-020-278-602 MCULE-1424883929 MCULE-1992094285 PubChem-110255474
 23 25 0 0 0
SMALL
GASTEIGER

@<TRIPOS>ATOM
      1 C          13.1553   41.0472    8.5646 C.ar    1  UNL1        0.1357
      2 C          11.3918   41.2469   10.1359 C.ar    1  UNL1        0.1411
      3 C          13.2688   39.9183   10.6827 C.ar    1  UNL1        0.0635
      4 C          13.8469   40.2136    9.4502 C.ar    1  UNL1        0.0492
      5 C          13.9789   39.0359   11.6444 C.3     1  UNL1        0.0522
      6 N          11.9437   41.5438    8.9298 N.ar    1  UNL1       -0.2159
      7 N          12.0563   40.4372   11.0047 N.ar    1  UNL1       -0.2349
      8 C          10.0595   41.8139   10.4959 C.3     1  UNL1        0.0746
      9 C           9.4759   41.0979   11.7150 C.3     1  UNL1        0.0104
     10 C           8.0708   41.6148   12.0363 C.3     1  UNL1        0.0178
     11 C           7.2602   41.9335   10.7731 C.3     1  UNL1        0.0722
     12 C           9.1089   41.7821    9.2845 C.3     1  UNL1        0.0797
     13 C           6.9209   41.5184    8.4971 C.3     1  UNL1        0.0896
     14 N           7.7960   41.2209    9.6157 N.3     1  UNL1       -0.2711
     15 N          13.6873   41.3954    7.2784 N.pl3   1  UNL1       -0.2833
     16 H          13.4575   40.7934    6.5341 H       1  UNL1        0.1550
     17 C          17.8459   43.9163    7.9006 C.3     1  UNL1        0.0521
     18 C          16.5255   43.7624    7.2365 C.ar    1  UNL1        0.0608
     19 C          14.5155   42.5200    6.9531 C.ar    1  UNL1        0.1328
     20 C          14.0581   43.4489    6.0143 C.ar    1  UNL1        0.0344
     21 C          14.8559   44.5475    5.6899 C.ar    1  UNL1        0.0041
     22 C          16.0991   44.7091    6.3030 C.ar    1  UNL1        0.0148
     23 N          15.7331   42.6991    7.5387 N.ar    1  UNL1       -0.2349
@<TRIPOS>BOND
     1    17    18    1
     2    19    23   ar
     3    19    15    1
     4    20    21   ar
     5    22    18   ar
     6     2     6   ar
     7     3     7   ar
     8     4     1   ar
     9     5     3    1
    10     8     2    1
    11     8     9    1
    12     9    10    1
    13    10    11    1
    14    11    14    1
    15    12    14    1
    16    12     8    1
    17    13    14    1
    18    15     1    1
    19    18    23   ar
    20    19    20   ar
    21    21    22   ar
    22     1     6   ar
    23     2     7   ar
    24     3     4   ar
    25    15    16    1
@<TRIPOS>MOLECULE
MolPort-020-278-602 MCULE-1424883929 MCULE-1992094285 PubChem-110255474
 23 25 0 0 0
SMALL
GASTEIGER

@<TRIPOS>ATOM
      1 C          12.9153   41.1742    8.2169 C.ar    1  UNL1        0.1357
      2 C          10.9567   41.1547    9.5520 C.ar    1  UNL1        0.1411
      3 C          12.9236   40.1453   10.3883 C.ar    1  UNL1        0.0635
      4 C          13.6038   40.4847    9.2210 C.ar    1  UNL1        0.0492
      5 C          13.6277   39.4129   11.4725 C.3     1  UNL1        0.0522
      6 N          11.6075   41.4925    8.4075 N.ar    1  UNL1       -0.2159
      7 N          11.6172   40.4841   10.5348 N.ar    1  UNL1       -0.2349
      8 C           9.5208   41.5240    9.7192 C.3     1  UNL1        0.0746
      9 C           8.6631   40.8766    8.6309 C.3     1  UNL1        0.0104
     10 C           7.2024   41.3216    8.7439 C.3     1  UNL1        0.0178
     11 C           7.0681   42.7908    9.1657 C.3     1  UNL1        0.0722
     12 C           9.3542   43.0544    9.7664 C.3     1  UNL1        0.0797
     13 C           8.0416   44.9159    9.2286 C.3     1  UNL1        0.0896
     14 N           8.2934   43.5314    8.8746 N.3     1  UNL1       -0.2711
     15 N          13.5492   41.5572    6.9881 N.pl3   1  UNL1       -0.2833
     16 H          13.3500   40.9986    6.2022 H       1  UNL1        0.1550
     17 C          17.7977   43.8175    7.9248 C.3     1  UNL1        0.0521
     18 C          16.4950   43.7781    7.2109 C.ar    1  UNL1        0.0608
     19 C          14.4398   42.6605    6.7736 C.ar    1  UNL1        0.1328
     20 C          14.0589   43.6773    5.8937 C.ar    1  UNL1        0.0344
     21 C          14.9179   44.7561    5.6773 C.ar    1  UNL1        0.0041
     22 C          16.1456   44.8107    6.3386 C.ar    1  UNL1        0.0148
     23 N          15.6437   42.7358    7.4080 N.ar    1  UNL1       -0.2349
@<TRIPOS>BOND
     1    17    18    1
     2    19    23   ar
     3    19    15    1
     4    20    21   ar
     5    22    18   ar
     6     2     6   ar
     7     3     7   ar
     8     4     1   ar
     9     5     3    1
    10     8     2    1
    11     8     9    1
    12     9    10    1
    13    10    11    1
    14    11    14    1
    15    12    14    1
    16    12     8    1
    17    13    14    1
    18    15     1    1
    19    18    23   ar
    20    19    20   ar
    21    21    22   ar
    22     1     6   ar
    23     2     7   ar
    24     3     4   ar
    25    15    16    1
@<TRIPOS>MOLECULE
MolPort-020-278-602 MCULE-1424883929 MCULE-1992094285 PubChem-110255474
 23 25 0 0 0
SMALL
GASTEIGER

@<TRIPOS>ATOM
      1 C          13.8404   40.3290    8.9391 C.ar    1  UNL1        0.1357
      2 C          11.6224   41.1618    9.0158 C.ar    1  UNL1        0.1411
      3 C          11.9833   38.8389    9.2623 C.ar    1  UNL1        0.0635
      4 C          13.3568   39.0302    9.1311 C.ar    1  UNL1        0.0492
      5 C          11.4396   37.4714    9.4671 C.3     1  UNL1        0.0522
      6 N          12.9603   41.3637    8.8862 N.ar    1  UNL1       -0.2159
      7 N          11.1418   39.9025    9.2030 N.ar    1  UNL1       -0.2349
      8 C          10.6921   42.3266    8.9515 C.3     1  UNL1        0.0746
      9 C          10.5167   42.9584   10.3333 C.3     1  UNL1        0.0104
     10 C           9.4959   44.0989   10.2913 C.3     1  UNL1        0.0178
     11 C           8.3283   43.8059    9.3398 C.3     1  UNL1        0.0722
     12 C           9.3496   41.9168    8.3176 C.3     1  UNL1        0.0797
     13 C           7.0258   42.1890    8.2642 C.3     1  UNL1        0.0896
     14 N           8.1971   42.3705    9.1013 N.3     1  UNL1       -0.2711
     15 N          15.2413   40.6034    8.7958 N.pl3   1  UNL1       -0.2833
     16 H          15.8572   39.9010    9.1065 H       1  UNL1        0.1550
     17 C          15.1257   44.3594    5.6470 C.3     1  UNL1        0.0521
     18 C          15.8155   43.6160    6.7331 C.ar    1  UNL1        0.0608
     19 C          15.8471   41.7839    8.2519 C.ar    1  UNL1        0.1328
     20 C          17.0782   42.2088    8.7593 C.ar    1  UNL1        0.0344
     21 C          17.6772   43.3565    8.2373 C.ar    1  UNL1        0.0041
     22 C          17.0446   44.0681    7.2170 C.ar    1  UNL1        0.0148
     23 N          15.2487   42.4952    7.2552 N.ar    1  UNL1       -0.2349
@<TRIPOS>BOND
     1    17    18    1
     2    19    23   ar
     3    19    15    1
     4    20    21   ar
     5    22    18   ar
     6     2     6   ar
     7     3     7   ar
     8     4     1   ar
     9     5     3    1
    10     8     2    1
    11     8     9    1
    12     9    10    1
    13    10    11    1
    14    11    14    1
    15    12    14    1
    16    12     8    1
    17    13    14    1
    18    15     1    1
    19    18    23   ar
    20    19    20   ar
    21    21    22   ar
    22     1     6   ar
    23     2     7   ar
    24     3     4   ar
    25    15    16    1
@<TRIPOS>MOLECULE
MolPort-020-278-602 MCULE-1424883929 MCULE-1992094285 PubChem-110255474
 23 25 0 0 0
SMALL
GASTEIGER

@<TRIPOS>ATOM
      1 C          11.7719   41.4811    7.0833 C.ar    1  UNL1        0.1357
      2 C          11.4392   40.2197    9.0625 C.ar    1  UNL1        0.1411
      3 C           9.5652   41.1737    7.9831 C.ar    1  UNL1        0.0635
      4 C          10.3945   41.7128    7.0022 C.ar    1  UNL1        0.0492
      5 C           8.0983   41.4025    7.9241 C.3     1  UNL1        0.0522
      6 N          12.2606   40.7394    8.1125 N.ar    1  UNL1       -0.2159
      7 N          10.0980   40.4391    8.9928 N.ar    1  UNL1       -0.2349
      8 C          12.0184   39.4115   10.1750 C.3     1  UNL1        0.0746
      9 C          13.4208   39.9061   10.5325 C.3     1  UNL1        0.0104
     10 C          14.0558   39.0261   11.6128 C.3     1  UNL1        0.0178
     11 C          13.6977   37.5433   11.4466 C.3     1  UNL1        0.0722
     12 C          11.9948   37.9112    9.8274 C.3     1  UNL1        0.0797
     13 C          13.0471   35.8277    9.9971 C.3     1  UNL1        0.0896
     14 N          13.2830   37.2573   10.0752 N.3     1  UNL1       -0.2711
     15 N          12.6877   42.0038    6.1104 N.pl3   1  UNL1       -0.2833
     16 H          12.4643   41.8348    5.1665 H       1  UNL1        0.1550
     17 C          17.0422   42.3995    8.3279 C.3     1  UNL1        0.0521
     18 C          16.0087   42.9609    7.4197 C.ar    1  UNL1        0.0608
     19 C          13.8911   42.7442    6.3555 C.ar    1  UNL1        0.1328
     20 C          14.0636   43.9825    5.7307 C.ar    1  UNL1        0.0344
     21 C          15.2311   44.7119    5.9619 C.ar    1  UNL1        0.0041
     22 C          16.2131   44.2010    6.8117 C.ar    1  UNL1        0.0148
     23 N          14.8641   42.2660    7.1813 N.ar    1  UNL1       -0.2349
@<TRIPOS>BOND
     1    17    18    1
     2    19    23   ar
     3    19    15    1
     4    20    21   ar
     5    22    18   ar
     6     2     6   ar
     7     3     7   ar
     8     4     1   ar
     9     5     3    1
    10     8     2    1
    11     8     9    1
    12     9    10    1
    13    10    11    1
    14    11    14    1
    15    12    14    1
    16    12     8    1
    17    13    14    1
    18    15     1    1
    19    18    23   ar
    20    19    20   ar
    21    21    22   ar
    22     1     6   ar
    23     2     7   ar
    24     3     4   ar
    25    15    16    1
@<TRIPOS>MOLECULE
MolPort-020-278-602 MCULE-1424883929 MCULE-1992094285 PubChem-110255474
 23 25 0 0 0
SMALL
GASTEIGER

@<TRIPOS>ATOM
      1 C          12.6478   41.9843    6.6066 C.ar    1  UNL1        0.1357
      2 C          13.9537   40.8566    8.2321 C.ar    1  UNL1        0.1411
      3 C          14.9062   42.6715    7.0548 C.ar    1  UNL1        0.0635
      4 C          13.7210   42.8425    6.3433 C.ar    1  UNL1        0.0492
      5 C          16.0634   43.5672    6.7974 C.3     1  UNL1        0.0522
      6 N          12.7909   41.0116    7.5455 N.ar    1  UNL1       -0.2159
      7 N          15.0034   41.6862    7.9836 N.ar    1  UNL1       -0.2349
      8 C          14.0670   39.7755    9.2542 C.3     1  UNL1        0.0746
      9 C          13.3466   40.1702   10.5443 C.3     1  UNL1        0.0104
     10 C          13.5333   39.1038   11.6271 C.3     1  UNL1        0.0178
     11 C          14.9334   38.4765   11.5970 C.3     1  UNL1        0.0722
     12 C          15.5428   39.4059    9.4943 C.3     1  UNL1        0.0797
     13 C          17.1847   38.7184   11.0136 C.3     1  UNL1        0.0896
     14 N          15.8840   39.3545   10.9188 N.3     1  UNL1       -0.2711
     15 N          11.3967   42.0995    5.9139 N.pl3   1  UNL1       -0.2833
     16 H          11.0771   43.0144    5.7403 H       1  UNL1        0.1550
     17 C           7.2656   39.4850    6.2797 C.3     1  UNL1        0.0521
     18 C           8.5610   39.7498    5.6015 C.ar    1  UNL1        0.0608
     19 C          10.5583   41.0345    5.4456 C.ar    1  UNL1        0.1328
     20 C          10.9823   40.2675    4.3569 C.ar    1  UNL1        0.0344
     21 C          10.1743   39.2282    3.8925 C.ar    1  UNL1        0.0041
     22 C           8.9542   38.9643    4.5164 C.ar    1  UNL1        0.0148
     23 N           9.3628   40.7577    6.0387 N.ar    1  UNL1       -0.2349
@<TRIPOS>BOND
     1    17    18    1
     2    19    23   ar
     3    19    15    1
     4    20    21   ar
     5    22    18   ar
     6     2     6   ar
     7     3     7   ar
     8     4     1   ar
     9     5     3    1
    10     8     2    1
    11     8     9    1
    12     9    10    1
    13    10    11    1
    14    11    14    1
    15    12    14    1
    16    12     8    1
    17    13    14    1
    18    15     1    1
    19    18    23   ar
    20    19    20   ar
    21    21    22   ar
    22     1     6   ar
    23     2     7   ar
    24     3     4   ar
    25    15    16    1
@<TRIPOS>MOLECULE
MolPort-020-278-602 MCULE-1424883929 MCULE-1992094285 PubChem-110255474
 23 25 0 0 0
SMALL
GASTEIGER

@<TRIPOS>ATOM
      1 C          11.6347   41.7553    6.4111 C.ar    1  UNL1        0.1357
      2 C           9.8946   41.5904    8.0123 C.ar    1  UNL1        0.1411
      3 C           9.7318   40.3438    6.0106 C.ar    1  UNL1        0.0635
      4 C          10.9536   40.8575    5.5818 C.ar    1  UNL1        0.0492
      5 C           8.9849   39.3884    5.1522 C.3     1  UNL1        0.0522
      6 N          11.0878   42.0998    7.6070 N.ar    1  UNL1       -0.2159
      7 N           9.2241   40.7164    7.2133 N.ar    1  UNL1       -0.2349
      8 C           9.3310   41.9960    9.3330 C.3     1  UNL1        0.0746
      9 C           9.8488   41.0851   10.4471 C.3     1  UNL1        0.0104
     10 C           9.2065   41.4400   11.7911 C.3     1  UNL1        0.0178
     11 C           7.7348   41.8497   11.6476 C.3     1  UNL1        0.0722
     12 C           7.7925   42.0411    9.2776 C.3     1  UNL1        0.0797
     13 C           5.7651   41.7016   10.3962 C.3     1  UNL1        0.0896
     14 N           7.1695   41.3367   10.4019 N.3     1  UNL1       -0.2711
     15 N          12.8970   42.3255    6.0369 N.pl3   1  UNL1       -0.2833
     16 H          12.9261   42.7878    5.1681 H       1  UNL1        0.1550
     17 C          17.3994   44.0838    6.8565 C.3     1  UNL1        0.0521
     18 C          16.3098   43.1344    7.2021 C.ar    1  UNL1        0.0608
     19 C          14.1210   42.2990    6.7835 C.ar    1  UNL1        0.1328
     20 C          14.2601   41.3759    7.8237 C.ar    1  UNL1        0.0344
     21 C          15.4472   41.3412    8.5572 C.ar    1  UNL1        0.0041
     22 C          16.4818   42.2250    8.2475 C.ar    1  UNL1        0.0148
     23 N          15.1454   43.1520    6.4996 N.ar    1  UNL1       -0.2349
@<TRIPOS>BOND
     1    17    18    1
     2    19    23   ar
     3    19    15    1
     4    20    21   ar
     5    22    18   ar
     6     2     6   ar
     7     3     7   ar
     8     4     1   ar
     9     5     3    1
    10     8     2    1
    11     8     9    1
    12     9    10    1
    13    10    11    1
    14    11    14    1
    15    12    14    1
    16    12     8    1
    17    13    14    1
    18    15     1    1
    19    18    23   ar
    20    19    20   ar
    21    21    22   ar
    22     1     6   ar
    23     2     7   ar
    24     3     4   ar
    25    15    16    1
@<TRIPOS>MOLECULE
MolPort-020-278-602 MCULE-1424883929 MCULE-1992094285 PubChem-110255474
 23 25 0 0 0
SMALL
GASTEIGER

@<TRIPOS>ATOM
      1 C          12.2667   40.7425    9.3948 C.ar    1  UNL1        0.1357
      2 C          14.5518   41.0323    8.8353 C.ar    1  UNL1        0.1411
      3 C          13.9890   39.6803   10.6907 C.ar    1  UNL1        0.0635
      4 C          12.6356   39.9226   10.4669 C.ar    1  UNL1        0.0492
      5 C          14.4119   38.8139   11.8212 C.3     1  UNL1        0.0522
      6 N          13.2349   41.2775    8.6047 N.ar    1  UNL1       -0.2159
      7 N          14.9213   40.2362    9.8752 N.ar    1  UNL1       -0.2349
      8 C          15.5814   41.6403    7.9428 C.3     1  UNL1        0.0746
      9 C          16.7948   42.1037    8.7504 C.3     1  UNL1        0.0104
     10 C          17.8167   42.8077    7.8532 C.3     1  UNL1        0.0178
     11 C          17.1519   43.6563    6.7613 C.3     1  UNL1        0.0722
     12 C          14.9693   42.7736    7.0984 C.3     1  UNL1        0.0797
     13 C          15.2663   44.8602    6.0811 C.3     1  UNL1        0.0896
     14 N          15.7788   43.9952    7.1274 N.3     1  UNL1       -0.2711
     15 N          10.8932   41.0369    9.1026 N.pl3   1  UNL1       -0.2833
     16 H          10.6578   41.1176    8.1501 H       1  UNL1        0.1550
     17 C           6.1642   41.9637   10.0045 C.3     1  UNL1        0.0521
     18 C           7.5335   41.6752   10.5044 C.ar    1  UNL1        0.0608
     19 C           9.8241   41.2270   10.0393 C.ar    1  UNL1        0.1328
     20 C          10.0976   41.1357   11.4069 C.ar    1  UNL1        0.0344
     21 C           9.0646   41.3190   12.3278 C.ar    1  UNL1        0.0041
     22 C           7.7720   41.5908   11.8775 C.ar    1  UNL1        0.0148
     23 N           8.5538   41.4935    9.6236 N.ar    1  UNL1       -0.2349
@<TRIPOS>BOND
     1    17    18    1
     2    19    23   ar
     3    19    15    1
     4    20    21   ar
     5    22    18   ar
     6     2     6   ar
     7     3     7   ar
     8     4     1   ar
     9     5     3    1
    10     8     2    1
    11     8     9    1
    12     9    10    1
    13    10    11    1
    14    11    14    1
    15    12    14    1
    16    12     8    1
    17    13    14    1
    18    15     1    1
    19    18    23   ar
    20    19    20   ar
    21    21    22   ar
    22     1     6   ar
    23     2     7   ar
    24     3     4   ar
    25    15    16    1
@<TRIPOS>MOLECULE
MolPort-020-278-602 MCULE-1424883929 MCULE-1992094285 PubChem-110255474
 23 25 0 0 0
SMALL
GASTEIGER

@<TRIPOS>ATOM
      1 C          12.1712   40.8762    8.8468 C.ar    1  UNL1        0.1357
      2 C          14.5026   41.2042    8.5715 C.ar    1  UNL1        0.1411
      3 C          13.7358   39.8937   10.3831 C.ar    1  UNL1        0.0635
      4 C          12.4172   40.0970    9.9824 C.ar    1  UNL1        0.0492
      5 C          14.0289   39.0710   11.5851 C.3     1  UNL1        0.0522
      6 N          13.2211   41.4110    8.1687 N.ar    1  UNL1       -0.2159
      7 N          14.7528   40.4477    9.6747 N.ar    1  UNL1       -0.2349
      8 C          15.6249   41.8103    7.7973 C.3     1  UNL1        0.0746
      9 C          16.7709   42.2124    8.7269 C.3     1  UNL1        0.0104
     10 C          17.8884   42.9148    7.9507 C.3     1  UNL1        0.0178
     11 C          17.3485   43.8168    6.8329 C.3     1  UNL1        0.0722
     12 C          15.1221   42.9873    6.9405 C.3     1  UNL1        0.0797
     13 C          15.5648   45.0958    6.0267 C.3     1  UNL1        0.0896
     14 N          15.9568   44.1834    7.0847 N.3     1  UNL1       -0.2711
     15 N          10.8403   41.1291    8.3741 N.pl3   1  UNL1       -0.2833
     16 H          10.3295   41.8179    8.8576 H       1  UNL1        0.1550
     17 C           6.6911   39.5943    6.2613 C.3     1  UNL1        0.0521
     18 C           8.1697   39.7388    6.2306 C.ar    1  UNL1        0.0608
     19 C          10.1692   40.4933    7.2778 C.ar    1  UNL1        0.1328
     20 C          10.9262   40.0226    6.2013 C.ar    1  UNL1        0.0344
     21 C          10.2835   39.4021    5.1287 C.ar    1  UNL1        0.0041
     22 C           8.8956   39.2572    5.1395 C.ar    1  UNL1        0.0148
     23 N           8.8150   40.3403    7.2658 N.ar    1  UNL1       -0.2349
@<TRIPOS>BOND
     1    17    18    1
     2    19    23   ar
     3    19    15    1
     4    20    21   ar
     5    22    18   ar
     6     2     6   ar
     7     3     7   ar
     8     4     1   ar
     9     5     3    1
    10     8     2    1
    11     8     9    1
    12     9    10    1
    13    10    11    1
    14    11    14    1
    15    12    14    1
    16    12     8    1
    17    13    14    1
    18    15     1    1
    19    18    23   ar
    20    19    20   ar
    21    21    22   ar
    22     1     6   ar
    23     2     7   ar
    24     3     4   ar
    25    15    16    1
