@<TRIPOS>MOLECULE
MolPort-006-609-946 ChemDiv-V017-8348 MCULE-4030383458 PubChem-46070030 ZINC000034735438 ZINC34735438
 33 36 0 0 0
SMALL
GASTEIGER

@<TRIPOS>ATOM
      1 C           6.5602   41.2744    8.5423 C.ar    1  UNL1        0.0518
      2 C           7.7875   41.1746    9.2056 C.ar    1  UNL1        0.0296
      3 C           8.9897   41.0125    8.4962 C.ar    1  UNL1        0.0565
      4 C           8.9377   40.9713    7.0923 C.ar    1  UNL1        0.0150
      5 C           7.7172   41.0710    6.4196 C.ar    1  UNL1        0.0026
      6 C           6.5312   41.2174    7.1425 C.ar    1  UNL1        0.0148
      7 C          10.3325   41.2971   10.5961 C.3     1  UNL1        0.1015
      8 C          11.3123   40.4078   11.3484 C.3     1  UNL1        0.0435
      9 C          12.6961   40.5489   10.7305 C.3     1  UNL1        0.0971
     10 C          11.4870   40.5405    8.5194 C.2     1  UNL1        0.3112
     11 O          11.5452   40.4843    7.2599 O.2     1  UNL1       -0.2520
     12 N          10.2585   40.9108    9.1846 N.am    1  UNL1       -0.2430
     13 N          12.6607   40.2520    9.3010 N.am    1  UNL1       -0.2596
     14 C          13.8970   39.8263    8.6589 C.3     1  UNL1        0.1217
     15 C          14.6058   41.0016    8.0753 C.ar    1  UNL1       -0.0022
     16 C          13.9878   41.7532    7.0693 C.ar    1  UNL1       -0.0019
     17 C          14.6405   42.8620    6.5219 C.ar    1  UNL1        0.0100
     18 C          15.9112   43.2236    6.9824 C.ar    1  UNL1        0.0684
     19 C          16.5256   42.4789    7.9967 C.ar    1  UNL1        0.0100
     20 C          15.8727   41.3696    8.5449 C.ar    1  UNL1       -0.0019
     21 C          16.5823   44.3622    6.4236 C.1     1  UNL1        0.1004
     22 N          17.1166   45.2821    5.9695 N.1     1  UNL1       -0.1908
     23 C           5.2286   41.2033   10.7365 C.2     1  UNL1        0.2495
     24 O           6.2005   40.7796   11.4195 O.2     1  UNL1       -0.2698
     25 N           5.3650   41.4137    9.3222 N.am    1  UNL1       -0.2803
     26 H           4.5516   41.6819    8.8368 H       1  UNL1        0.1552
     27 F           0.3315   42.3285   13.2841 F       1  UNL1       -0.2042
     28 C           1.5036   42.0494   12.6664 C.ar    1  UNL1        0.1401
     29 C           2.2363   40.9171   13.0332 C.ar    1  UNL1        0.0298
     30 C           3.4500   40.6353   12.3993 C.ar    1  UNL1        0.0068
     31 C           3.9377   41.4832   11.3922 C.ar    1  UNL1        0.0538
     32 C           3.1955   42.6163   11.0317 C.ar    1  UNL1        0.0068
     33 C           1.9838   42.8991   11.6655 C.ar    1  UNL1        0.0298
@<TRIPOS>BOND
     1    28    27    1
     2    29    30   ar
     3    31    32   ar
     4    31    23    1
     5    33    28   ar
     6    23    25   am
     7     2     3   ar
     8     3    12    1
     9     4     5   ar
    10     6     1   ar
    11     7    12    1
    12     7     8    1
    13     8     9    1
    14     9    13    1
    15    14    13    1
    16    14    15    1
    17    16    17   ar
    18    18    19   ar
    19    18    21    1
    20    20    15   ar
    21    10    12   am
    22    25     1    1
    23    13    10   am
    24    28    29   ar
    25    30    31   ar
    26    32    33   ar
    27    23    24    2
    28     1     2   ar
    29     3     4   ar
    30     5     6   ar
    31    15    16   ar
    32    17    18   ar
    33    19    20   ar
    34    10    11    2
    35    21    22    3
    36    25    26    1
@<TRIPOS>MOLECULE
MolPort-006-609-946 ChemDiv-V017-8348 MCULE-4030383458 PubChem-46070030 ZINC000034735438 ZINC34735438
 33 36 0 0 0
SMALL
GASTEIGER

@<TRIPOS>ATOM
      1 C          12.0957   41.7350    9.4075 C.ar    1  UNL1        0.0518
      2 C          10.8955   42.3949    9.1245 C.ar    1  UNL1        0.0296
      3 C           9.6847   41.9928    9.7136 C.ar    1  UNL1        0.0565
      4 C           9.7052   40.9161   10.6168 C.ar    1  UNL1        0.0150
      5 C          10.8989   40.2504   10.9073 C.ar    1  UNL1        0.0026
      6 C          12.0900   40.6555   10.3009 C.ar    1  UNL1        0.0148
      7 C           8.4156   44.1424    9.4641 C.3     1  UNL1        0.1015
      8 C           7.4807   44.6959    8.3979 C.3     1  UNL1        0.0435
      9 C           6.0727   44.1725    8.6428 C.3     1  UNL1        0.0971
     10 C           7.1990   41.9838    9.1833 C.2     1  UNL1        0.3112
     11 O           7.0952   40.7488    9.4215 O.2     1  UNL1       -0.2520
     12 N           8.4443   42.6780    9.4203 N.am    1  UNL1       -0.2430
     13 N           6.0606   42.7128    8.6891 N.am    1  UNL1       -0.2596
     14 C           4.8093   42.0284    8.3927 C.3     1  UNL1        0.1217
     15 C           3.9272   42.0233    9.5952 C.ar    1  UNL1       -0.0022
     16 C           2.6132   41.5532    9.4878 C.ar    1  UNL1       -0.0019
     17 C           1.7810   41.5363   10.6114 C.ar    1  UNL1        0.0100
     18 C           2.2628   41.9860   11.8456 C.ar    1  UNL1        0.0684
     19 C           3.5807   42.4460   11.9564 C.ar    1  UNL1        0.0100
     20 C           4.4138   42.4627   10.8325 C.ar    1  UNL1       -0.0019
     21 C           1.4114   41.9678   13.0005 C.1     1  UNL1        0.1004
     22 N           0.7273   41.9605   13.9331 N.1     1  UNL1       -0.1908
     23 C          13.5541   42.1879    7.3433 C.2     1  UNL1        0.2495
     24 O          12.7161   41.7075    6.5323 O.2     1  UNL1       -0.2698
     25 N          13.2945   42.1759    8.7560 N.am    1  UNL1       -0.2803
     26 H          14.0163   42.5055    9.3388 H       1  UNL1        0.1552
     27 F          18.3722   44.3364    5.3668 F       1  UNL1       -0.2042
     28 C          17.2143   43.8275    5.8502 C.ar    1  UNL1        0.1401
     29 C          17.2182   43.0737    7.0272 C.ar    1  UNL1        0.0298
     30 C          16.0225   42.5429    7.5202 C.ar    1  UNL1        0.0068
     31 C          14.8145   42.7649    6.8403 C.ar    1  UNL1        0.0538
     32 C          14.8212   43.5222    5.6608 C.ar    1  UNL1        0.0068
     33 C          16.0154   44.0514    5.1671 C.ar    1  UNL1        0.0298
@<TRIPOS>BOND
     1    28    27    1
     2    29    30   ar
     3    31    32   ar
     4    31    23    1
     5    33    28   ar
     6    23    25   am
     7     2     3   ar
     8     3    12    1
     9     4     5   ar
    10     6     1   ar
    11     7    12    1
    12     7     8    1
    13     8     9    1
    14     9    13    1
    15    14    13    1
    16    14    15    1
    17    16    17   ar
    18    18    19   ar
    19    18    21    1
    20    20    15   ar
    21    10    12   am
    22    25     1    1
    23    13    10   am
    24    28    29   ar
    25    30    31   ar
    26    32    33   ar
    27    23    24    2
    28     1     2   ar
    29     3     4   ar
    30     5     6   ar
    31    15    16   ar
    32    17    18   ar
    33    19    20   ar
    34    10    11    2
    35    21    22    3
    36    25    26    1
@<TRIPOS>MOLECULE
MolPort-006-609-946 ChemDiv-V017-8348 MCULE-4030383458 PubChem-46070030 ZINC000034735438 ZINC34735438
 33 36 0 0 0
SMALL
GASTEIGER

@<TRIPOS>ATOM
      1 C          10.9259   37.6933    9.3013 C.ar    1  UNL1        0.0518
      2 C          12.2833   38.0305    9.2966 C.ar    1  UNL1        0.0296
      3 C          13.2322   37.2485    9.9770 C.ar    1  UNL1        0.0565
      4 C          12.7902   36.0985   10.6535 C.ar    1  UNL1        0.0150
      5 C          11.4367   35.7521   10.6639 C.ar    1  UNL1        0.0026
      6 C          10.5064   36.5496    9.9937 C.ar    1  UNL1        0.0148
      7 C          15.6310   36.5363    9.7986 C.3     1  UNL1        0.1015
      8 C          16.8209   37.0360    8.9913 C.3     1  UNL1        0.0435
      9 C          17.4716   38.2010    9.7232 C.3     1  UNL1        0.0971
     10 C          15.1145   38.9384   10.2244 C.2     1  UNL1        0.3112
     11 O          14.3346   39.8269   10.6660 O.2     1  UNL1       -0.2520
     12 N          14.6363   37.5985    9.9695 N.am    1  UNL1       -0.2430
     13 N          16.4985   39.2568    9.9905 N.am    1  UNL1       -0.2596
     14 C          16.9951   40.6117   10.1897 C.3     1  UNL1        0.1217
     15 C          16.6195   41.4736    9.0320 C.ar    1  UNL1       -0.0022
     16 C          15.2824   41.5406    8.6238 C.ar    1  UNL1       -0.0019
     17 C          14.9188   42.3525    7.5450 C.ar    1  UNL1        0.0100
     18 C          15.8916   43.1022    6.8746 C.ar    1  UNL1        0.0684
     19 C          17.2278   43.0444    7.2893 C.ar    1  UNL1        0.0100
     20 C          17.5919   42.2324    8.3690 C.ar    1  UNL1       -0.0019
     21 C          15.5208   43.9376    5.7685 C.1     1  UNL1        0.1004
     22 N          15.2157   44.6136    4.8809 N.1     1  UNL1       -0.1908
     23 C           9.6706   39.9032    8.9360 C.2     1  UNL1        0.2495
     24 O          10.1455   40.4498    9.9687 O.2     1  UNL1       -0.2698
     25 N          10.0024   38.5443    8.6094 N.am    1  UNL1       -0.2803
     26 H           9.5473   38.1560    7.8275 H       1  UNL1        0.1552
     27 F           6.1435   42.7741    5.6111 F       1  UNL1       -0.2042
     28 C           6.9999   42.0875    6.4040 C.ar    1  UNL1        0.1401
     29 C           7.6080   40.9206    5.9326 C.ar    1  UNL1        0.0298
     30 C           8.4859   40.2093    6.7558 C.ar    1  UNL1        0.0068
     31 C           8.7634   40.6621    8.0554 C.ar    1  UNL1        0.0538
     32 C           8.1485   41.8334    8.5187 C.ar    1  UNL1        0.0068
     33 C           7.2704   42.5436    7.6975 C.ar    1  UNL1        0.0298
@<TRIPOS>BOND
     1    28    27    1
     2    29    30   ar
     3    31    32   ar
     4    31    23    1
     5    33    28   ar
     6    23    25   am
     7     2     3   ar
     8     3    12    1
     9     4     5   ar
    10     6     1   ar
    11     7    12    1
    12     7     8    1
    13     8     9    1
    14     9    13    1
    15    14    13    1
    16    14    15    1
    17    16    17   ar
    18    18    19   ar
    19    18    21    1
    20    20    15   ar
    21    10    12   am
    22    25     1    1
    23    13    10   am
    24    28    29   ar
    25    30    31   ar
    26    32    33   ar
    27    23    24    2
    28     1     2   ar
    29     3     4   ar
    30     5     6   ar
    31    15    16   ar
    32    17    18   ar
    33    19    20   ar
    34    10    11    2
    35    21    22    3
    36    25    26    1
@<TRIPOS>MOLECULE
MolPort-006-609-946 ChemDiv-V017-8348 MCULE-4030383458 PubChem-46070030 ZINC000034735438 ZINC34735438
 33 36 0 0 0
SMALL
GASTEIGER

@<TRIPOS>ATOM
      1 C          13.4279   39.9235    8.9781 C.ar    1  UNL1        0.0518
      2 C          12.2537   40.5491    9.4093 C.ar    1  UNL1        0.0296
      3 C          11.0944   39.8082    9.6954 C.ar    1  UNL1        0.0565
      4 C          11.1426   38.4103    9.5572 C.ar    1  UNL1        0.0150
      5 C          12.3107   37.7751    9.1279 C.ar    1  UNL1        0.0026
      6 C          13.4488   38.5297    8.8346 C.ar    1  UNL1        0.0148
      7 C           9.7786   40.8829   11.5413 C.3     1  UNL1        0.1015
      8 C           8.9880   42.1787   11.6548 C.3     1  UNL1        0.0435
      9 C           7.5849   41.9613   11.1066 C.3     1  UNL1        0.0971
     10 C           8.7181   40.6187    9.2999 C.2     1  UNL1        0.3112
     11 O           8.6372   40.0176    8.1933 O.2     1  UNL1       -0.2520
     12 N           9.8811   40.4576   10.1429 N.am    1  UNL1       -0.2430
     13 N           7.6333   41.4579    9.7365 N.am    1  UNL1       -0.2596
     14 C           6.4729   41.6787    8.8841 C.3     1  UNL1        0.1217
     15 C           5.2464   41.8448    9.7162 C.ar    1  UNL1       -0.0022
     16 C           4.9808   40.9360   10.7470 C.ar    1  UNL1       -0.0019
     17 C           3.8381   41.0881   11.5382 C.ar    1  UNL1        0.0100
     18 C           2.9605   42.1520   11.3025 C.ar    1  UNL1        0.0684
     19 C           3.2311   43.0681   10.2787 C.ar    1  UNL1        0.0100
     20 C           4.3747   42.9165    9.4870 C.ar    1  UNL1       -0.0019
     21 C           1.7881   42.3114   12.1143 C.1     1  UNL1        0.1004
     22 N           0.8471   42.4446   12.7736 N.1     1  UNL1       -0.1908
     23 C          14.6612   41.7609    7.6759 C.2     1  UNL1        0.2495
     24 O          13.6992   41.9770    6.8895 O.2     1  UNL1       -0.2698
     25 N          14.5708   40.7356    8.6778 N.am    1  UNL1       -0.2803
     26 H          15.3794   40.5732    9.2154 H       1  UNL1        0.1552
     27 F          19.3436   44.8729    7.3184 F       1  UNL1       -0.2042
     28 C          18.2213   44.1194    7.3950 C.ar    1  UNL1        0.1401
     29 C          17.1819   44.3162    6.4814 C.ar    1  UNL1        0.0298
     30 C          16.0210   43.5421    6.5674 C.ar    1  UNL1        0.0068
     31 C          15.8931   42.5641    7.5664 C.ar    1  UNL1        0.0538
     32 C          16.9410   42.3746    8.4779 C.ar    1  UNL1        0.0068
     33 C          18.1003   43.1484    8.3934 C.ar    1  UNL1        0.0298
@<TRIPOS>BOND
     1    28    27    1
     2    29    30   ar
     3    31    32   ar
     4    31    23    1
     5    33    28   ar
     6    23    25   am
     7     2     3   ar
     8     3    12    1
     9     4     5   ar
    10     6     1   ar
    11     7    12    1
    12     7     8    1
    13     8     9    1
    14     9    13    1
    15    14    13    1
    16    14    15    1
    17    16    17   ar
    18    18    19   ar
    19    18    21    1
    20    20    15   ar
    21    10    12   am
    22    25     1    1
    23    13    10   am
    24    28    29   ar
    25    30    31   ar
    26    32    33   ar
    27    23    24    2
    28     1     2   ar
    29     3     4   ar
    30     5     6   ar
    31    15    16   ar
    32    17    18   ar
    33    19    20   ar
    34    10    11    2
    35    21    22    3
    36    25    26    1
@<TRIPOS>MOLECULE
MolPort-006-609-946 ChemDiv-V017-8348 MCULE-4030383458 PubChem-46070030 ZINC000034735438 ZINC34735438
 33 36 0 0 0
SMALL
GASTEIGER

@<TRIPOS>ATOM
      1 C           3.7743   41.8406   11.3426 C.ar    1  UNL1        0.0518
      2 C           5.1548   42.0124   11.4867 C.ar    1  UNL1        0.0296
      3 C           6.0490   41.6187   10.4766 C.ar    1  UNL1        0.0565
      4 C           5.5237   41.0607    9.2984 C.ar    1  UNL1        0.0150
      5 C           4.1462   40.8853    9.1437 C.ar    1  UNL1        0.0026
      6 C           3.2742   41.2697   10.1647 C.ar    1  UNL1        0.0148
      7 C           8.0454   41.8601   11.9764 C.3     1  UNL1        0.1015
      8 C           9.4205   41.2083   12.0128 C.3     1  UNL1        0.0435
      9 C          10.3504   41.9424   11.0573 C.3     1  UNL1        0.0971
     10 C           8.3640   42.0236    9.5087 C.2     1  UNL1        0.3112
     11 O           7.9020   42.2746    8.3614 O.2     1  UNL1       -0.2520
     12 N           7.4769   41.7988   10.6274 N.am    1  UNL1       -0.2430
     13 N           9.7885   41.9798    9.7098 N.am    1  UNL1       -0.2596
     14 C          10.7044   42.1514    8.5902 C.3     1  UNL1        0.1217
     15 C          11.9862   41.4380    8.8589 C.ar    1  UNL1       -0.0022
     16 C          12.0174   40.4008    9.7983 C.ar    1  UNL1       -0.0019
     17 C          13.2123   39.7200   10.0510 C.ar    1  UNL1        0.0100
     18 C          14.3777   40.0727    9.3617 C.ar    1  UNL1        0.0684
     19 C          14.3449   41.1027    8.4136 C.ar    1  UNL1        0.0100
     20 C          13.1494   41.7839    8.1602 C.ar    1  UNL1       -0.0019
     21 C          15.6048   39.3743    9.6178 C.1     1  UNL1        0.1004
     22 N          16.5910   38.8051    9.8205 N.1     1  UNL1       -0.1908
     23 C           1.4819   42.3379   12.3867 C.2     1  UNL1        0.2495
     24 O           0.8482   42.1401   11.3143 O.2     1  UNL1       -0.2698
     25 N           2.9145   42.2392   12.4186 N.am    1  UNL1       -0.2803
     26 H           3.3526   42.4698   13.2696 H       1  UNL1        0.1552
     27 F          -1.3854   43.6408   17.0577 F       1  UNL1       -0.2042
     28 C          -0.6867   43.3276   15.9410 C.ar    1  UNL1        0.1401
     29 C           0.1307   44.2857   15.3347 C.ar    1  UNL1        0.0298
     30 C           0.8451   43.9623   14.1774 C.ar    1  UNL1        0.0068
     31 C           0.7486   42.6773   13.6203 C.ar    1  UNL1        0.0538
     32 C          -0.0739   41.7237   14.2358 C.ar    1  UNL1        0.0068
     33 C          -0.7888   42.0465   15.3910 C.ar    1  UNL1        0.0298
@<TRIPOS>BOND
     1    28    27    1
     2    29    30   ar
     3    31    32   ar
     4    31    23    1
     5    33    28   ar
     6    23    25   am
     7     2     3   ar
     8     3    12    1
     9     4     5   ar
    10     6     1   ar
    11     7    12    1
    12     7     8    1
    13     8     9    1
    14     9    13    1
    15    14    13    1
    16    14    15    1
    17    16    17   ar
    18    18    19   ar
    19    18    21    1
    20    20    15   ar
    21    10    12   am
    22    25     1    1
    23    13    10   am
    24    28    29   ar
    25    30    31   ar
    26    32    33   ar
    27    23    24    2
    28     1     2   ar
    29     3     4   ar
    30     5     6   ar
    31    15    16   ar
    32    17    18   ar
    33    19    20   ar
    34    10    11    2
    35    21    22    3
    36    25    26    1
@<TRIPOS>MOLECULE
MolPort-006-609-946 ChemDiv-V017-8348 MCULE-4030383458 PubChem-46070030 ZINC000034735438 ZINC34735438
 33 36 0 0 0
SMALL
GASTEIGER

@<TRIPOS>ATOM
      1 C          12.7800   40.5352    8.3600 C.ar    1  UNL1        0.0518
      2 C          11.4576   40.9128    8.6146 C.ar    1  UNL1        0.0296
      3 C          11.0857   42.2660    8.6871 C.ar    1  UNL1        0.0565
      4 C          12.0738   43.2435    8.4779 C.ar    1  UNL1        0.0150
      5 C          13.3977   42.8772    8.2220 C.ar    1  UNL1        0.0026
      6 C          13.7509   41.5271    8.1679 C.ar    1  UNL1        0.0148
      7 C           9.4574   43.9324    9.6172 C.3     1  UNL1        0.1015
      8 C           8.1842   44.5726    9.0822 C.3     1  UNL1        0.0435
      9 C           7.0077   43.6413    9.3368 C.3     1  UNL1        0.0971
     10 C           8.5884   41.7938    8.6741 C.2     1  UNL1        0.3112
     11 O           8.7623   40.5795    8.3779 O.2     1  UNL1       -0.2520
     12 N           9.7166   42.6543    8.9491 N.am    1  UNL1       -0.2430
     13 N           7.2524   42.3230    8.7580 N.am    1  UNL1       -0.2596
     14 C           6.1005   41.4917    8.4356 C.3     1  UNL1        0.1217
     15 C           5.0165   41.7019    9.4381 C.ar    1  UNL1       -0.0022
     16 C           5.1550   41.1760   10.7279 C.ar    1  UNL1       -0.0019
     17 C           4.1482   41.3750   11.6776 C.ar    1  UNL1        0.0100
     18 C           3.0025   42.1039   11.3403 C.ar    1  UNL1        0.0684
     19 C           2.8682   42.6399   10.0536 C.ar    1  UNL1        0.0100
     20 C           3.8755   42.4413    9.1032 C.ar    1  UNL1       -0.0019
     21 C           1.9687   42.3112   12.3136 C.1     1  UNL1        0.1004
     22 N           1.1338   42.4706   13.0981 N.1     1  UNL1       -0.1908
     23 C          13.7371   38.3719    9.3584 C.2     1  UNL1        0.2495
     24 O          14.1493   38.9316   10.4108 O.2     1  UNL1       -0.2698
     25 N          13.1025   39.1386    8.3227 N.am    1  UNL1       -0.2803
     26 H          12.8637   38.6537    7.4998 H       1  UNL1        0.1552
     27 F          14.4178   32.8106    8.7703 F       1  UNL1       -0.2042
     28 C          14.2521   34.1481    8.9006 C.ar    1  UNL1        0.1401
     29 C          15.2188   35.0254    8.4014 C.ar    1  UNL1        0.0298
     30 C          15.0492   36.4057    8.5440 C.ar    1  UNL1        0.0068
     31 C          13.9098   36.9177    9.1847 C.ar    1  UNL1        0.0538
     32 C          12.9462   36.0296    9.6820 C.ar    1  UNL1        0.0068
     33 C          13.1157   34.6507    9.5412 C.ar    1  UNL1        0.0298
@<TRIPOS>BOND
     1    28    27    1
     2    29    30   ar
     3    31    32   ar
     4    31    23    1
     5    33    28   ar
     6    23    25   am
     7     2     3   ar
     8     3    12    1
     9     4     5   ar
    10     6     1   ar
    11     7    12    1
    12     7     8    1
    13     8     9    1
    14     9    13    1
    15    14    13    1
    16    14    15    1
    17    16    17   ar
    18    18    19   ar
    19    18    21    1
    20    20    15   ar
    21    10    12   am
    22    25     1    1
    23    13    10   am
    24    28    29   ar
    25    30    31   ar
    26    32    33   ar
    27    23    24    2
    28     1     2   ar
    29     3     4   ar
    30     5     6   ar
    31    15    16   ar
    32    17    18   ar
    33    19    20   ar
    34    10    11    2
    35    21    22    3
    36    25    26    1
@<TRIPOS>MOLECULE
MolPort-006-609-946 ChemDiv-V017-8348 MCULE-4030383458 PubChem-46070030 ZINC000034735438 ZINC34735438
 33 36 0 0 0
SMALL
GASTEIGER

@<TRIPOS>ATOM
      1 C           3.4648   41.7782   11.5043 C.ar    1  UNL1        0.0518
      2 C           4.8541   41.9028   11.6063 C.ar    1  UNL1        0.0296
      3 C           5.6923   41.6523   10.5065 C.ar    1  UNL1        0.0565
      4 C           5.1014   41.2890    9.2840 C.ar    1  UNL1        0.0150
      5 C           3.7145   41.1625    9.1710 C.ar    1  UNL1        0.0026
      6 C           2.8987   41.4018   10.2790 C.ar    1  UNL1        0.0148
      7 C           7.7580   41.6413   11.9300 C.3     1  UNL1        0.1015
      8 C           9.1169   40.9661   11.8090 C.3     1  UNL1        0.0435
      9 C          10.0217   41.8120   10.9245 C.3     1  UNL1        0.0971
     10 C           7.9718   42.1490    9.4979 C.2     1  UNL1        0.3112
     11 O           7.4662   42.5693    8.4207 O.2     1  UNL1       -0.2520
     12 N           7.1294   41.7832   10.6140 N.am    1  UNL1       -0.2430
     13 N           9.4022   42.0512    9.6238 N.am    1  UNL1       -0.2596
     14 C          10.2720   42.3640    8.4979 C.3     1  UNL1        0.1217
     15 C          10.1187   41.3371    7.4274 C.ar    1  UNL1       -0.0022
     16 C          10.2518   41.7111    6.0852 C.ar    1  UNL1       -0.0019
     17 C          10.1185   40.7540    5.0745 C.ar    1  UNL1        0.0100
     18 C           9.8556   39.4200    5.4046 C.ar    1  UNL1        0.0684
     19 C           9.7333   39.0429    6.7475 C.ar    1  UNL1        0.0100
     20 C           9.8671   40.0001    7.7591 C.ar    1  UNL1       -0.0019
     21 C           9.7202   38.4356    4.3693 C.1     1  UNL1        0.1004
     22 N           9.6042   37.6453    3.5328 N.1     1  UNL1       -0.1908
     23 C           1.2437   42.2332   12.7095 C.2     1  UNL1        0.2495
     24 O           0.5726   42.2963   11.6435 O.2     1  UNL1       -0.2698
     25 N           2.6640   42.0229   12.6683 N.am    1  UNL1       -0.2803
     26 H           3.1379   42.0497   13.5308 H       1  UNL1        0.1552
     27 F          -1.2872   42.7437   17.7167 F       1  UNL1       -0.2042
     28 C          -0.6869   42.6274   16.5085 C.ar    1  UNL1        0.1401
     29 C          -1.2649   41.8349   15.5128 C.ar    1  UNL1        0.0298
     30 C          -0.6392   41.7103   14.2689 C.ar    1  UNL1        0.0068
     31 C           0.5676   42.3798   14.0118 C.ar    1  UNL1        0.0538
     32 C           1.1392   43.1720   15.0170 C.ar    1  UNL1        0.0068
     33 C           0.5155   43.2958   16.2602 C.ar    1  UNL1        0.0298
@<TRIPOS>BOND
     1    28    27    1
     2    29    30   ar
     3    31    32   ar
     4    31    23    1
     5    33    28   ar
     6    23    25   am
     7     2     3   ar
     8     3    12    1
     9     4     5   ar
    10     6     1   ar
    11     7    12    1
    12     7     8    1
    13     8     9    1
    14     9    13    1
    15    14    13    1
    16    14    15    1
    17    16    17   ar
    18    18    19   ar
    19    18    21    1
    20    20    15   ar
    21    10    12   am
    22    25     1    1
    23    13    10   am
    24    28    29   ar
    25    30    31   ar
    26    32    33   ar
    27    23    24    2
    28     1     2   ar
    29     3     4   ar
    30     5     6   ar
    31    15    16   ar
    32    17    18   ar
    33    19    20   ar
    34    10    11    2
    35    21    22    3
    36    25    26    1
@<TRIPOS>MOLECULE
MolPort-006-609-946 ChemDiv-V017-8348 MCULE-4030383458 PubChem-46070030 ZINC000034735438 ZINC34735438
 33 36 0 0 0
SMALL
GASTEIGER

@<TRIPOS>ATOM
      1 C           9.0991   40.2544    8.1089 C.ar    1  UNL1        0.0518
      2 C          10.1632   39.8706    8.9314 C.ar    1  UNL1        0.0296
      3 C          11.4325   39.5876    8.3987 C.ar    1  UNL1        0.0565
      4 C          11.6201   39.7172    7.0118 C.ar    1  UNL1        0.0150
      5 C          10.5642   40.1008    6.1812 C.ar    1  UNL1        0.0026
      6 C           9.3060   40.3641    6.7273 C.ar    1  UNL1        0.0148
      7 C          12.3285   38.1055   10.2137 C.3     1  UNL1        0.1015
      8 C          13.5951   37.2750   10.3661 C.3     1  UNL1        0.0435
      9 C          14.7231   38.1654   10.8672 C.3     1  UNL1        0.0971
     10 C          13.8001   39.8858    9.2737 C.2     1  UNL1        0.3112
     11 O          13.9354   40.9974    8.6918 O.2     1  UNL1       -0.2520
     12 N          12.5323   39.1920    9.2519 N.am    1  UNL1       -0.2430
     13 N          14.9134   39.3120    9.9829 N.am    1  UNL1       -0.2596
     14 C          16.2158   39.9643    9.9776 C.3     1  UNL1        0.1217
     15 C          16.1907   41.1581    9.0841 C.ar    1  UNL1       -0.0022
     16 C          17.0551   42.2297    9.3360 C.ar    1  UNL1       -0.0019
     17 C          17.0453   43.3498    8.4991 C.ar    1  UNL1        0.0100
     18 C          16.1734   43.3985    7.4058 C.ar    1  UNL1        0.0684
     19 C          15.3161   42.3221    7.1465 C.ar    1  UNL1        0.0100
     20 C          15.3259   41.2011    7.9835 C.ar    1  UNL1       -0.0019
     21 C          16.1627   44.5460    6.5443 C.1     1  UNL1        0.1004
     22 N          16.1589   45.4746    5.8548 N.1     1  UNL1       -0.1908
     23 C           7.4498   41.6431    9.5031 C.2     1  UNL1        0.2495
     24 O           8.3043   42.5183    9.8105 O.2     1  UNL1       -0.2698
     25 N           7.8211   40.5057    8.7083 N.am    1  UNL1       -0.2803
     26 H           7.1240   39.8266    8.5592 H       1  UNL1        0.1552
     27 F           2.1435   42.2526   11.2946 F       1  UNL1       -0.2042
     28 C           3.4166   42.0954   10.8611 C.ar    1  UNL1        0.1401
     29 C           4.3135   41.3116   11.5923 C.ar    1  UNL1        0.0298
     30 C           5.6296   41.1571   11.1468 C.ar    1  UNL1        0.0068
     31 C           6.0565   41.7838    9.9652 C.ar    1  UNL1        0.0538
     32 C           5.1493   42.5678    9.2392 C.ar    1  UNL1        0.0068
     33 C           3.8350   42.7236    9.6844 C.ar    1  UNL1        0.0298
@<TRIPOS>BOND
     1    28    27    1
     2    29    30   ar
     3    31    32   ar
     4    31    23    1
     5    33    28   ar
     6    23    25   am
     7     2     3   ar
     8     3    12    1
     9     4     5   ar
    10     6     1   ar
    11     7    12    1
    12     7     8    1
    13     8     9    1
    14     9    13    1
    15    14    13    1
    16    14    15    1
    17    16    17   ar
    18    18    19   ar
    19    18    21    1
    20    20    15   ar
    21    10    12   am
    22    25     1    1
    23    13    10   am
    24    28    29   ar
    25    30    31   ar
    26    32    33   ar
    27    23    24    2
    28     1     2   ar
    29     3     4   ar
    30     5     6   ar
    31    15    16   ar
    32    17    18   ar
    33    19    20   ar
    34    10    11    2
    35    21    22    3
    36    25    26    1
@<TRIPOS>MOLECULE
MolPort-006-609-946 ChemDiv-V017-8348 MCULE-4030383458 PubChem-46070030 ZINC000034735438 ZINC34735438
 33 36 0 0 0
SMALL
GASTEIGER

@<TRIPOS>ATOM
      1 C          13.4210   35.9048    9.5116 C.ar    1  UNL1        0.0518
      2 C          13.0910   37.2233    9.1815 C.ar    1  UNL1        0.0296
      3 C          11.9177   37.8256    9.6667 C.ar    1  UNL1        0.0565
      4 C          11.0827   37.0772   10.5142 C.ar    1  UNL1        0.0150
      5 C          11.4034   35.7597   10.8509 C.ar    1  UNL1        0.0026
      6 C          12.5666   35.1734   10.3474 C.ar    1  UNL1        0.0148
      7 C          10.7512   39.9685   10.2503 C.3     1  UNL1        0.1015
      8 C          11.1739   41.4308   10.2535 C.3     1  UNL1        0.0435
      9 C          11.0117   42.0042    8.8530 C.3     1  UNL1        0.0971
     10 C          11.9345   39.7966    8.0621 C.2     1  UNL1        0.3112
     11 O          12.3837   39.0940    7.1148 O.2     1  UNL1       -0.2520
     12 N          11.5791   39.1904    9.3251 N.am    1  UNL1       -0.2430
     13 N          11.7557   41.2127    7.8769 N.am    1  UNL1       -0.2596
     14 C          12.1539   41.8573    6.6328 C.3     1  UNL1        0.1217
     15 C          13.5319   42.4135    6.7586 C.ar    1  UNL1       -0.0022
     16 C          14.4497   41.8011    7.6198 C.ar    1  UNL1       -0.0019
     17 C          15.7467   42.3098    7.7382 C.ar    1  UNL1        0.0100
     18 C          16.1297   43.4299    6.9923 C.ar    1  UNL1        0.0684
     19 C          15.2156   44.0365    6.1221 C.ar    1  UNL1        0.0100
     20 C          13.9178   43.5276    6.0031 C.ar    1  UNL1       -0.0019
     21 C          17.4607   43.9527    7.1105 C.1     1  UNL1        0.1004
     22 N          18.5307   44.3813    7.2074 N.1     1  UNL1       -0.1908
     23 C          14.8298   33.9679    8.5862 C.2     1  UNL1        0.2495
     24 O          13.9389   33.0996    8.7939 O.2     1  UNL1       -0.2698
     25 N          14.6191   35.3372    8.9653 N.am    1  UNL1       -0.2803
     26 H          15.3778   35.9512    8.8364 H       1  UNL1        0.1552
     27 F          19.6511   32.4517    6.0974 F       1  UNL1       -0.2042
     28 C          18.4979   32.8183    6.7051 C.ar    1  UNL1        0.1401
     29 C          17.9228   31.9905    7.6733 C.ar    1  UNL1        0.0298
     30 C          16.7282   32.3675    8.2938 C.ar    1  UNL1        0.0068
     31 C          16.1021   33.5765    7.9516 C.ar    1  UNL1        0.0538
     32 C          16.6868   34.3996    6.9793 C.ar    1  UNL1        0.0068
     33 C          17.8793   34.0230    6.3581 C.ar    1  UNL1        0.0298
@<TRIPOS>BOND
     1    28    27    1
     2    29    30   ar
     3    31    32   ar
     4    31    23    1
     5    33    28   ar
     6    23    25   am
     7     2     3   ar
     8     3    12    1
     9     4     5   ar
    10     6     1   ar
    11     7    12    1
    12     7     8    1
    13     8     9    1
    14     9    13    1
    15    14    13    1
    16    14    15    1
    17    16    17   ar
    18    18    19   ar
    19    18    21    1
    20    20    15   ar
    21    10    12   am
    22    25     1    1
    23    13    10   am
    24    28    29   ar
    25    30    31   ar
    26    32    33   ar
    27    23    24    2
    28     1     2   ar
    29     3     4   ar
    30     5     6   ar
    31    15    16   ar
    32    17    18   ar
    33    19    20   ar
    34    10    11    2
    35    21    22    3
    36    25    26    1
@<TRIPOS>MOLECULE
MolPort-006-609-946 ChemDiv-V017-8348 MCULE-4030383458 PubChem-46070030 ZINC000034735438 ZINC34735438
 33 36 0 0 0
SMALL
GASTEIGER

@<TRIPOS>ATOM
      1 C          12.8305   37.0686    9.8189 C.ar    1  UNL1        0.0518
      2 C          13.9228   36.6077    9.0770 C.ar    1  UNL1        0.0296
      3 C          14.2801   35.2486    9.0711 C.ar    1  UNL1        0.0565
      4 C          13.4998   34.3484    9.8170 C.ar    1  UNL1        0.0150
      5 C          12.4060   34.7982   10.5611 C.ar    1  UNL1        0.0026
      6 C          12.0749   36.1550   10.5659 C.ar    1  UNL1        0.0148
      7 C          15.5674   33.3326    8.0886 C.3     1  UNL1        0.1015
      8 C          16.1492   33.0511    6.7104 C.3     1  UNL1        0.0435
      9 C          17.5146   33.7136    6.5960 C.3     1  UNL1        0.0971
     10 C          16.4527   35.6475    7.8140 C.2     1  UNL1        0.3112
     11 O          16.5293   36.8427    8.2120 O.2     1  UNL1       -0.2520
     12 N          15.4098   34.7737    8.3015 N.am    1  UNL1       -0.2430
     13 N          17.4250   35.1434    6.8800 N.am    1  UNL1       -0.2596
     14 C          18.4551   36.0163    6.3334 C.3     1  UNL1        0.1217
     15 C          18.4347   35.9670    4.8429 C.ar    1  UNL1       -0.0022
     16 C          19.6008   35.6315    4.1454 C.ar    1  UNL1       -0.0019
     17 C          19.5898   35.5741    2.7483 C.ar    1  UNL1        0.0100
     18 C          18.4110   35.8484    2.0462 C.ar    1  UNL1        0.0684
     19 C          17.2410   36.1732    2.7437 C.ar    1  UNL1        0.0100
     20 C          17.2516   36.2303    4.1416 C.ar    1  UNL1       -0.0019
     21 C          18.3965   35.7882    0.6126 C.1     1  UNL1        0.1004
     22 N          18.3913   35.7353   -0.5428 N.1     1  UNL1       -0.1908
     23 C          11.2945   39.0845    9.4068 C.2     1  UNL1        0.2495
     24 O          10.3528   38.3877    8.9392 O.2     1  UNL1       -0.2698
     25 N          12.5306   38.4707    9.8049 N.am    1  UNL1       -0.2803
     26 H          13.2481   39.0771   10.0993 H       1  UNL1        0.1552
     27 F          10.5930   44.6524    9.8997 F       1  UNL1       -0.2042
     28 C          10.7722   43.3152    9.7850 C.ar    1  UNL1        0.1401
     29 C          11.5818   42.8019    8.7678 C.ar    1  UNL1        0.0298
     30 C          11.7590   41.4205    8.6467 C.ar    1  UNL1        0.0068
     31 C          11.1295   40.5434    9.5441 C.ar    1  UNL1        0.0538
     32 C          10.3195   41.0681   10.5606 C.ar    1  UNL1        0.0068
     33 C          10.1410   42.4478   10.6813 C.ar    1  UNL1        0.0298
@<TRIPOS>BOND
     1    28    27    1
     2    29    30   ar
     3    31    32   ar
     4    31    23    1
     5    33    28   ar
     6    23    25   am
     7     2     3   ar
     8     3    12    1
     9     4     5   ar
    10     6     1   ar
    11     7    12    1
    12     7     8    1
    13     8     9    1
    14     9    13    1
    15    14    13    1
    16    14    15    1
    17    16    17   ar
    18    18    19   ar
    19    18    21    1
    20    20    15   ar
    21    10    12   am
    22    25     1    1
    23    13    10   am
    24    28    29   ar
    25    30    31   ar
    26    32    33   ar
    27    23    24    2
    28     1     2   ar
    29     3     4   ar
    30     5     6   ar
    31    15    16   ar
    32    17    18   ar
    33    19    20   ar
    34    10    11    2
    35    21    22    3
    36    25    26    1
