@<TRIPOS>MOLECULE
MolPort-046-180-079 1506401081 CSSS00159964284 MCULE-5925653636 PubChem-132409780 ZINC001506401081
 26 27 0 0 0
SMALL
GASTEIGER

@<TRIPOS>ATOM
      1 C          11.7447   41.1874    6.2422 C.3     1  UNL1        0.1152
      2 C          11.6756   41.6626    8.7111 C.2     1  UNL1        0.2373
      3 N          12.3768   41.1835    7.5523 N.am    1  UNL1       -0.2729
      4 O          12.1400   41.4526    9.8632 O.2     1  UNL1       -0.2739
      5 C          13.7493   40.7035    7.6541 C.3     1  UNL1        0.1226
      6 C          16.4480   41.0600    9.2935 C.3     1  UNL1        0.0515
      7 C          15.8737   42.0156    8.3021 C.ar    1  UNL1        0.0548
      8 C          14.7107   41.8490    7.5798 C.ar    1  UNL1        0.0261
      9 C          14.6106   42.9986    6.8153 C.ar    1  UNL1        0.0777
     10 C          17.6451   43.7685    8.4960 C.3     1  UNL1        0.1533
     11 C          13.5243   43.3288    5.8532 C.3     1  UNL1        0.0537
     12 N          15.6599   43.8075    7.0651 N.ar    1  UNL1       -0.1742
     13 N          16.4171   43.2011    7.9659 N.ar    1  UNL1       -0.2534
     14 C          10.4054   42.4404    8.5818 C.3     1  UNL1        0.1472
     15 S           9.0876   41.7129    9.6123 S.3     1  UNL1       -0.1026
     16 C           8.3845   40.7464    8.2716 C.ar    1  UNL1        0.0391
     17 C           9.0570   39.5943    7.8493 C.ar    1  UNL1        0.0074
     18 C           8.5398   38.8152    6.8128 C.ar    1  UNL1        0.0006
     19 C           7.3430   39.1829    6.1959 C.ar    1  UNL1        0.0013
     20 C           6.6635   40.3282    6.6181 C.ar    1  UNL1        0.0152
     21 C           7.1732   41.1192    7.6598 C.ar    1  UNL1        0.0560
     22 C           6.3827   43.5493    7.4134 C.2     1  UNL1        0.2266
     23 C           5.6265   44.6654    8.0377 C.3     1  UNL1        0.0949
     24 N           6.4871   42.2996    8.1067 N.am    1  UNL1       -0.2835
     25 O           6.9188   43.7212    6.2870 O.2     1  UNL1       -0.2748
     26 H           6.0411   42.2439    8.9826 H       1  UNL1        0.1549
@<TRIPOS>BOND
     1     6     7    1
     2     8     9   ar
     3    10    13    1
     4    11     9    1
     5     5     8    1
     6     5     3    1
     7     1     3    1
     8    14     2    1
     9    14    15    1
    10    16    15    1
    11    17    18   ar
    12    19    20   ar
    13    21    24    1
    14    21    16   ar
    15    23    22    1
    16    13    12   ar
    17    13     7   ar
    18     3     2   am
    19    24    22   am
    20     7     8   ar
    21     9    12   ar
    22     2     4    2
    23    16    17   ar
    24    18    19   ar
    25    20    21   ar
    26    22    25    2
    27    24    26    1
@<TRIPOS>MOLECULE
MolPort-046-180-079 1506401081 CSSS00159964284 MCULE-5925653636 PubChem-132409780 ZINC001506401081
 26 27 0 0 0
SMALL
GASTEIGER

@<TRIPOS>ATOM
      1 C          11.7345   42.1806    8.9139 C.3     1  UNL1        0.1152
      2 C           9.9644   41.6271    7.2150 C.2     1  UNL1        0.2373
      3 N          11.3487   41.7506    7.5789 N.am    1  UNL1       -0.2729
      4 O           9.6390   41.4720    6.0079 O.2     1  UNL1       -0.2739
      5 C          12.4039   41.4246    6.6277 C.3     1  UNL1        0.1226
      6 C          13.9708   44.0483    5.7566 C.3     1  UNL1        0.0515
      7 C          14.4215   43.0276    6.7471 C.ar    1  UNL1        0.0548
      8 C          13.7302   41.8991    7.1352 C.ar    1  UNL1        0.0261
      9 C          14.5613   41.2838    8.0555 C.ar    1  UNL1        0.0777
     10 C          16.6208   44.0790    7.2999 C.3     1  UNL1        0.1533
     11 C          14.2889   40.0142    8.7827 C.3     1  UNL1        0.0537
     12 N          15.6876   42.0081    8.2114 N.ar    1  UNL1       -0.1742
     13 N          15.5905   43.0610    7.4149 N.ar    1  UNL1       -0.2534
     14 C           8.8859   41.6493    8.2502 C.3     1  UNL1        0.1472
     15 S           7.9769   43.2304    8.2111 S.3     1  UNL1       -0.1026
     16 C           6.5866   42.6115    9.1650 C.ar    1  UNL1        0.0391
     17 C           5.2901   42.9429    8.7557 C.ar    1  UNL1        0.0074
     18 C           4.1842   42.4775    9.4693 C.ar    1  UNL1        0.0006
     19 C           4.3699   41.6734   10.5948 C.ar    1  UNL1        0.0013
     20 C           5.6617   41.3333   11.0040 C.ar    1  UNL1        0.0152
     21 C           6.7816   41.7945   10.2941 C.ar    1  UNL1        0.0560
     22 C           8.6759   41.5819   12.0138 C.2     1  UNL1        0.2266
     23 C          10.0861   41.1757   12.2456 C.3     1  UNL1        0.0949
     24 N           8.1166   41.4540   10.7007 N.am    1  UNL1       -0.2835
     25 O           7.9975   42.0319   12.9746 O.2     1  UNL1       -0.2748
     26 H           8.7107   41.0944   10.0028 H       1  UNL1        0.1549
@<TRIPOS>BOND
     1     6     7    1
     2     8     9   ar
     3    10    13    1
     4    11     9    1
     5     5     8    1
     6     5     3    1
     7     1     3    1
     8    14     2    1
     9    14    15    1
    10    16    15    1
    11    17    18   ar
    12    19    20   ar
    13    21    24    1
    14    21    16   ar
    15    23    22    1
    16    13    12   ar
    17    13     7   ar
    18     3     2   am
    19    24    22   am
    20     7     8   ar
    21     9    12   ar
    22     2     4    2
    23    16    17   ar
    24    18    19   ar
    25    20    21   ar
    26    22    25    2
    27    24    26    1
@<TRIPOS>MOLECULE
MolPort-046-180-079 1506401081 CSSS00159964284 MCULE-5925653636 PubChem-132409780 ZINC001506401081
 26 27 0 0 0
SMALL
GASTEIGER

@<TRIPOS>ATOM
      1 C          11.2611   39.3347   10.1668 C.3     1  UNL1        0.1152
      2 C          12.8537   40.0523    8.3571 C.2     1  UNL1        0.2373
      3 N          12.5796   39.7769    9.7403 N.am    1  UNL1       -0.2729
      4 O          13.9179   40.6407    8.0280 O.2     1  UNL1       -0.2739
      5 C          13.6224   39.9097   10.7500 C.3     1  UNL1        0.1226
      6 C          16.6967   40.1725    9.9901 C.3     1  UNL1        0.0515
      7 C          15.9522   38.9106   10.2720 C.ar    1  UNL1        0.0548
      8 C          14.6217   38.8025   10.6185 C.ar    1  UNL1        0.0261
      9 C          14.4118   37.4420   10.7644 C.ar    1  UNL1        0.0777
     10 C          17.8554   37.3346    9.8952 C.3     1  UNL1        0.1533
     11 C          13.1308   36.7794   11.1316 C.3     1  UNL1        0.0537
     12 N          15.5569   36.7733   10.5214 N.ar    1  UNL1       -0.1742
     13 N          16.4815   37.6732   10.2251 N.ar    1  UNL1       -0.2534
     14 C          11.9083   39.6265    7.2800 C.3     1  UNL1        0.1472
     15 S          11.4120   41.0470    6.2488 S.3     1  UNL1       -0.1026
     16 C           9.6599   40.8631    6.5983 C.ar    1  UNL1        0.0391
     17 C           9.0259   41.8323    7.3837 C.ar    1  UNL1        0.0074
     18 C           7.6646   41.7257    7.6737 C.ar    1  UNL1        0.0006
     19 C           6.9286   40.6499    7.1748 C.ar    1  UNL1        0.0013
     20 C           7.5545   39.6830    6.3841 C.ar    1  UNL1        0.0152
     21 C           8.9227   39.7797    6.0850 C.ar    1  UNL1        0.0560
     22 C           9.5347   38.6841    3.8454 C.2     1  UNL1        0.2266
     23 C          10.2868   37.5914    3.1762 C.3     1  UNL1        0.0949
     24 N           9.5819   38.7948    5.2733 N.am    1  UNL1       -0.2835
     25 O           8.8689   39.4929    3.1466 O.2     1  UNL1       -0.2748
     26 H          10.1239   38.1244    5.7487 H       1  UNL1        0.1549
@<TRIPOS>BOND
     1     6     7    1
     2     8     9   ar
     3    10    13    1
     4    11     9    1
     5     5     8    1
     6     5     3    1
     7     1     3    1
     8    14     2    1
     9    14    15    1
    10    16    15    1
    11    17    18   ar
    12    19    20   ar
    13    21    24    1
    14    21    16   ar
    15    23    22    1
    16    13    12   ar
    17    13     7   ar
    18     3     2   am
    19    24    22   am
    20     7     8   ar
    21     9    12   ar
    22     2     4    2
    23    16    17   ar
    24    18    19   ar
    25    20    21   ar
    26    22    25    2
    27    24    26    1
@<TRIPOS>MOLECULE
MolPort-046-180-079 1506401081 CSSS00159964284 MCULE-5925653636 PubChem-132409780 ZINC001506401081
 26 27 0 0 0
SMALL
GASTEIGER

@<TRIPOS>ATOM
      1 C          10.7524   42.2589    8.5552 C.3     1  UNL1        0.1152
      2 C           9.1236   41.5971    6.7566 C.2     1  UNL1        0.2373
      3 N          10.4736   41.8065    7.2011 N.am    1  UNL1       -0.2729
      4 O           8.8803   41.4228    5.5329 O.2     1  UNL1       -0.2739
      5 C          11.6014   41.5478    6.3147 C.3     1  UNL1        0.1226
      6 C          12.3590   39.1089    8.2058 C.3     1  UNL1        0.0515
      7 C          13.1847   40.3234    7.9423 C.ar    1  UNL1        0.0548
      8 C          12.8596   41.3717    7.1071 C.ar    1  UNL1        0.0261
      9 C          13.9320   42.2410    7.2096 C.ar    1  UNL1        0.0777
     10 C          15.0979   39.7305    9.4376 C.3     1  UNL1        0.1533
     11 C          14.0843   43.5439    6.5067 C.3     1  UNL1        0.0537
     12 N          14.8504   41.7371    8.0582 N.ar    1  UNL1       -0.1742
     13 N          14.3867   40.5764    8.4943 N.ar    1  UNL1       -0.2534
     14 C           7.9866   41.5512    7.7263 C.3     1  UNL1        0.1472
     15 S           7.4602   43.2339    8.1943 S.3     1  UNL1       -0.1026
     16 C           6.1409   42.6683    9.2739 C.ar    1  UNL1        0.0391
     17 C           4.8262   43.0514    8.9860 C.ar    1  UNL1        0.0074
     18 C           3.7737   42.6286    9.7997 C.ar    1  UNL1        0.0006
     19 C           4.0310   41.8154   10.9044 C.ar    1  UNL1        0.0013
     20 C           5.3407   41.4237   11.1926 C.ar    1  UNL1        0.0152
     21 C           6.4074   41.8419   10.3814 C.ar    1  UNL1        0.0560
     22 C           8.4717   41.6317   11.8930 C.2     1  UNL1        0.2266
     23 C           9.8752   41.1557   11.9981 C.3     1  UNL1        0.0949
     24 N           7.7598   41.4482   10.6630 N.am    1  UNL1       -0.2835
     25 O           7.9329   42.1884   12.8858 O.2     1  UNL1       -0.2748
     26 H           8.2499   41.0049    9.9332 H       1  UNL1        0.1549
@<TRIPOS>BOND
     1     6     7    1
     2     8     9   ar
     3    10    13    1
     4    11     9    1
     5     5     8    1
     6     5     3    1
     7     1     3    1
     8    14     2    1
     9    14    15    1
    10    16    15    1
    11    17    18   ar
    12    19    20   ar
    13    21    24    1
    14    21    16   ar
    15    23    22    1
    16    13    12   ar
    17    13     7   ar
    18     3     2   am
    19    24    22   am
    20     7     8   ar
    21     9    12   ar
    22     2     4    2
    23    16    17   ar
    24    18    19   ar
    25    20    21   ar
    26    22    25    2
    27    24    26    1
@<TRIPOS>MOLECULE
MolPort-046-180-079 1506401081 CSSS00159964284 MCULE-5925653636 PubChem-132409780 ZINC001506401081
 26 27 0 0 0
SMALL
GASTEIGER

@<TRIPOS>ATOM
      1 C          10.3139   41.2116   11.5475 C.3     1  UNL1        0.1152
      2 C           9.5975   41.9779    9.2615 C.2     1  UNL1        0.2373
      3 N          10.5800   41.3887   10.1284 N.am    1  UNL1       -0.2729
      4 O           9.9133   42.3285    8.0934 O.2     1  UNL1       -0.2739
      5 C          11.8605   40.9299    9.6045 C.3     1  UNL1        0.1226
      6 C          13.8553   39.3104   11.4743 C.3     1  UNL1        0.0515
      7 C          12.8520   38.7361   10.5312 C.ar    1  UNL1        0.0548
      8 C          11.9760   39.4427    9.7342 C.ar    1  UNL1        0.0261
      9 C          11.2699   38.4692    9.0486 C.ar    1  UNL1        0.0777
     10 C          13.3723   36.3275   10.9508 C.3     1  UNL1        0.1533
     11 C          10.1941   38.6982    8.0461 C.3     1  UNL1        0.0537
     12 N          11.6989   37.2460    9.4190 N.ar    1  UNL1       -0.1742
     13 N          12.6558   37.4210   10.3169 N.ar    1  UNL1       -0.2534
     14 C           8.1821   42.1620    9.7064 C.3     1  UNL1        0.1472
     15 S           7.0345   41.2419    8.6274 S.3     1  UNL1       -0.1026
     16 C           5.9082   42.6249    8.4162 C.ar    1  UNL1        0.0391
     17 C           6.3444   43.7430    7.6967 C.ar    1  UNL1        0.0074
     18 C           5.4964   44.8358    7.5083 C.ar    1  UNL1        0.0006
     19 C           4.2043   44.8134    8.0355 C.ar    1  UNL1        0.0013
     20 C           3.7608   43.6969    8.7485 C.ar    1  UNL1        0.0152
     21 C           4.6040   42.5917    8.9440 C.ar    1  UNL1        0.0560
     22 C           4.3847   41.1584   11.0626 C.2     1  UNL1        0.2266
     23 C           3.8499   39.9012   11.6465 C.3     1  UNL1        0.0949
     24 N           4.1639   41.4355    9.6741 N.am    1  UNL1       -0.2835
     25 O           5.0228   41.9575   11.7974 O.2     1  UNL1       -0.2748
     26 H           3.6565   40.7617    9.1664 H       1  UNL1        0.1549
@<TRIPOS>BOND
     1     6     7    1
     2     8     9   ar
     3    10    13    1
     4    11     9    1
     5     5     8    1
     6     5     3    1
     7     1     3    1
     8    14     2    1
     9    14    15    1
    10    16    15    1
    11    17    18   ar
    12    19    20   ar
    13    21    24    1
    14    21    16   ar
    15    23    22    1
    16    13    12   ar
    17    13     7   ar
    18     3     2   am
    19    24    22   am
    20     7     8   ar
    21     9    12   ar
    22     2     4    2
    23    16    17   ar
    24    18    19   ar
    25    20    21   ar
    26    22    25    2
    27    24    26    1
@<TRIPOS>MOLECULE
MolPort-046-180-079 1506401081 CSSS00159964284 MCULE-5925653636 PubChem-132409780 ZINC001506401081
 26 27 0 0 0
SMALL
GASTEIGER

@<TRIPOS>ATOM
      1 C          10.9855   40.8341   11.3664 C.3     1  UNL1        0.1152
      2 C          10.3449   41.5293    9.0356 C.2     1  UNL1        0.2373
      3 N          11.2639   40.8955    9.9399 N.am    1  UNL1       -0.2729
      4 O          10.6915   41.7731    7.8492 O.2     1  UNL1       -0.2739
      5 C          12.4882   40.2752    9.4491 C.3     1  UNL1        0.1226
      6 C          10.5988   37.7554    9.0265 C.3     1  UNL1        0.0515
      7 C          11.8274   37.8176    9.8708 C.ar    1  UNL1        0.0548
      8 C          12.6544   38.9086   10.0377 C.ar    1  UNL1        0.0261
      9 C          13.6361   38.4684   10.9087 C.ar    1  UNL1        0.0777
     10 C          11.7421   35.4679   10.7193 C.3     1  UNL1        0.1533
     11 C          14.7831   39.2647   11.4236 C.3     1  UNL1        0.0537
     12 N          13.4095   37.1817   11.2416 N.ar    1  UNL1       -0.1742
     13 N          12.3126   36.7994   10.6066 N.ar    1  UNL1       -0.2534
     14 C           8.9577   41.8859    9.4640 C.3     1  UNL1        0.1472
     15 S           7.7189   40.9425    8.5138 S.3     1  UNL1       -0.1026
     16 C           6.6490   42.3591    8.2410 C.ar    1  UNL1        0.0391
     17 C           6.9323   43.2197    7.1746 C.ar    1  UNL1        0.0074
     18 C           6.1216   44.3291    6.9285 C.ar    1  UNL1        0.0006
     19 C           5.0190   44.5808    7.7464 C.ar    1  UNL1        0.0013
     20 C           4.7270   43.7211    8.8081 C.ar    1  UNL1        0.0152
     21 C           5.5344   42.6018    9.0651 C.ar    1  UNL1        0.0560
     22 C           4.0616   40.9251   10.3340 C.2     1  UNL1        0.2266
     23 C           3.9438   40.0510   11.5297 C.3     1  UNL1        0.0949
     24 N           5.2482   41.7074   10.1522 N.am    1  UNL1       -0.2835
     25 O           3.1169   40.9636    9.5023 O.2     1  UNL1       -0.2748
     26 H           5.9413   41.6230   10.8463 H       1  UNL1        0.1549
@<TRIPOS>BOND
     1     6     7    1
     2     8     9   ar
     3    10    13    1
     4    11     9    1
     5     5     8    1
     6     5     3    1
     7     1     3    1
     8    14     2    1
     9    14    15    1
    10    16    15    1
    11    17    18   ar
    12    19    20   ar
    13    21    24    1
    14    21    16   ar
    15    23    22    1
    16    13    12   ar
    17    13     7   ar
    18     3     2   am
    19    24    22   am
    20     7     8   ar
    21     9    12   ar
    22     2     4    2
    23    16    17   ar
    24    18    19   ar
    25    20    21   ar
    26    22    25    2
    27    24    26    1
@<TRIPOS>MOLECULE
MolPort-046-180-079 1506401081 CSSS00159964284 MCULE-5925653636 PubChem-132409780 ZINC001506401081
 26 27 0 0 0
SMALL
GASTEIGER

@<TRIPOS>ATOM
      1 C           9.8320   40.4113    9.1075 C.3     1  UNL1        0.1152
      2 C          11.4459   42.3386    9.1908 C.2     1  UNL1        0.2373
      3 N          10.1282   41.8053    9.3988 N.am    1  UNL1       -0.2729
      4 O          11.6386   43.5829    9.2322 O.2     1  UNL1       -0.2739
      5 C           9.0587   42.6408    9.9306 C.3     1  UNL1        0.1226
      6 C           6.6041   41.4045   11.5258 C.3     1  UNL1        0.0515
      7 C           6.6751   41.6627   10.0580 C.ar    1  UNL1        0.0548
      8 C           7.7362   42.2156    9.3721 C.ar    1  UNL1        0.0261
      9 C           7.3204   42.2385    8.0519 C.ar    1  UNL1        0.0777
     10 C           4.4057   40.7901    9.4776 C.3     1  UNL1        0.1533
     11 C           8.1005   42.7398    6.8879 C.3     1  UNL1        0.0537
     12 N           6.0758   41.7295    7.9549 N.ar    1  UNL1       -0.1742
     13 N           5.6963   41.3853    9.1755 N.ar    1  UNL1       -0.2534
     14 C          12.6167   41.4402    8.9517 C.3     1  UNL1        0.1472
     15 S          12.7662   41.0205    7.1828 S.3     1  UNL1       -0.1026
     16 C          13.9449   42.3294    6.8316 C.ar    1  UNL1        0.0391
     17 C          13.5751   43.3465    5.9445 C.ar    1  UNL1        0.0074
     18 C          14.4627   44.3828    5.6496 C.ar    1  UNL1        0.0006
     19 C          15.7247   44.4094    6.2451 C.ar    1  UNL1        0.0013
     20 C          16.0967   43.4006    7.1371 C.ar    1  UNL1        0.0152
     21 C          15.2126   42.3536    7.4422 C.ar    1  UNL1        0.0560
     22 C          16.8038   41.1981    9.0926 C.2     1  UNL1        0.2266
     23 C          17.0052   40.0377    9.9983 C.3     1  UNL1        0.0949
     24 N          15.5788   41.3087    8.3574 N.am    1  UNL1       -0.2835
     25 O          17.7127   42.0631    8.9864 O.2     1  UNL1       -0.2748
     26 H          14.9176   40.5922    8.4941 H       1  UNL1        0.1549
@<TRIPOS>BOND
     1     6     7    1
     2     8     9   ar
     3    10    13    1
     4    11     9    1
     5     5     8    1
     6     5     3    1
     7     1     3    1
     8    14     2    1
     9    14    15    1
    10    16    15    1
    11    17    18   ar
    12    19    20   ar
    13    21    24    1
    14    21    16   ar
    15    23    22    1
    16    13    12   ar
    17    13     7   ar
    18     3     2   am
    19    24    22   am
    20     7     8   ar
    21     9    12   ar
    22     2     4    2
    23    16    17   ar
    24    18    19   ar
    25    20    21   ar
    26    22    25    2
    27    24    26    1
@<TRIPOS>MOLECULE
MolPort-046-180-079 1506401081 CSSS00159964284 MCULE-5925653636 PubChem-132409780 ZINC001506401081
 26 27 0 0 0
SMALL
GASTEIGER

@<TRIPOS>ATOM
      1 C          12.0706   40.7586    6.2875 C.3     1  UNL1        0.1152
      2 C          11.7651   41.4561    8.6847 C.2     1  UNL1        0.2373
      3 N          12.5669   40.8625    7.6509 N.am    1  UNL1       -0.2729
      4 O          12.1052   41.3434    9.8924 O.2     1  UNL1       -0.2739
      5 C          13.9092   40.3707    7.9353 C.3     1  UNL1        0.1226
      6 C          13.8336   42.9278    6.0502 C.3     1  UNL1        0.0515
      7 C          14.8782   42.5966    7.0628 C.ar    1  UNL1        0.0548
      8 C          14.8981   41.4941    7.8912 C.ar    1  UNL1        0.0261
      9 C          16.0600   41.6374    8.6298 C.ar    1  UNL1        0.0777
     10 C          16.3422   44.5826    6.6621 C.3     1  UNL1        0.1533
     11 C          16.5628   40.7065    9.6765 C.3     1  UNL1        0.0537
     12 N          16.6985   42.7672    8.2645 N.ar    1  UNL1       -0.1742
     13 N          15.9730   43.3388    7.3161 N.ar    1  UNL1       -0.2534
     14 C          10.5350   42.2403    8.3573 C.3     1  UNL1        0.1472
     15 S           9.0908   41.1412    8.1726 S.3     1  UNL1       -0.1026
     16 C           7.9082   42.4883    8.0603 C.ar    1  UNL1        0.0391
     17 C           7.3839   42.8195    6.8060 C.ar    1  UNL1        0.0074
     18 C           6.4596   43.8579    6.6792 C.ar    1  UNL1        0.0006
     19 C           6.0511   44.5682    7.8091 C.ar    1  UNL1        0.0013
     20 C           6.5657   44.2373    9.0651 C.ar    1  UNL1        0.0152
     21 C           7.4951   43.1946    9.2053 C.ar    1  UNL1        0.0560
     22 C           7.5186   41.8612   11.3991 C.2     1  UNL1        0.2266
     23 C           8.2157   41.6318   12.6909 C.3     1  UNL1        0.0949
     24 N           8.0338   42.8411   10.4892 N.am    1  UNL1       -0.2835
     25 O           6.4875   41.1916   11.1268 O.2     1  UNL1       -0.2748
     26 H           8.8434   43.3233   10.7744 H       1  UNL1        0.1549
@<TRIPOS>BOND
     1     6     7    1
     2     8     9   ar
     3    10    13    1
     4    11     9    1
     5     5     8    1
     6     5     3    1
     7     1     3    1
     8    14     2    1
     9    14    15    1
    10    16    15    1
    11    17    18   ar
    12    19    20   ar
    13    21    24    1
    14    21    16   ar
    15    23    22    1
    16    13    12   ar
    17    13     7   ar
    18     3     2   am
    19    24    22   am
    20     7     8   ar
    21     9    12   ar
    22     2     4    2
    23    16    17   ar
    24    18    19   ar
    25    20    21   ar
    26    22    25    2
    27    24    26    1
@<TRIPOS>MOLECULE
MolPort-046-180-079 1506401081 CSSS00159964284 MCULE-5925653636 PubChem-132409780 ZINC001506401081
 26 27 0 0 0
SMALL
GASTEIGER

@<TRIPOS>ATOM
      1 C          11.9644   39.0116    8.0089 C.3     1  UNL1        0.1152
      2 C          12.5751   40.0741   10.2053 C.2     1  UNL1        0.2373
      3 N          12.9579   39.5568    8.9209 N.am    1  UNL1       -0.2729
      4 O          13.4537   40.3364   11.0692 O.2     1  UNL1       -0.2739
      5 C          14.3490   39.5870    8.4869 C.3     1  UNL1        0.1226
      6 C          12.7646   41.5672    6.5721 C.3     1  UNL1        0.0515
      7 C          14.0680   41.8322    7.2482 C.ar    1  UNL1        0.0548
      8 C          14.7438   40.9764    8.0925 C.ar    1  UNL1        0.0261
      9 C          15.8872   41.6715    8.4469 C.ar    1  UNL1        0.0777
     10 C          14.4366   44.1264    6.3268 C.3     1  UNL1        0.1533
     11 C          16.9703   41.1915    9.3478 C.3     1  UNL1        0.0537
     12 N          15.8924   42.8798    7.8489 N.ar    1  UNL1       -0.1742
     13 N          14.7861   42.9651    7.1269 N.ar    1  UNL1       -0.2534
     14 C          11.1420   40.3403   10.5379 C.3     1  UNL1        0.1472
     15 S          10.1021   40.2755    9.0406 S.3     1  UNL1       -0.1026
     16 C           9.4331   41.9267    9.2680 C.ar    1  UNL1        0.0391
     17 C          10.2268   42.8926    9.8965 C.ar    1  UNL1        0.0074
     18 C           9.7430   44.1880   10.0878 C.ar    1  UNL1        0.0006
     19 C           8.4625   44.5252    9.6465 C.ar    1  UNL1        0.0013
     20 C           7.6683   43.5670    9.0119 C.ar    1  UNL1        0.0152
     21 C           8.1441   42.2613    8.8131 C.ar    1  UNL1        0.0560
     22 C           7.2828   40.9874    6.7573 C.2     1  UNL1        0.2266
     23 C           6.3861   39.9097    6.2655 C.3     1  UNL1        0.0949
     24 N           7.3409   41.2640    8.1621 N.am    1  UNL1       -0.2835
     25 O           7.9750   41.6390    5.9315 O.2     1  UNL1       -0.2748
     26 H           6.7694   40.7116    8.7431 H       1  UNL1        0.1549
@<TRIPOS>BOND
     1     6     7    1
     2     8     9   ar
     3    10    13    1
     4    11     9    1
     5     5     8    1
     6     5     3    1
     7     1     3    1
     8    14     2    1
     9    14    15    1
    10    16    15    1
    11    17    18   ar
    12    19    20   ar
    13    21    24    1
    14    21    16   ar
    15    23    22    1
    16    13    12   ar
    17    13     7   ar
    18     3     2   am
    19    24    22   am
    20     7     8   ar
    21     9    12   ar
    22     2     4    2
    23    16    17   ar
    24    18    19   ar
    25    20    21   ar
    26    22    25    2
    27    24    26    1
@<TRIPOS>MOLECULE
MolPort-046-180-079 1506401081 CSSS00159964284 MCULE-5925653636 PubChem-132409780 ZINC001506401081
 26 27 0 0 0
SMALL
GASTEIGER

@<TRIPOS>ATOM
      1 C           6.9744   40.7941    8.0239 C.3     1  UNL1        0.1152
      2 C           8.8470   41.5107    9.5425 C.2     1  UNL1        0.2373
      3 N           7.4430   41.3506    9.2836 N.am    1  UNL1       -0.2729
      4 O           9.2348   42.1898   10.5301 O.2     1  UNL1       -0.2739
      5 C           6.4510   41.7187   10.2861 C.3     1  UNL1        0.1226
      6 C           6.5077   44.4133    8.6026 C.3     1  UNL1        0.0515
      7 C           5.3070   43.5889    8.9264 C.ar    1  UNL1        0.0548
      8 C           5.2893   42.4105    9.6429 C.ar    1  UNL1        0.0261
      9 C           3.9545   42.0451    9.6747 C.ar    1  UNL1        0.0777
     10 C           3.6164   45.0422    7.7961 C.3     1  UNL1        0.1533
     11 C           3.3834   40.8392   10.3338 C.3     1  UNL1        0.0537
     12 N           3.2146   42.9550    9.0097 N.ar    1  UNL1       -0.1742
     13 N           4.0447   43.8837    8.5612 N.ar    1  UNL1       -0.2534
     14 C           9.8745   40.8585    8.6740 C.3     1  UNL1        0.1472
     15 S          11.0386   42.0919    8.0023 S.3     1  UNL1       -0.1026
     16 C          12.4901   41.3126    8.7175 C.ar    1  UNL1        0.0391
     17 C          12.3523   40.6110    9.9203 C.ar    1  UNL1        0.0074
     18 C          13.4568   39.9887   10.5049 C.ar    1  UNL1        0.0006
     19 C          14.7055   40.0616    9.8858 C.ar    1  UNL1        0.0013
     20 C          14.8477   40.7546    8.6811 C.ar    1  UNL1        0.0152
     21 C          13.7443   41.3837    8.0831 C.ar    1  UNL1        0.0560
     22 C          14.7918   43.1604    6.5544 C.2     1  UNL1        0.2266
     23 C          14.7776   43.7856    5.2067 C.3     1  UNL1        0.0949
     24 N          13.8728   42.0999    6.8446 N.am    1  UNL1       -0.2835
     25 O          15.6100   43.5737    7.4178 O.2     1  UNL1       -0.2748
     26 H          13.2646   41.8338    6.1176 H       1  UNL1        0.1549
@<TRIPOS>BOND
     1     6     7    1
     2     8     9   ar
     3    10    13    1
     4    11     9    1
     5     5     8    1
     6     5     3    1
     7     1     3    1
     8    14     2    1
     9    14    15    1
    10    16    15    1
    11    17    18   ar
    12    19    20   ar
    13    21    24    1
    14    21    16   ar
    15    23    22    1
    16    13    12   ar
    17    13     7   ar
    18     3     2   am
    19    24    22   am
    20     7     8   ar
    21     9    12   ar
    22     2     4    2
    23    16    17   ar
    24    18    19   ar
    25    20    21   ar
    26    22    25    2
    27    24    26    1
