@<TRIPOS>MOLECULE
Molport-053-332-522
 17 18 0 0 0
SMALL
GASTEIGER

@<TRIPOS>ATOM
      1 CL         18.2018   44.2790    7.5094 Cl      1  UNL1       -0.0821
      2 C          16.7466   43.3017    7.5615 C.ar    1  UNL1        0.0608
      3 C          16.7014   42.1480    8.3819 C.ar    1  UNL1        0.0117
      4 C          15.5402   41.3531    8.4343 C.ar    1  UNL1        0.0069
      5 C          14.4573   41.7500    7.6537 C.ar    1  UNL1        0.0732
      6 C          13.1968   41.2391    7.4528 C.ar    1  UNL1        0.1889
      7 C          14.4976   42.8610    6.8618 C.ar    1  UNL1        0.1790
      8 C          15.6283   43.6691    6.7859 C.ar    1  UNL1        0.0517
      9 N          12.5350   42.0303    6.5760 N.ar    1  UNL1       -0.0606
     10 O          13.3496   42.9972    6.2411 O.2     1  UNL1       -0.3521
     11 N          12.6521   40.0649    8.0619 N.pl3   1  UNL1       -0.1962
     12 H          12.4900   39.2685    7.5063 H       1  UNL1        0.1754
     13 S          12.2700   40.0065    9.7497 S.O2    1  UNL1        0.0761
     14 O          11.2977   38.8919   10.0189 O.2     1  UNL1       -0.1499
     15 O          11.6284   41.3035   10.1543 O.2     1  UNL1       -0.1499
     16 C          13.7393   39.7848   10.6914 C.2     1  UNL1        0.1440
     17 C          13.7411   39.0669   11.8153 C.2     1  UNL1        0.0230
@<TRIPOS>BOND
     1     2     1    1
     2     3     4   ar
     3     5     6   ar
     4     6    11    1
     5     7    10   ar
     6     7     5   ar
     7     8     2   ar
     8     9    10   ar
     9    13    11    1
    10    13    16    1
    11     2     3   ar
    12     4     5   ar
    13     6     9   ar
    14    16    17    2
    15     7     8   ar
    16    13    14    2
    17    13    15    2
    18    11    12    1
@<TRIPOS>MOLECULE
Molport-053-332-522
 17 18 0 0 0
SMALL
GASTEIGER

@<TRIPOS>ATOM
      1 CL         18.0877   43.9921    7.7024 Cl      1  UNL1       -0.0821
      2 C          16.5641   43.1266    7.6330 C.ar    1  UNL1        0.0608
      3 C          16.3665   41.9812    8.4424 C.ar    1  UNL1        0.0117
      4 C          15.1487   41.2756    8.3977 C.ar    1  UNL1        0.0069
      5 C          14.1652   41.7508    7.5338 C.ar    1  UNL1        0.0732
      6 C          12.8904   41.3354    7.2297 C.ar    1  UNL1        0.1889
      7 C          14.3523   42.8541    6.7521 C.ar    1  UNL1        0.1790
      8 C          15.5428   43.5751    6.7710 C.ar    1  UNL1        0.0517
      9 N          12.3626   42.1721    6.3054 N.ar    1  UNL1       -0.0606
     10 O          13.2717   43.0746    6.0412 O.2     1  UNL1       -0.3521
     11 N          12.2119   40.2066    7.7881 N.pl3   1  UNL1       -0.1962
     12 H          12.7328   39.5266    8.2733 H       1  UNL1        0.1754
     13 S          10.4991   40.0039    7.6337 S.O2    1  UNL1        0.0761
     14 O           9.7829   41.1132    8.3525 O.2     1  UNL1       -0.1499
     15 O          10.0998   38.6977    8.2597 O.2     1  UNL1       -0.1499
     16 C          10.0477   39.9774    5.9337 C.2     1  UNL1        0.1440
     17 C           9.6822   38.8455    5.3306 C.2     1  UNL1        0.0230
@<TRIPOS>BOND
     1     2     1    1
     2     3     4   ar
     3     5     6   ar
     4     6    11    1
     5     7    10   ar
     6     7     5   ar
     7     8     2   ar
     8     9    10   ar
     9    13    11    1
    10    13    16    1
    11     2     3   ar
    12     4     5   ar
    13     6     9   ar
    14    16    17    2
    15     7     8   ar
    16    13    14    2
    17    13    15    2
    18    11    12    1
@<TRIPOS>MOLECULE
Molport-053-332-522
 17 18 0 0 0
SMALL
GASTEIGER

@<TRIPOS>ATOM
      1 CL         15.5661   45.0287    5.8656 Cl      1  UNL1       -0.0821
      2 C          15.4436   43.5847    6.8533 C.ar    1  UNL1        0.0608
      3 C          16.5303   43.1992    7.6759 C.ar    1  UNL1        0.0117
      4 C          16.4470   42.0423    8.4745 C.ar    1  UNL1        0.0069
      5 C          15.2646   41.3087    8.4169 C.ar    1  UNL1        0.0732
      6 C          14.8322   40.1591    9.0346 C.ar    1  UNL1        0.1889
      7 C          14.2157   41.6772    7.6250 C.ar    1  UNL1        0.1790
      8 C          14.2636   42.8141    6.8234 C.ar    1  UNL1        0.0517
      9 N          13.5770   39.8772    8.6128 N.ar    1  UNL1       -0.0606
     10 O          13.2382   40.8130    7.7642 O.2     1  UNL1       -0.3521
     11 N          15.5711   39.3736    9.9745 N.pl3   1  UNL1       -0.1962
     12 H          16.5530   39.3467    9.9090 H       1  UNL1        0.1754
     13 S          14.7852   38.4688   11.2243 S.O2    1  UNL1        0.0761
     14 O          13.6704   39.2801   11.8235 O.2     1  UNL1       -0.1499
     15 O          15.7800   38.1577   12.3065 O.2     1  UNL1       -0.1499
     16 C          14.1667   36.9561   10.5732 C.2     1  UNL1        0.1440
     17 C          12.9267   36.5426   10.8376 C.2     1  UNL1        0.0230
@<TRIPOS>BOND
     1     2     1    1
     2     3     4   ar
     3     5     6   ar
     4     6    11    1
     5     7    10   ar
     6     7     5   ar
     7     8     2   ar
     8     9    10   ar
     9    13    11    1
    10    13    16    1
    11     2     3   ar
    12     4     5   ar
    13     6     9   ar
    14    16    17    2
    15     7     8   ar
    16    13    14    2
    17    13    15    2
    18    11    12    1
@<TRIPOS>MOLECULE
Molport-053-332-522
 17 18 0 0 0
SMALL
GASTEIGER

@<TRIPOS>ATOM
      1 CL         17.8318   44.1236    7.2083 Cl      1  UNL1       -0.0821
      2 C          16.2015   43.5402    6.9302 C.ar    1  UNL1        0.0608
      3 C          15.3632   44.2062    6.0029 C.ar    1  UNL1        0.0117
      4 C          14.0517   43.7498    5.7689 C.ar    1  UNL1        0.0069
      5 C          13.6267   42.6312    6.4814 C.ar    1  UNL1        0.0732
      6 C          12.4498   41.9214    6.5165 C.ar    1  UNL1        0.1889
      7 C          14.4319   41.9873    7.3760 C.ar    1  UNL1        0.1790
      8 C          15.7328   42.4109    7.6318 C.ar    1  UNL1        0.0517
      9 N          12.5748   40.9037    7.4004 N.ar    1  UNL1       -0.0606
     10 O          13.7818   40.9747    7.8992 O.2     1  UNL1       -0.3521
     11 N          11.2728   42.1952    5.7509 N.pl3   1  UNL1       -0.1962
     12 H          11.1620   43.0850    5.3446 H       1  UNL1        0.1754
     13 S          10.0377   41.0038    5.5195 S.O2    1  UNL1        0.0761
     14 O          10.1654   40.3889    4.1536 O.2     1  UNL1       -0.1499
     15 O           8.6919   41.6646    5.6182 O.2     1  UNL1       -0.1499
     16 C          10.1533   39.7680    6.7661 C.2     1  UNL1        0.1440
     17 C           9.3002   38.7438    6.8088 C.2     1  UNL1        0.0230
@<TRIPOS>BOND
     1     2     1    1
     2     3     4   ar
     3     5     6   ar
     4     6    11    1
     5     7    10   ar
     6     7     5   ar
     7     8     2   ar
     8     9    10   ar
     9    13    11    1
    10    13    16    1
    11     2     3   ar
    12     4     5   ar
    13     6     9   ar
    14    16    17    2
    15     7     8   ar
    16    13    14    2
    17    13    15    2
    18    11    12    1
@<TRIPOS>MOLECULE
Molport-053-332-522
 17 18 0 0 0
SMALL
GASTEIGER

@<TRIPOS>ATOM
      1 CL         17.8236   44.2033    7.1252 Cl      1  UNL1       -0.0821
      2 C          16.2059   43.5723    6.8797 C.ar    1  UNL1        0.0608
      3 C          15.3519   44.1748    5.9237 C.ar    1  UNL1        0.0117
      4 C          14.0502   43.6796    5.7152 C.ar    1  UNL1        0.0069
      5 C          13.6508   42.5874    6.4815 C.ar    1  UNL1        0.0732
      6 C          12.4895   41.8549    6.5536 C.ar    1  UNL1        0.1889
      7 C          14.4711   42.0046    7.4038 C.ar    1  UNL1        0.1790
      8 C          15.7629   42.4680    7.6356 C.ar    1  UNL1        0.0517
      9 N          12.6379   40.8836    7.4849 N.ar    1  UNL1       -0.0606
     10 O          13.8440   41.0045    7.9765 O.2     1  UNL1       -0.3521
     11 N          11.3057   42.0663    5.7789 N.pl3   1  UNL1       -0.1962
     12 H          11.1206   42.9652    5.4226 H       1  UNL1        0.1754
     13 S          10.1893   40.7839    5.4508 S.O2    1  UNL1        0.0761
     14 O           8.7933   41.3316    5.3447 O.2     1  UNL1       -0.1499
     15 O          10.2268   39.7971    6.5832 O.2     1  UNL1       -0.1499
     16 C          10.6427   39.9575    3.9655 C.2     1  UNL1        0.1440
     17 C          10.1619   38.7493    3.6694 C.2     1  UNL1        0.0230
@<TRIPOS>BOND
     1     2     1    1
     2     3     4   ar
     3     5     6   ar
     4     6    11    1
     5     7    10   ar
     6     7     5   ar
     7     8     2   ar
     8     9    10   ar
     9    13    11    1
    10    13    16    1
    11     2     3   ar
    12     4     5   ar
    13     6     9   ar
    14    16    17    2
    15     7     8   ar
    16    13    14    2
    17    13    15    2
    18    11    12    1
@<TRIPOS>MOLECULE
Molport-053-332-522
 17 18 0 0 0
SMALL
GASTEIGER

@<TRIPOS>ATOM
      1 CL         17.7412   42.5512    8.3122 Cl      1  UNL1       -0.0821
      2 C          16.0772   42.0740    8.0318 C.ar    1  UNL1        0.0608
      3 C          15.5020   41.0356    8.8045 C.ar    1  UNL1        0.0117
      4 C          14.1671   40.6411    8.5911 C.ar    1  UNL1        0.0069
      5 C          13.4527   41.3102    7.6004 C.ar    1  UNL1        0.0732
      6 C          12.1681   41.2026    7.1226 C.ar    1  UNL1        0.1889
      7 C          14.0041   42.3110    6.8536 C.ar    1  UNL1        0.1790
      8 C          15.3198   42.7263    7.0378 C.ar    1  UNL1        0.0517
      9 N          11.9871   42.1114    6.1356 N.ar    1  UNL1       -0.0606
     10 O          13.1143   42.7611    6.0008 O.2     1  UNL1       -0.3521
     11 N          11.1683   40.2875    7.5803 N.pl3   1  UNL1       -0.1962
     12 H          11.2733   39.3278    7.3876 H       1  UNL1        0.1754
     13 S           9.7786   40.8221    8.4641 S.O2    1  UNL1        0.0761
     14 O           8.5767   40.0068    8.0754 O.2     1  UNL1       -0.1499
     15 O           9.5048   42.2606    8.1277 O.2     1  UNL1       -0.1499
     16 C          10.0791   40.6932   10.1926 C.2     1  UNL1        0.1440
     17 C          11.2952   40.4195   10.6667 C.2     1  UNL1        0.0230
@<TRIPOS>BOND
     1     2     1    1
     2     3     4   ar
     3     5     6   ar
     4     6    11    1
     5     7    10   ar
     6     7     5   ar
     7     8     2   ar
     8     9    10   ar
     9    13    11    1
    10    13    16    1
    11     2     3   ar
    12     4     5   ar
    13     6     9   ar
    14    16    17    2
    15     7     8   ar
    16    13    14    2
    17    13    15    2
    18    11    12    1
@<TRIPOS>MOLECULE
Molport-053-332-522
 17 18 0 0 0
SMALL
GASTEIGER

@<TRIPOS>ATOM
      1 CL         17.5559   44.0553    6.5745 Cl      1  UNL1       -0.0821
      2 C          16.4160   42.9401    7.3041 C.ar    1  UNL1        0.0608
      3 C          16.8233   42.1246    8.3882 C.ar    1  UNL1        0.0117
      4 C          15.9195   41.2242    8.9844 C.ar    1  UNL1        0.0069
      5 C          14.6282   41.1757    8.4650 C.ar    1  UNL1        0.0732
      6 C          13.5081   40.4426    8.7785 C.ar    1  UNL1        0.1889
      7 C          14.2325   41.9599    7.4202 C.ar    1  UNL1        0.1790
      8 C          15.0991   42.8603    6.8074 C.ar    1  UNL1        0.0517
      9 N          12.5027   40.7943    7.9429 N.ar    1  UNL1       -0.0606
     10 O          12.9756   41.7105    7.1380 O.2     1  UNL1       -0.3521
     11 N          13.4000   39.4634    9.8157 N.pl3   1  UNL1       -0.1962
     12 H          13.5123   39.7439   10.7527 H       1  UNL1        0.1754
     13 S          13.0768   37.7982    9.4680 S.O2    1  UNL1        0.0761
     14 O          13.9602   37.3258    8.3471 O.2     1  UNL1       -0.1499
     15 O          11.6449   37.6546    9.0360 O.2     1  UNL1       -0.1499
     16 C          13.3330   36.8223   10.9091 C.2     1  UNL1        0.1440
     17 C          14.3709   37.0390   11.7180 C.2     1  UNL1        0.0230
@<TRIPOS>BOND
     1     2     1    1
     2     3     4   ar
     3     5     6   ar
     4     6    11    1
     5     7    10   ar
     6     7     5   ar
     7     8     2   ar
     8     9    10   ar
     9    13    11    1
    10    13    16    1
    11     2     3   ar
    12     4     5   ar
    13     6     9   ar
    14    16    17    2
    15     7     8   ar
    16    13    14    2
    17    13    15    2
    18    11    12    1
@<TRIPOS>MOLECULE
Molport-053-332-522
 17 18 0 0 0
SMALL
GASTEIGER

@<TRIPOS>ATOM
      1 CL         16.3323   44.6668    6.2499 Cl      1  UNL1       -0.0821
      2 C          15.8739   43.2384    7.1583 C.ar    1  UNL1        0.0608
      3 C          14.5490   42.7446    7.0740 C.ar    1  UNL1        0.0117
      4 C          14.1658   41.5988    7.7974 C.ar    1  UNL1        0.0069
      5 C          15.1363   40.9857    8.5859 C.ar    1  UNL1        0.0732
      6 C          15.1315   39.8832    9.4074 C.ar    1  UNL1        0.1889
      7 C          16.4138   41.4590    8.6697 C.ar    1  UNL1        0.1790
      8 C          16.8267   42.5884    7.9686 C.ar    1  UNL1        0.0517
      9 N          16.3646   39.7279    9.9441 N.ar    1  UNL1       -0.0606
     10 O          17.1109   40.6954    9.4774 O.2     1  UNL1       -0.3521
     11 N          14.0167   39.0250    9.6662 N.pl3   1  UNL1       -0.1962
     12 H          13.1338   39.4253    9.8382 H       1  UNL1        0.1754
     13 S          14.1779   37.3010    9.6851 S.O2    1  UNL1        0.0761
     14 O          15.3419   36.9026   10.5491 O.2     1  UNL1       -0.1499
     15 O          14.4370   36.8156    8.2870 O.2     1  UNL1       -0.1499
     16 C          12.6923   36.5647   10.2729 C.2     1  UNL1        0.1440
     17 C          11.4968   37.0022    9.8754 C.2     1  UNL1        0.0230
@<TRIPOS>BOND
     1     2     1    1
     2     3     4   ar
     3     5     6   ar
     4     6    11    1
     5     7    10   ar
     6     7     5   ar
     7     8     2   ar
     8     9    10   ar
     9    13    11    1
    10    13    16    1
    11     2     3   ar
    12     4     5   ar
    13     6     9   ar
    14    16    17    2
    15     7     8   ar
    16    13    14    2
    17    13    15    2
    18    11    12    1
@<TRIPOS>MOLECULE
Molport-053-332-522
 17 18 0 0 0
SMALL
GASTEIGER

@<TRIPOS>ATOM
      1 CL         17.2026   44.4173    6.2444 Cl      1  UNL1       -0.0821
      2 C          15.9134   43.3907    6.8440 C.ar    1  UNL1        0.0608
      3 C          14.5982   43.5449    6.3415 C.ar    1  UNL1        0.0117
      4 C          13.5524   42.7282    6.8132 C.ar    1  UNL1        0.0069
      5 C          13.8692   41.7781    7.7810 C.ar    1  UNL1        0.0732
      6 C          13.1340   40.8336    8.4574 C.ar    1  UNL1        0.1889
      7 C          15.1355   41.6272    8.2676 C.ar    1  UNL1        0.1790
      8 C          16.1925   42.4167    7.8242 C.ar    1  UNL1        0.0517
      9 N          13.9503   40.1621    9.3032 N.ar    1  UNL1       -0.0606
     10 O          15.1485   40.6672    9.1620 O.2     1  UNL1       -0.3521
     11 N          11.7337   40.5831    8.3065 N.pl3   1  UNL1       -0.1962
     12 H          11.4211   40.0628    7.5313 H       1  UNL1        0.1754
     13 S          10.5737   41.1699    9.4503 S.O2    1  UNL1        0.0761
     14 O          10.6286   40.3470   10.7072 O.2     1  UNL1       -0.1499
     15 O           9.1966   41.0461    8.8622 O.2     1  UNL1       -0.1499
     16 C          10.8856   42.8640    9.8075 C.2     1  UNL1        0.1440
     17 C           9.9268   43.6610   10.2808 C.2     1  UNL1        0.0230
@<TRIPOS>BOND
     1     2     1    1
     2     3     4   ar
     3     5     6   ar
     4     6    11    1
     5     7    10   ar
     6     7     5   ar
     7     8     2   ar
     8     9    10   ar
     9    13    11    1
    10    13    16    1
    11     2     3   ar
    12     4     5   ar
    13     6     9   ar
    14    16    17    2
    15     7     8   ar
    16    13    14    2
    17    13    15    2
    18    11    12    1
@<TRIPOS>MOLECULE
Molport-053-332-522
 17 18 0 0 0
SMALL
GASTEIGER

@<TRIPOS>ATOM
      1 CL         17.0944   44.5468    6.7113 Cl      1  UNL1       -0.0821
      2 C          16.2310   43.1652    7.3600 C.ar    1  UNL1        0.0608
      3 C          14.9371   42.8520    6.8763 C.ar    1  UNL1        0.0117
      4 C          14.2311   41.7459    7.3874 C.ar    1  UNL1        0.0069
      5 C          14.8566   40.9882    8.3744 C.ar    1  UNL1        0.0732
      6 C          14.4876   39.8726    9.0882 C.ar    1  UNL1        0.1889
      7 C          16.1032   41.2873    8.8431 C.ar    1  UNL1        0.1790
      8 C          16.8291   42.3726    8.3607 C.ar    1  UNL1        0.0517
      9 N          15.4886   39.5413    9.9373 N.ar    1  UNL1       -0.0606
     10 O          16.4454   40.4158    9.7622 O.2     1  UNL1       -0.3521
     11 N          13.2526   39.1607    8.9681 N.pl3   1  UNL1       -0.1962
     12 H          13.2612   38.2439    8.6095 H       1  UNL1        0.1754
     13 S          11.7430   39.8679    9.4364 S.O2    1  UNL1        0.0761
     14 O          11.9846   41.0469   10.3373 O.2     1  UNL1       -0.1499
     15 O          10.9366   38.8505   10.1928 O.2     1  UNL1       -0.1499
     16 C          10.8395   40.3571    8.0084 C.2     1  UNL1        0.1440
     17 C          11.0724   39.8044    6.8172 C.2     1  UNL1        0.0230
@<TRIPOS>BOND
     1     2     1    1
     2     3     4   ar
     3     5     6   ar
     4     6    11    1
     5     7    10   ar
     6     7     5   ar
     7     8     2   ar
     8     9    10   ar
     9    13    11    1
    10    13    16    1
    11     2     3   ar
    12     4     5   ar
    13     6     9   ar
    14    16    17    2
    15     7     8   ar
    16    13    14    2
    17    13    15    2
    18    11    12    1
