@<TRIPOS>MOLECULE
Molport-047-891-987 PubChem-165934009
 22 23 0 0 0
SMALL
GASTEIGER

@<TRIPOS>ATOM
      1 C          13.0593   42.1733    6.2516 C.ar    1  UNL1        0.1398
      2 C          14.8381   43.7453    6.3013 C.ar    1  UNL1        0.1100
      3 C          15.4606   43.0606    7.3480 C.ar    1  UNL1        0.0877
      4 C          14.8432   41.8966    7.8666 C.ar    1  UNL1        0.1488
      5 C          13.6458   41.4577    7.2954 C.ar    1  UNL1        0.0719
      6 N          13.6637   43.2990    5.7849 N.ar    1  UNL1       -0.2282
      7 BR         17.1681   43.7233    7.9094 Br      1  UNL1       -0.0442
      8 C          10.5584   41.6876    6.3574 C.2     1  UNL1        0.4062
      9 O          10.4474   42.1055    7.5425 O.2     1  UNL1       -0.2261
     10 N          11.8263   41.7064    5.6923 N.am    1  UNL1       -0.2349
     11 H          11.8528   41.3682    4.7681 H       1  UNL1        0.1596
     12 O           9.4419   41.1962    5.6672 O.3     1  UNL1       -0.4417
     13 C           9.3521   39.2051    4.2828 C.3     1  UNL1        0.0437
     14 C           9.0453   39.8228    5.6362 C.3     1  UNL1        0.1378
     15 C           7.5637   39.6840    5.9409 C.3     1  UNL1        0.0437
     16 C           9.8242   39.0696    6.6937 C.3     1  UNL1        0.0437
     17 O          15.3650   41.1331    8.9210 O.3     1  UNL1       -0.4785
     18 C          14.8387   39.8866    9.3566 C.3     1  UNL1        0.1659
     19 C          13.5281   40.1097   10.0896 C.3     1  UNL1        0.0435
     20 C          13.6743   39.4760   11.4600 C.3     1  UNL1        0.0038
     21 C          14.8970   38.5909   11.3842 C.3     1  UNL1        0.0038
     22 C          15.7844   39.2353   10.3473 C.3     1  UNL1        0.0435
@<TRIPOS>BOND
     1    13    14    1
     2    14    15    1
     3    14    16    1
     4    14    12    1
     5     8    12    1
     6     8    10   am
     7     2     6   ar
     8     3     4   ar
     9     3     7    1
    10     4    17    1
    11     5     1   ar
    12    18    17    1
    13    18    19    1
    14    19    20    1
    15    20    21    1
    16    21    22    1
    17    22    18    1
    18    10     1    1
    19     8     9    2
    20     1     6   ar
    21     2     3   ar
    22     4     5   ar
    23    10    11    1
@<TRIPOS>MOLECULE
Molport-047-891-987 PubChem-165934009
 22 23 0 0 0
SMALL
GASTEIGER

@<TRIPOS>ATOM
      1 C          12.7795   42.4325    6.6362 C.ar    1  UNL1        0.1398
      2 C          14.7071   43.8111    6.4893 C.ar    1  UNL1        0.1100
      3 C          15.4430   42.9269    7.2822 C.ar    1  UNL1        0.0877
      4 C          14.8088   41.7611    7.7757 C.ar    1  UNL1        0.1488
      5 C          13.4761   41.5216    7.4303 C.ar    1  UNL1        0.0719
      6 N          13.4071   43.5543    6.1910 N.ar    1  UNL1       -0.2282
      7 BR         17.2962   43.3417    7.5342 Br      1  UNL1       -0.0442
      8 C          10.3837   41.7944    7.2316 C.2     1  UNL1        0.4062
      9 O          10.6384   41.6718    8.4610 O.2     1  UNL1       -0.2261
     10 N          11.4113   42.1669    6.3066 N.am    1  UNL1       -0.2349
     11 H          11.1544   42.2477    5.3597 H       1  UNL1        0.1596
     12 O           9.0886   41.5684    6.7458 O.3     1  UNL1       -0.4417
     13 C           8.2209   43.2230    8.2946 C.3     1  UNL1        0.0437
     14 C           7.8958   42.0876    7.3393 C.3     1  UNL1        0.1378
     15 C           7.1427   40.9942    8.0772 C.3     1  UNL1        0.0437
     16 C           7.0034   42.6265    6.2414 C.3     1  UNL1        0.0437
     17 O          15.4389   40.8074    8.5883 O.3     1  UNL1       -0.4785
     18 C          14.7945   39.6758    9.1584 C.3     1  UNL1        0.1659
     19 C          13.6134   40.1260    9.9993 C.3     1  UNL1        0.0435
     20 C          13.8161   39.5531   11.3892 C.3     1  UNL1        0.0038
     21 C          14.8891   38.4973   11.2550 C.3     1  UNL1        0.0038
     22 C          15.7413   38.9490   10.0940 C.3     1  UNL1        0.0435
@<TRIPOS>BOND
     1    13    14    1
     2    14    15    1
     3    14    16    1
     4    14    12    1
     5     8    12    1
     6     8    10   am
     7     2     6   ar
     8     3     4   ar
     9     3     7    1
    10     4    17    1
    11     5     1   ar
    12    18    17    1
    13    18    19    1
    14    19    20    1
    15    20    21    1
    16    21    22    1
    17    22    18    1
    18    10     1    1
    19     8     9    2
    20     1     6   ar
    21     2     3   ar
    22     4     5   ar
    23    10    11    1
@<TRIPOS>MOLECULE
Molport-047-891-987 PubChem-165934009
 22 23 0 0 0
SMALL
GASTEIGER

@<TRIPOS>ATOM
      1 C          13.4925   41.8296    7.7718 C.ar    1  UNL1        0.1398
      2 C          15.0466   43.3997    6.9015 C.ar    1  UNL1        0.1100
      3 C          16.1089   42.7550    7.5402 C.ar    1  UNL1        0.0877
      4 C          15.8389   41.6128    8.3323 C.ar    1  UNL1        0.1488
      5 C          14.5224   41.1539    8.4263 C.ar    1  UNL1        0.0719
      6 N          13.7767   42.9355    7.0326 N.ar    1  UNL1       -0.2282
      7 BR         17.8634   43.4363    7.1834 Br      1  UNL1       -0.0442
      8 C          11.7591   39.9666    7.9338 C.2     1  UNL1        0.4062
      9 O          12.6222   39.0497    7.8589 O.2     1  UNL1       -0.2261
     10 N          12.1510   41.3432    7.8943 N.am    1  UNL1       -0.2349
     11 H          11.4344   42.0154    7.9570 H       1  UNL1        0.1596
     12 O          10.3979   39.6561    8.0572 O.3     1  UNL1       -0.4417
     13 C          10.2455   39.5777    5.6364 C.3     1  UNL1        0.0437
     14 C           9.5017   39.4790    6.9572 C.3     1  UNL1        0.1378
     15 C           8.3887   40.5119    6.9991 C.3     1  UNL1        0.0437
     16 C           8.8807   38.1018    7.0551 C.3     1  UNL1        0.0437
     17 O          16.8182   40.8898    9.0289 O.3     1  UNL1       -0.4785
     18 C          16.5547   39.9929   10.0998 C.3     1  UNL1        0.1659
     19 C          17.8565   39.3937   10.6009 C.3     1  UNL1        0.0435
     20 C          17.7077   37.8860   10.5249 C.3     1  UNL1        0.0038
     21 C          16.2319   37.6195   10.3372 C.3     1  UNL1        0.0038
     22 C          15.7019   38.8355    9.6171 C.3     1  UNL1        0.0435
@<TRIPOS>BOND
     1    13    14    1
     2    14    15    1
     3    14    16    1
     4    14    12    1
     5     8    12    1
     6     8    10   am
     7     2     6   ar
     8     3     4   ar
     9     3     7    1
    10     4    17    1
    11     5     1   ar
    12    18    17    1
    13    18    19    1
    14    19    20    1
    15    20    21    1
    16    21    22    1
    17    22    18    1
    18    10     1    1
    19     8     9    2
    20     1     6   ar
    21     2     3   ar
    22     4     5   ar
    23    10    11    1
@<TRIPOS>MOLECULE
Molport-047-891-987 PubChem-165934009
 22 23 0 0 0
SMALL
GASTEIGER

@<TRIPOS>ATOM
      1 C          12.0734   41.1544    7.0820 C.ar    1  UNL1        0.1398
      2 C          13.6921   42.7367    6.3649 C.ar    1  UNL1        0.1100
      3 C          14.6056   42.2884    7.3221 C.ar    1  UNL1        0.0877
      4 C          14.2228   41.2414    8.1952 C.ar    1  UNL1        0.1488
      5 C          12.9537   40.6745    8.0517 C.ar    1  UNL1        0.0719
      6 N          12.4594   42.1741    6.2685 N.ar    1  UNL1       -0.2282
      7 BR         16.3488   43.0818    7.2803 Br      1  UNL1       -0.0442
      8 C           9.6774   40.7632    7.8617 C.2     1  UNL1        0.4062
      9 O           9.7975   41.5177    8.8655 O.2     1  UNL1       -0.2261
     10 N          10.7749   40.5619    6.9642 N.am    1  UNL1       -0.2349
     11 H          10.6233   39.9627    6.1979 H       1  UNL1        0.1596
     12 O           8.4664   40.1063    7.6043 O.3     1  UNL1       -0.4417
     13 C           6.4470   39.8159    6.2902 C.3     1  UNL1        0.0437
     14 C           7.2706   40.7512    7.1587 C.3     1  UNL1        0.1378
     15 C           7.5986   42.0163    6.3846 C.3     1  UNL1        0.0437
     16 C           6.4451   41.1313    8.3695 C.3     1  UNL1        0.0437
     17 O          15.0468   40.7155    9.2010 O.3     1  UNL1       -0.4785
     18 C          14.9690   39.3867    9.6998 C.3     1  UNL1        0.1659
     19 C          14.0629   39.3466   10.9172 C.3     1  UNL1        0.0435
     20 C          14.8693   38.7384   12.0490 C.3     1  UNL1        0.0038
     21 C          16.0818   38.1050   11.4064 C.3     1  UNL1        0.0038
     22 C          16.3359   38.9185   10.1607 C.3     1  UNL1        0.0435
@<TRIPOS>BOND
     1    13    14    1
     2    14    15    1
     3    14    16    1
     4    14    12    1
     5     8    12    1
     6     8    10   am
     7     2     6   ar
     8     3     4   ar
     9     3     7    1
    10     4    17    1
    11     5     1   ar
    12    18    17    1
    13    18    19    1
    14    19    20    1
    15    20    21    1
    16    21    22    1
    17    22    18    1
    18    10     1    1
    19     8     9    2
    20     1     6   ar
    21     2     3   ar
    22     4     5   ar
    23    10    11    1
@<TRIPOS>MOLECULE
Molport-047-891-987 PubChem-165934009
 22 23 0 0 0
SMALL
GASTEIGER

@<TRIPOS>ATOM
      1 C          12.4302   42.2343    8.5969 C.ar    1  UNL1        0.1398
      2 C          11.6714   40.8459   10.3673 C.ar    1  UNL1        0.1100
      3 C          10.5086   41.6068   10.5124 C.ar    1  UNL1        0.0877
      4 C          10.3163   42.7291    9.6709 C.ar    1  UNL1        0.1488
      5 C          11.2838   43.0214    8.7060 C.ar    1  UNL1        0.0719
      6 N          12.5993   41.1729    9.4307 N.ar    1  UNL1       -0.2282
      7 BR          9.2256   40.9758   11.7875 Br      1  UNL1       -0.0442
      8 C          14.7841   42.1589    7.6195 C.2     1  UNL1        0.4062
      9 O          15.2362   41.4483    8.5587 O.2     1  UNL1       -0.2261
     10 N          13.4106   42.5634    7.6061 N.am    1  UNL1       -0.2349
     11 H          13.1136   43.1170    6.8481 H       1  UNL1        0.1596
     12 O          15.6177   42.5672    6.5695 O.3     1  UNL1       -0.4417
     13 C          17.5165   43.6973    5.5660 C.3     1  UNL1        0.0437
     14 C          16.3637   43.7869    6.5511 C.3     1  UNL1        0.1378
     15 C          16.8951   44.1129    7.9363 C.3     1  UNL1        0.0437
     16 C          15.4465   44.9092    6.1138 C.3     1  UNL1        0.0437
     17 O           9.1979   43.5733    9.7294 O.3     1  UNL1       -0.4785
     18 C           7.9110   43.2501    9.2192 C.3     1  UNL1        0.1659
     19 C           8.0496   42.3275    8.0216 C.3     1  UNL1        0.0435
     20 C           7.3231   42.9901    6.8665 C.3     1  UNL1        0.0038
     21 C           6.4752   44.0827    7.4761 C.3     1  UNL1        0.0038
     22 C           7.2133   44.5022    8.7239 C.3     1  UNL1        0.0435
@<TRIPOS>BOND
     1    13    14    1
     2    14    15    1
     3    14    16    1
     4    14    12    1
     5     8    12    1
     6     8    10   am
     7     2     6   ar
     8     3     4   ar
     9     3     7    1
    10     4    17    1
    11     5     1   ar
    12    18    17    1
    13    18    19    1
    14    19    20    1
    15    20    21    1
    16    21    22    1
    17    22    18    1
    18    10     1    1
    19     8     9    2
    20     1     6   ar
    21     2     3   ar
    22     4     5   ar
    23    10    11    1
@<TRIPOS>MOLECULE
Molport-047-891-987 PubChem-165934009
 22 23 0 0 0
SMALL
GASTEIGER

@<TRIPOS>ATOM
      1 C          11.2324   41.4867    9.3661 C.ar    1  UNL1        0.1398
      2 C          12.8235   40.1110   10.4680 C.ar    1  UNL1        0.1100
      3 C          13.8110   40.4490    9.5393 C.ar    1  UNL1        0.0877
      4 C          13.4816   41.3300    8.4809 C.ar    1  UNL1        0.1488
      5 C          12.1871   41.8523    8.4171 C.ar    1  UNL1        0.0719
      6 N          11.5700   40.6235   10.3618 N.ar    1  UNL1       -0.2282
      7 BR         15.5663   39.7538    9.8642 Br      1  UNL1       -0.0442
      8 C           9.4978   43.3185    9.7360 C.2     1  UNL1        0.4062
      9 O          10.3222   44.0966   10.2893 O.2     1  UNL1       -0.2261
     10 N           9.9103   42.0289    9.2702 N.am    1  UNL1       -0.2349
     11 H           9.2240   41.4646    8.8462 H       1  UNL1        0.1596
     12 O           8.1602   43.7009    9.5659 O.3     1  UNL1       -0.4417
     13 C           7.7427   42.7903    7.3555 C.3     1  UNL1        0.0437
     14 C           7.2094   42.9970    8.7627 C.3     1  UNL1        0.1378
     15 C           5.8907   43.7488    8.7078 C.3     1  UNL1        0.0437
     16 C           6.9609   41.6392    9.3846 C.3     1  UNL1        0.0437
     17 O          14.3823   41.7328    7.4841 O.3     1  UNL1       -0.4785
     18 C          14.7179   43.0831    7.1929 C.3     1  UNL1        0.1659
     19 C          14.1431   43.4765    5.8440 C.3     1  UNL1        0.0435
     20 C          15.2995   43.9771    4.9994 C.3     1  UNL1        0.0038
     21 C          16.4451   44.2147    5.9561 C.3     1  UNL1        0.0038
     22 C          16.2227   43.2381    7.0852 C.3     1  UNL1        0.0435
@<TRIPOS>BOND
     1    13    14    1
     2    14    15    1
     3    14    16    1
     4    14    12    1
     5     8    12    1
     6     8    10   am
     7     2     6   ar
     8     3     4   ar
     9     3     7    1
    10     4    17    1
    11     5     1   ar
    12    18    17    1
    13    18    19    1
    14    19    20    1
    15    20    21    1
    16    21    22    1
    17    22    18    1
    18    10     1    1
    19     8     9    2
    20     1     6   ar
    21     2     3   ar
    22     4     5   ar
    23    10    11    1
@<TRIPOS>MOLECULE
Molport-047-891-987 PubChem-165934009
 22 23 0 0 0
SMALL
GASTEIGER

@<TRIPOS>ATOM
      1 C          11.8272   41.4224    8.4654 C.ar    1  UNL1        0.1398
      2 C          12.8666   39.8691    9.9299 C.ar    1  UNL1        0.1100
      3 C          14.1329   40.2062    9.4453 C.ar    1  UNL1        0.0877
      4 C          14.2369   41.1805    8.4231 C.ar    1  UNL1        0.1488
      5 C          13.0711   41.7907    7.9529 C.ar    1  UNL1        0.0719
      6 N          11.7539   40.4699    9.4338 N.ar    1  UNL1       -0.2282
      7 BR         15.6287   39.3747   10.3061 Br      1  UNL1       -0.0442
      8 C           9.7051   41.4710    7.0527 C.2     1  UNL1        0.4062
      9 O           9.8677   40.2949    6.6264 O.2     1  UNL1       -0.2261
     10 N          10.6479   42.0567    7.9574 N.am    1  UNL1       -0.2349
     11 H          10.4695   42.9774    8.2568 H       1  UNL1        0.1596
     12 O           8.5973   42.2289    6.6490 O.3     1  UNL1       -0.4417
     13 C           7.9793   43.4925    8.6265 C.3     1  UNL1        0.0437
     14 C           7.5063   42.5904    7.4995 C.3     1  UNL1        0.1378
     15 C           6.8413   41.3525    8.0763 C.3     1  UNL1        0.0437
     16 C           6.4823   43.3459    6.6793 C.3     1  UNL1        0.0437
     17 O          15.4488   41.5928    7.8503 O.3     1  UNL1       -0.4785
     18 C          15.9527   42.9214    7.8888 C.3     1  UNL1        0.1659
     19 C          15.9985   43.4950    6.4839 C.3     1  UNL1        0.0435
     20 C          17.4253   43.9470    6.2370 C.3     1  UNL1        0.0038
     21 C          18.0965   43.9744    7.5908 C.3     1  UNL1        0.0038
     22 C          17.3782   42.9271    8.4063 C.3     1  UNL1        0.0435
@<TRIPOS>BOND
     1    13    14    1
     2    14    15    1
     3    14    16    1
     4    14    12    1
     5     8    12    1
     6     8    10   am
     7     2     6   ar
     8     3     4   ar
     9     3     7    1
    10     4    17    1
    11     5     1   ar
    12    18    17    1
    13    18    19    1
    14    19    20    1
    15    20    21    1
    16    21    22    1
    17    22    18    1
    18    10     1    1
    19     8     9    2
    20     1     6   ar
    21     2     3   ar
    22     4     5   ar
    23    10    11    1
@<TRIPOS>MOLECULE
Molport-047-891-987 PubChem-165934009
 22 23 0 0 0
SMALL
GASTEIGER

@<TRIPOS>ATOM
      1 C          12.7409   39.0581    8.2693 C.ar    1  UNL1        0.1398
      2 C          14.5633   38.1216    9.4693 C.ar    1  UNL1        0.1100
      3 C          15.2354   39.3465    9.4735 C.ar    1  UNL1        0.0877
      4 C          14.6334   40.4591    8.8374 C.ar    1  UNL1        0.1488
      5 C          13.3754   40.3002    8.2504 C.ar    1  UNL1        0.0719
      6 N          13.3499   38.0008    8.8708 N.ar    1  UNL1       -0.2282
      7 BR         16.8824   39.4164   10.4495 Br      1  UNL1       -0.0442
      8 C          10.2165   39.4050    8.1782 C.2     1  UNL1        0.4062
      9 O          10.1813   40.0148    9.2820 O.2     1  UNL1       -0.2261
     10 N          11.4566   38.9214    7.6505 N.am    1  UNL1       -0.2349
     11 H          11.4234   38.4531    6.7852 H       1  UNL1        0.1596
     12 O           9.0415   39.1884    7.4455 O.3     1  UNL1       -0.4417
     13 C           9.1009   39.2572    5.0204 C.3     1  UNL1        0.0437
     14 C           8.6485   39.9445    6.2973 C.3     1  UNL1        0.1378
     15 C           9.2231   41.3494    6.3565 C.3     1  UNL1        0.0437
     16 C           7.1381   40.0454    6.2774 C.3     1  UNL1        0.0437
     17 O          15.2145   41.7335    8.7665 O.3     1  UNL1       -0.4785
     18 C          16.1131   42.1590    7.7505 C.3     1  UNL1        0.1659
     19 C          17.4601   42.4969    8.3639 C.3     1  UNL1        0.0435
     20 C          17.7855   43.9221    7.9591 C.3     1  UNL1        0.0038
     21 C          16.8309   44.2681    6.8395 C.3     1  UNL1        0.0038
     22 C          15.6031   43.4291    7.0972 C.3     1  UNL1        0.0435
@<TRIPOS>BOND
     1    13    14    1
     2    14    15    1
     3    14    16    1
     4    14    12    1
     5     8    12    1
     6     8    10   am
     7     2     6   ar
     8     3     4   ar
     9     3     7    1
    10     4    17    1
    11     5     1   ar
    12    18    17    1
    13    18    19    1
    14    19    20    1
    15    20    21    1
    16    21    22    1
    17    22    18    1
    18    10     1    1
    19     8     9    2
    20     1     6   ar
    21     2     3   ar
    22     4     5   ar
    23    10    11    1
@<TRIPOS>MOLECULE
Molport-047-891-987 PubChem-165934009
 22 23 0 0 0
SMALL
GASTEIGER

@<TRIPOS>ATOM
      1 C          10.9021   41.6706    9.6157 C.ar    1  UNL1        0.1398
      2 C          12.5629   40.2315   10.5150 C.ar    1  UNL1        0.1100
      3 C          13.4464   40.5464    9.4795 C.ar    1  UNL1        0.0877
      4 C          13.0261   41.4490    8.4727 C.ar    1  UNL1        0.1488
      5 C          11.7516   42.0144    8.5641 C.ar    1  UNL1        0.0719
      6 N          11.3238   40.7863   10.5594 N.ar    1  UNL1       -0.2282
      7 BR         15.2029   39.7901    9.5924 Br      1  UNL1       -0.0442
      8 C           8.4139   41.7368    9.0627 C.2     1  UNL1        0.4062
      9 O           8.4545   40.6700    8.3907 O.2     1  UNL1       -0.2261
     10 N           9.5971   42.2573    9.6785 N.am    1  UNL1       -0.2349
     11 H           9.5054   43.0929   10.1909 H       1  UNL1        0.1596
     12 O           7.2087   42.4347    9.2202 O.3     1  UNL1       -0.4417
     13 C           7.0832   43.3297    6.9679 C.3     1  UNL1        0.0437
     14 C           6.8203   43.5713    8.4444 C.3     1  UNL1        0.1378
     15 C           7.5637   44.8142    8.9025 C.3     1  UNL1        0.0437
     16 C           5.3365   43.8036    8.6347 C.3     1  UNL1        0.0437
     17 O          13.8176   41.8323    7.3802 O.3     1  UNL1       -0.4785
     18 C          14.3482   43.1360    7.1818 C.3     1  UNL1        0.1659
     19 C          13.9070   43.6708    5.8311 C.3     1  UNL1        0.0435
     20 C          15.1651   44.0481    5.0723 C.3     1  UNL1        0.0038
     21 C          16.2780   44.0781    6.0945 C.3     1  UNL1        0.0038
     22 C          15.8638   43.0872    7.1549 C.3     1  UNL1        0.0435
@<TRIPOS>BOND
     1    13    14    1
     2    14    15    1
     3    14    16    1
     4    14    12    1
     5     8    12    1
     6     8    10   am
     7     2     6   ar
     8     3     4   ar
     9     3     7    1
    10     4    17    1
    11     5     1   ar
    12    18    17    1
    13    18    19    1
    14    19    20    1
    15    20    21    1
    16    21    22    1
    17    22    18    1
    18    10     1    1
    19     8     9    2
    20     1     6   ar
    21     2     3   ar
    22     4     5   ar
    23    10    11    1
@<TRIPOS>MOLECULE
Molport-047-891-987 PubChem-165934009
 22 23 0 0 0
SMALL
GASTEIGER

@<TRIPOS>ATOM
      1 C          14.6098   38.8550    9.7896 C.ar    1  UNL1        0.1398
      2 C          13.0539   39.6413   11.4017 C.ar    1  UNL1        0.1100
      3 C          12.3374   40.3350   10.4232 C.ar    1  UNL1        0.0877
      4 C          12.7910   40.2900    9.0827 C.ar    1  UNL1        0.1488
      5 C          13.9248   39.5313    8.7801 C.ar    1  UNL1        0.0719
      6 N          14.1635   38.9303   11.0724 N.ar    1  UNL1       -0.2282
      7 BR         10.7276   41.2026   10.9941 Br      1  UNL1       -0.0442
      8 C          15.9284   36.6795    9.6167 C.2     1  UNL1        0.4062
      9 O          14.9922   35.9821   10.0948 O.2     1  UNL1       -0.2261
     10 N          15.7751   38.0936    9.4525 N.am    1  UNL1       -0.2349
     11 H          16.5388   38.5865    9.0743 H       1  UNL1        0.1596
     12 O          17.1385   36.0835    9.2361 O.3     1  UNL1       -0.4417
     13 C          17.1989   33.7717    8.5005 C.3     1  UNL1        0.0437
     14 C          17.3033   35.2329    8.0987 C.3     1  UNL1        0.1378
     15 C          18.6417   35.4871    7.4267 C.3     1  UNL1        0.0437
     16 C          16.2030   35.5356    7.1039 C.3     1  UNL1        0.0437
     17 O          12.1637   40.9529    8.0177 O.3     1  UNL1       -0.4785
     18 C          10.9681   40.5176    7.3840 C.3     1  UNL1        0.1659
     19 C          11.2902   39.9471    6.0145 C.3     1  UNL1        0.0435
     20 C          10.4500   40.7105    5.0084 C.3     1  UNL1        0.0038
     21 C           9.4005   41.4451    5.8105 C.3     1  UNL1        0.0038
     22 C          10.0372   41.6930    7.1562 C.3     1  UNL1        0.0435
@<TRIPOS>BOND
     1    13    14    1
     2    14    15    1
     3    14    16    1
     4    14    12    1
     5     8    12    1
     6     8    10   am
     7     2     6   ar
     8     3     4   ar
     9     3     7    1
    10     4    17    1
    11     5     1   ar
    12    18    17    1
    13    18    19    1
    14    19    20    1
    15    20    21    1
    16    21    22    1
    17    22    18    1
    18    10     1    1
    19     8     9    2
    20     1     6   ar
    21     2     3   ar
    22     4     5   ar
    23    10    11    1
