@<TRIPOS>MOLECULE
Molport-020-278-640 MCULE-6882409117 PubChem-110255512
 31 34 0 0 0
SMALL
GASTEIGER

@<TRIPOS>ATOM
      1 C          11.2922   38.5362    9.2898 C.ar    1  UNL1        0.1368
      2 C          13.6448   38.2838    9.4358 C.ar    1  UNL1        0.1414
      3 C          12.2546   36.5316   10.2003 C.ar    1  UNL1        0.0635
      4 C          11.1234   37.2674    9.8545 C.ar    1  UNL1        0.0492
      5 C          12.1072   35.1815   10.8031 C.3     1  UNL1        0.0522
      6 N          12.5500   39.0137    9.0951 N.ar    1  UNL1       -0.2158
      7 N          13.4914   37.0491    9.9875 N.ar    1  UNL1       -0.2348
      8 C          15.0061   38.8522    9.2113 C.3     1  UNL1        0.0785
      9 C          16.0484   38.1220   10.0608 C.3     1  UNL1        0.0110
     10 C          17.4365   38.7148    9.8255 C.3     1  UNL1        0.0220
     11 C          17.4266   40.2059   10.1488 C.3     1  UNL1        0.0938
     12 C          15.0181   40.3494    9.5158 C.3     1  UNL1        0.1012
     13 C          16.6854   42.0237    8.5795 C.2     1  UNL1        0.2683
     14 N          16.3779   40.8629    9.3734 N.am    1  UNL1       -0.2744
     15 O          17.7692   42.6369    8.7846 O.2     1  UNL1       -0.2682
     16 C          15.7783   42.5177    7.5174 C.ar    1  UNL1        0.1538
     17 C          15.3133   44.0193    5.7370 C.ar    1  UNL1        0.1196
     18 C          14.0506   43.4479    5.5796 C.ar    1  UNL1        0.1195
     19 C          14.5054   41.9542    7.3593 C.ar    1  UNL1        0.1226
     20 N          16.1446   43.5445    6.7015 N.ar    1  UNL1       -0.2360
     21 N          13.6736   42.4287    6.3951 N.ar    1  UNL1       -0.2390
     22 N          10.1752   39.3525    8.9098 N.pl3   1  UNL1       -0.2679
     23 H           9.7566   39.8797    9.6281 H       1  UNL1        0.1565
     24 C           6.1800   39.8152    6.1628 C.3     1  UNL1        0.0522
     25 C           7.6590   39.7140    6.2662 C.ar    1  UNL1        0.0634
     26 C           8.4422   39.7532    5.1141 C.ar    1  UNL1        0.0296
     27 C           9.8252   39.6555    5.2526 C.ar    1  UNL1        0.0634
     28 C           9.5985   39.4887    7.6039 C.ar    1  UNL1        0.2211
     29 C          10.6976   39.6930    4.0501 C.3     1  UNL1        0.0522
     30 N          10.3762   39.5257    6.4873 N.ar    1  UNL1       -0.2179
     31 N           8.2475   39.5831    7.4839 N.ar    1  UNL1       -0.2179
@<TRIPOS>BOND
     1    24    25    1
     2    25    31   ar
     3    26    27   ar
     4    28    30   ar
     5    28    22    1
     6     2     6   ar
     7     3     7   ar
     8     4     1   ar
     9     5     3    1
    10     8     2    1
    11     8     9    1
    12     9    10    1
    13    10    11    1
    14    11    14    1
    15    12    14    1
    16    12     8    1
    17    13    16    1
    18    17    20   ar
    19    18    21   ar
    20    19    16   ar
    21    29    27    1
    22    22     1    1
    23    14    13   am
    24    25    26   ar
    25    27    30   ar
    26    28    31   ar
    27     1     6   ar
    28     2     7   ar
    29     3     4   ar
    30    13    15    2
    31    16    20   ar
    32    17    18   ar
    33    19    21   ar
    34    22    23    1
@<TRIPOS>MOLECULE
Molport-020-278-640 MCULE-6882409117 PubChem-110255512
 31 34 0 0 0
SMALL
GASTEIGER

@<TRIPOS>ATOM
      1 C          12.1389   40.5757    7.1605 C.ar    1  UNL1        0.1368
      2 C          12.5832   38.9470    8.8248 C.ar    1  UNL1        0.1414
      3 C          10.4959   38.9126    7.7159 C.ar    1  UNL1        0.0635
      4 C          10.8725   40.0176    6.9558 C.ar    1  UNL1        0.0492
      5 C           9.1567   38.2987    7.5220 C.3     1  UNL1        0.0522
      6 N          12.9633   40.0265    8.0915 N.ar    1  UNL1       -0.2158
      7 N          11.3526   38.3978    8.6346 N.ar    1  UNL1       -0.2348
      8 C          13.5184   38.3829    9.8416 C.3     1  UNL1        0.0785
      9 C          13.4501   39.1796   11.1461 C.3     1  UNL1        0.0110
     10 C          14.4139   38.5955   12.1773 C.3     1  UNL1        0.0220
     11 C          15.8342   38.5952   11.6199 C.3     1  UNL1        0.0938
     12 C          14.9471   38.3596    9.3004 C.3     1  UNL1        0.1012
     13 C          16.8013   36.8262   10.1193 C.2     1  UNL1        0.2683
     14 N          15.8535   37.8863   10.3433 N.am    1  UNL1       -0.2744
     15 O          17.7892   36.7130   10.8964 O.2     1  UNL1       -0.2682
     16 C          16.6503   35.8516    9.0137 C.ar    1  UNL1        0.1538
     17 C          17.2207   33.7824    7.9969 C.ar    1  UNL1        0.1196
     18 C          16.3859   34.0773    6.9191 C.ar    1  UNL1        0.1195
     19 C          15.8203   36.1451    7.9239 C.ar    1  UNL1        0.1226
     20 N          17.3358   34.6750    9.0151 N.ar    1  UNL1       -0.2360
     21 N          15.7049   35.2529    6.9053 N.ar    1  UNL1       -0.2390
     22 N          12.5957   41.7144    6.4169 N.pl3   1  UNL1       -0.2679
     23 H          12.0129   42.0185    5.6840 H       1  UNL1        0.1565
     24 C          16.9809   42.0296    8.5127 C.3     1  UNL1        0.0522
     25 C          15.9352   42.6168    7.6352 C.ar    1  UNL1        0.0634
     26 C          16.1447   43.8574    7.0357 C.ar    1  UNL1        0.0296
     27 C          15.1406   44.3742    6.2197 C.ar    1  UNL1        0.0634
     28 C          13.8036   42.4606    6.6184 C.ar    1  UNL1        0.2211
     29 C          15.3229   45.6937    5.5611 C.3     1  UNL1        0.0522
     30 N          13.9944   43.6714    6.0262 N.ar    1  UNL1       -0.2179
     31 N          14.7750   41.9441    7.4172 N.ar    1  UNL1       -0.2179
@<TRIPOS>BOND
     1    24    25    1
     2    25    31   ar
     3    26    27   ar
     4    28    30   ar
     5    28    22    1
     6     2     6   ar
     7     3     7   ar
     8     4     1   ar
     9     5     3    1
    10     8     2    1
    11     8     9    1
    12     9    10    1
    13    10    11    1
    14    11    14    1
    15    12    14    1
    16    12     8    1
    17    13    16    1
    18    17    20   ar
    19    18    21   ar
    20    19    16   ar
    21    29    27    1
    22    22     1    1
    23    14    13   am
    24    25    26   ar
    25    27    30   ar
    26    28    31   ar
    27     1     6   ar
    28     2     7   ar
    29     3     4   ar
    30    13    15    2
    31    16    20   ar
    32    17    18   ar
    33    19    21   ar
    34    22    23    1
@<TRIPOS>MOLECULE
Molport-020-278-640 MCULE-6882409117 PubChem-110255512
 31 34 0 0 0
SMALL
GASTEIGER

@<TRIPOS>ATOM
      1 C          11.5621   41.8018    6.3971 C.ar    1  UNL1        0.1368
      2 C           9.7526   41.4506    7.8878 C.ar    1  UNL1        0.1414
      3 C           9.7775   40.2983    5.8241 C.ar    1  UNL1        0.0635
      4 C          10.9856   40.9063    5.4900 C.ar    1  UNL1        0.0492
      5 C           9.1401   39.3437    4.8805 C.3     1  UNL1        0.0522
      6 N          10.9303   42.0527    7.5743 N.ar    1  UNL1       -0.2158
      7 N           9.1825   40.5793    7.0115 N.ar    1  UNL1       -0.2348
      8 C           9.0909   41.7629    9.1883 C.3     1  UNL1        0.0785
      9 C           9.8665   41.1491   10.3557 C.3     1  UNL1        0.0110
     10 C           9.1777   41.4721   11.6804 C.3     1  UNL1        0.0220
     11 C           7.7412   40.9582   11.6584 C.3     1  UNL1        0.0938
     12 C           7.6448   41.2693    9.1853 C.3     1  UNL1        0.1012
     13 C           5.7824   42.1748   10.6589 C.2     1  UNL1        0.2683
     14 N           7.0478   41.5078   10.4967 N.am    1  UNL1       -0.2744
     15 O           5.1444   42.0249   11.7373 O.2     1  UNL1       -0.2682
     16 C           5.2072   43.0451    9.6068 C.ar    1  UNL1        0.1538
     17 C           5.4929   44.5694    7.8081 C.ar    1  UNL1        0.1196
     18 C           4.1087   44.6938    7.6884 C.ar    1  UNL1        0.1195
     19 C           3.8181   43.1814    9.4866 C.ar    1  UNL1        0.1226
     20 N           6.0089   43.7527    8.7637 N.ar    1  UNL1       -0.2360
     21 N           3.3014   43.9982    8.5312 N.ar    1  UNL1       -0.2390
     22 N          12.8031   42.4671    6.1220 N.pl3   1  UNL1       -0.2679
     23 H          12.8115   43.0688    5.3428 H       1  UNL1        0.1565
     24 C          15.4275   40.1517    9.5092 C.3     1  UNL1        0.0522
     25 C          15.3108   41.2332    8.4968 C.ar    1  UNL1        0.0634
     26 C          16.3785   42.1023    8.2795 C.ar    1  UNL1        0.0296
     27 C          16.2303   43.1032    7.3217 C.ar    1  UNL1        0.0634
     28 C          14.0327   42.3564    6.8516 C.ar    1  UNL1        0.2211
     29 C          17.3439   44.0513    7.0582 C.3     1  UNL1        0.0522
     30 N          15.0673   43.2126    6.6285 N.ar    1  UNL1       -0.2179
     31 N          14.1633   41.3748    7.7832 N.ar    1  UNL1       -0.2179
@<TRIPOS>BOND
     1    24    25    1
     2    25    31   ar
     3    26    27   ar
     4    28    30   ar
     5    28    22    1
     6     2     6   ar
     7     3     7   ar
     8     4     1   ar
     9     5     3    1
    10     8     2    1
    11     8     9    1
    12     9    10    1
    13    10    11    1
    14    11    14    1
    15    12    14    1
    16    12     8    1
    17    13    16    1
    18    17    20   ar
    19    18    21   ar
    20    19    16   ar
    21    29    27    1
    22    22     1    1
    23    14    13   am
    24    25    26   ar
    25    27    30   ar
    26    28    31   ar
    27     1     6   ar
    28     2     7   ar
    29     3     4   ar
    30    13    15    2
    31    16    20   ar
    32    17    18   ar
    33    19    21   ar
    34    22    23    1
@<TRIPOS>MOLECULE
Molport-020-278-640 MCULE-6882409117 PubChem-110255512
 31 34 0 0 0
SMALL
GASTEIGER

@<TRIPOS>ATOM
      1 C          14.0726   42.4214    6.6987 C.ar    1  UNL1        0.1368
      2 C          15.3697   41.3982    8.3988 C.ar    1  UNL1        0.1414
      3 C          16.2747   43.2328    7.2144 C.ar    1  UNL1        0.0635
      4 C          15.1104   43.3276    6.4555 C.ar    1  UNL1        0.0492
      5 C          17.3947   44.1803    6.9784 C.3     1  UNL1        0.0522
      6 N          14.2286   41.4776    7.6646 N.ar    1  UNL1       -0.2158
      7 N          16.3859   42.2738    8.1688 N.ar    1  UNL1       -0.2348
      8 C          15.4997   40.3403    9.4431 C.3     1  UNL1        0.0785
      9 C          16.9095   40.3316   10.0375 C.3     1  UNL1        0.0110
     10 C          17.0314   39.2427   11.1020 C.3     1  UNL1        0.0220
     11 C          16.6935   37.8836   10.4965 C.3     1  UNL1        0.0938
     12 C          15.1526   38.9699    8.8632 C.3     1  UNL1        0.1012
     13 C          14.3732   36.9610   10.2111 C.2     1  UNL1        0.2683
     14 N          15.3716   37.9434    9.8788 N.am    1  UNL1       -0.2744
     15 O          14.7281   35.8995   10.7940 O.2     1  UNL1       -0.2682
     16 C          12.9373   37.1586    9.9046 C.ar    1  UNL1        0.1538
     17 C          11.2156   38.3235    8.7560 C.ar    1  UNL1        0.1196
     18 C          10.2544   37.5353    9.3890 C.ar    1  UNL1        0.1195
     19 C          11.9662   36.3763   10.5431 C.ar    1  UNL1        0.1226
     20 N          12.5309   38.1198    9.0298 N.ar    1  UNL1       -0.2360
     21 N          10.6506   36.5797   10.2698 N.ar    1  UNL1       -0.2390
     22 N          12.8452   42.4563    5.9567 N.pl3   1  UNL1       -0.2679
     23 H          12.8247   43.0561    5.1763 H       1  UNL1        0.1565
     24 C           8.9914   41.6884    8.8343 C.3     1  UNL1        0.0522
     25 C           9.7706   41.3424    7.6171 C.ar    1  UNL1        0.0634
     26 C           9.3279   40.3267    6.7718 C.ar    1  UNL1        0.0296
     27 C          10.0860   40.0320    5.6406 C.ar    1  UNL1        0.0634
     28 C          11.6446   41.7179    6.2211 C.ar    1  UNL1        0.2211
     29 C           9.6501   38.9565    4.7124 C.3     1  UNL1        0.0522
     30 N          11.2243   40.7283    5.3861 N.ar    1  UNL1       -0.2179
     31 N          10.9147   42.0162    7.3286 N.ar    1  UNL1       -0.2179
@<TRIPOS>BOND
     1    24    25    1
     2    25    31   ar
     3    26    27   ar
     4    28    30   ar
     5    28    22    1
     6     2     6   ar
     7     3     7   ar
     8     4     1   ar
     9     5     3    1
    10     8     2    1
    11     8     9    1
    12     9    10    1
    13    10    11    1
    14    11    14    1
    15    12    14    1
    16    12     8    1
    17    13    16    1
    18    17    20   ar
    19    18    21   ar
    20    19    16   ar
    21    29    27    1
    22    22     1    1
    23    14    13   am
    24    25    26   ar
    25    27    30   ar
    26    28    31   ar
    27     1     6   ar
    28     2     7   ar
    29     3     4   ar
    30    13    15    2
    31    16    20   ar
    32    17    18   ar
    33    19    21   ar
    34    22    23    1
@<TRIPOS>MOLECULE
Molport-020-278-640 MCULE-6882409117 PubChem-110255512
 31 34 0 0 0
SMALL
GASTEIGER

@<TRIPOS>ATOM
      1 C          12.8718   42.0890    6.4868 C.ar    1  UNL1        0.1368
      2 C          14.0134   40.9577    8.2294 C.ar    1  UNL1        0.1414
      3 C          15.1369   42.6661    7.0435 C.ar    1  UNL1        0.0635
      4 C          14.0065   42.8744    6.2565 C.ar    1  UNL1        0.0492
      5 C          16.3577   43.4837    6.8218 C.3     1  UNL1        0.0522
      6 N          12.9038   41.1486    7.4680 N.ar    1  UNL1       -0.2158
      7 N          15.1231   41.7151    8.0122 N.ar    1  UNL1       -0.2348
      8 C          14.0054   39.9078    9.2897 C.3     1  UNL1        0.0785
      9 C          13.0235   40.2684   10.4063 C.3     1  UNL1        0.0110
     10 C          13.0269   39.1887   11.4871 C.3     1  UNL1        0.0220
     11 C          14.4367   39.0155   12.0444 C.3     1  UNL1        0.0938
     12 C          15.4108   39.7064    9.8545 C.3     1  UNL1        0.1012
     13 C          16.2391   37.6007   11.0120 C.2     1  UNL1        0.2683
     14 N          15.3607   38.7394   10.9478 N.am    1  UNL1       -0.2744
     15 O          16.4179   37.0264   12.1214 O.2     1  UNL1       -0.2682
     16 C          16.9321   37.0687    9.8155 C.ar    1  UNL1        0.1538
     17 C          16.9097   35.7701    7.8271 C.ar    1  UNL1        0.1196
     18 C          18.2600   36.0536    7.6220 C.ar    1  UNL1        0.1195
     19 C          18.2903   37.3424    9.6078 C.ar    1  UNL1        0.1226
     20 N          16.2793   36.2801    8.9176 N.ar    1  UNL1       -0.2360
     21 N          18.9213   36.8325    8.5175 N.ar    1  UNL1       -0.2390
     22 N          11.6718   42.2449    5.7161 N.pl3   1  UNL1       -0.2679
     23 H          11.5681   43.1001    5.2396 H       1  UNL1        0.1565
     24 C           7.4384   40.4552    7.3275 C.3     1  UNL1        0.0522
     25 C           8.5487   40.4263    6.3403 C.ar    1  UNL1        0.0634
     26 C           8.5330   39.4978    5.3011 C.ar    1  UNL1        0.0296
     27 C           9.5920   39.5025    4.3957 C.ar    1  UNL1        0.0634
     28 C          10.6061   41.2981    5.5600 C.ar    1  UNL1        0.2211
     29 C           9.6149   38.5294    3.2728 C.3     1  UNL1        0.0522
     30 N          10.6042   40.3969    4.5397 N.ar    1  UNL1       -0.2179
     31 N           9.5791   41.3051    6.4508 N.ar    1  UNL1       -0.2179
@<TRIPOS>BOND
     1    24    25    1
     2    25    31   ar
     3    26    27   ar
     4    28    30   ar
     5    28    22    1
     6     2     6   ar
     7     3     7   ar
     8     4     1   ar
     9     5     3    1
    10     8     2    1
    11     8     9    1
    12     9    10    1
    13    10    11    1
    14    11    14    1
    15    12    14    1
    16    12     8    1
    17    13    16    1
    18    17    20   ar
    19    18    21   ar
    20    19    16   ar
    21    29    27    1
    22    22     1    1
    23    14    13   am
    24    25    26   ar
    25    27    30   ar
    26    28    31   ar
    27     1     6   ar
    28     2     7   ar
    29     3     4   ar
    30    13    15    2
    31    16    20   ar
    32    17    18   ar
    33    19    21   ar
    34    22    23    1
@<TRIPOS>MOLECULE
Molport-020-278-640 MCULE-6882409117 PubChem-110255512
 31 34 0 0 0
SMALL
GASTEIGER

@<TRIPOS>ATOM
      1 C          13.2183   42.1033    6.5268 C.ar    1  UNL1        0.1368
      2 C          14.3570   40.9576    8.2619 C.ar    1  UNL1        0.1414
      3 C          15.4369   42.7585    7.1766 C.ar    1  UNL1        0.0635
      4 C          14.3225   42.9465    6.3620 C.ar    1  UNL1        0.0492
      5 C          16.6253   43.6375    7.0243 C.3     1  UNL1        0.0522
      6 N          13.2634   41.1282    7.4729 N.ar    1  UNL1       -0.2158
      7 N          15.4370   41.7714    8.1084 N.ar    1  UNL1       -0.2348
      8 C          14.3647   39.8685    9.2818 C.3     1  UNL1        0.0785
      9 C          13.3351   40.1428   10.3799 C.3     1  UNL1        0.0110
     10 C          13.3550   39.0236   11.4195 C.3     1  UNL1        0.0220
     11 C          14.7540   38.8909   12.0137 C.3     1  UNL1        0.0938
     12 C          15.7605   39.7071    9.8823 C.3     1  UNL1        0.1012
     13 C          16.6477   37.5967   10.9864 C.2     1  UNL1        0.2683
     14 N          15.7215   38.6976   10.9370 N.am    1  UNL1       -0.2744
     15 O          16.8192   36.9886   12.0788 O.2     1  UNL1       -0.2682
     16 C          17.3989   37.1418    9.7932 C.ar    1  UNL1        0.1538
     17 C          17.5069   35.8867    7.7798 C.ar    1  UNL1        0.1196
     18 C          18.8361   36.2723    7.6060 C.ar    1  UNL1        0.1195
     19 C          18.7367   37.5183    9.6167 C.ar    1  UNL1        0.1226
     20 N          16.8217   36.3264    8.8678 N.ar    1  UNL1       -0.2360
     21 N          19.4226   37.0786    8.5290 N.ar    1  UNL1       -0.2390
     22 N          12.0363   42.2352    5.7243 N.pl3   1  UNL1       -0.2679
     23 H          11.9917   43.0273    5.1414 H       1  UNL1        0.1565
     24 C           9.6271   38.7181    3.3690 C.3     1  UNL1        0.0522
     25 C           9.7395   39.6365    4.5318 C.ar    1  UNL1        0.0634
     26 C           8.7694   39.6159    5.5322 C.ar    1  UNL1        0.0296
     27 C           8.9101   40.4921    6.6063 C.ar    1  UNL1        0.0634
     28 C          10.9125   41.3459    5.6738 C.ar    1  UNL1        0.2211
     29 C           7.8985   40.5030    7.6948 C.3     1  UNL1        0.0522
     30 N           9.9726   41.3368    6.6584 N.ar    1  UNL1       -0.2179
     31 N          10.7880   40.4962    4.6197 N.ar    1  UNL1       -0.2179
@<TRIPOS>BOND
     1    24    25    1
     2    25    31   ar
     3    26    27   ar
     4    28    30   ar
     5    28    22    1
     6     2     6   ar
     7     3     7   ar
     8     4     1   ar
     9     5     3    1
    10     8     2    1
    11     8     9    1
    12     9    10    1
    13    10    11    1
    14    11    14    1
    15    12    14    1
    16    12     8    1
    17    13    16    1
    18    17    20   ar
    19    18    21   ar
    20    19    16   ar
    21    29    27    1
    22    22     1    1
    23    14    13   am
    24    25    26   ar
    25    27    30   ar
    26    28    31   ar
    27     1     6   ar
    28     2     7   ar
    29     3     4   ar
    30    13    15    2
    31    16    20   ar
    32    17    18   ar
    33    19    21   ar
    34    22    23    1
@<TRIPOS>MOLECULE
Molport-020-278-640 MCULE-6882409117 PubChem-110255512
 31 34 0 0 0
SMALL
GASTEIGER

@<TRIPOS>ATOM
      1 C          11.2541   41.0797    8.5365 C.ar    1  UNL1        0.1368
      2 C           8.9862   41.7352    8.7527 C.ar    1  UNL1        0.1414
      3 C          10.2311   41.2542   10.7036 C.ar    1  UNL1        0.0635
      4 C          11.3526   40.9699    9.9277 C.ar    1  UNL1        0.0492
      5 C          10.3046   41.1453   12.1837 C.3     1  UNL1        0.0522
      6 N          10.0719   41.4591    7.9829 N.ar    1  UNL1       -0.2158
      7 N           9.0710   41.6296   10.1069 N.ar    1  UNL1       -0.2348
      8 C           7.7066   42.1402    8.1006 C.3     1  UNL1        0.0785
      9 C           7.9715   42.8178    6.7546 C.3     1  UNL1        0.0110
     10 C           6.6552   43.2311    6.0987 C.3     1  UNL1        0.0220
     11 C           5.8812   44.1618    7.0275 C.3     1  UNL1        0.0938
     12 C           6.9064   43.0631    9.0185 C.3     1  UNL1        0.1012
     13 C           4.3921   43.4191    8.9110 C.2     1  UNL1        0.2683
     14 N           5.7032   43.5141    8.3242 N.am    1  UNL1       -0.2744
     15 O           3.4634   44.1426    8.4563 O.2     1  UNL1       -0.2682
     16 C           4.0899   42.4893   10.0240 C.ar    1  UNL1        0.1538
     17 C           2.7571   41.8714   11.8901 C.ar    1  UNL1        0.1196
     18 C           3.5791   40.7674   12.1168 C.ar    1  UNL1        0.1195
     19 C           4.9162   41.3833   10.2626 C.ar    1  UNL1        0.1226
     20 N           3.0323   42.7063   10.8539 N.ar    1  UNL1       -0.2360
     21 N           4.6415   40.5481   11.2989 N.ar    1  UNL1       -0.2390
     22 N          12.3654   40.8018    7.6727 N.pl3   1  UNL1       -0.2679
     23 H          12.2961   39.9891    7.1213 H       1  UNL1        0.1565
     24 C          16.9981   41.5702    8.9645 C.3     1  UNL1        0.0522
     25 C          15.8171   41.9477    8.1454 C.ar    1  UNL1        0.0634
     26 C          15.8971   43.0218    7.2611 C.ar    1  UNL1        0.0296
     27 C          14.7684   43.3445    6.5106 C.ar    1  UNL1        0.0634
     28 C          13.5655   41.5718    7.5201 C.ar    1  UNL1        0.2211
     29 C          14.8103   44.4823    5.5557 C.3     1  UNL1        0.0522
     30 N          13.6290   42.6185    6.6521 N.ar    1  UNL1       -0.2179
     31 N          14.6593   41.2456    8.2588 N.ar    1  UNL1       -0.2179
@<TRIPOS>BOND
     1    24    25    1
     2    25    31   ar
     3    26    27   ar
     4    28    30   ar
     5    28    22    1
     6     2     6   ar
     7     3     7   ar
     8     4     1   ar
     9     5     3    1
    10     8     2    1
    11     8     9    1
    12     9    10    1
    13    10    11    1
    14    11    14    1
    15    12    14    1
    16    12     8    1
    17    13    16    1
    18    17    20   ar
    19    18    21   ar
    20    19    16   ar
    21    29    27    1
    22    22     1    1
    23    14    13   am
    24    25    26   ar
    25    27    30   ar
    26    28    31   ar
    27     1     6   ar
    28     2     7   ar
    29     3     4   ar
    30    13    15    2
    31    16    20   ar
    32    17    18   ar
    33    19    21   ar
    34    22    23    1
@<TRIPOS>MOLECULE
Molport-020-278-640 MCULE-6882409117 PubChem-110255512
 31 34 0 0 0
SMALL
GASTEIGER

@<TRIPOS>ATOM
      1 C          11.8327   41.7388    6.5199 C.ar    1  UNL1        0.1368
      2 C          13.1796   40.3256    7.8648 C.ar    1  UNL1        0.1414
      3 C          14.1172   42.3132    6.9942 C.ar    1  UNL1        0.0635
      4 C          12.9089   42.6204    6.3726 C.ar    1  UNL1        0.0492
      5 C          15.2786   43.2295    6.8549 C.3     1  UNL1        0.0522
      6 N          11.9952   40.6117    7.2624 N.ar    1  UNL1       -0.2158
      7 N          14.2333   41.1758    7.7261 N.ar    1  UNL1       -0.2348
      8 C          13.3142   39.0723    8.6634 C.3     1  UNL1        0.0785
      9 C          11.9429   38.4530    8.9409 C.3     1  UNL1        0.0110
     10 C          12.0932   37.1735    9.7618 C.3     1  UNL1        0.0220
     11 C          12.8219   37.4762   11.0677 C.3     1  UNL1        0.0938
     12 C          14.0540   39.3479    9.9717 C.3     1  UNL1        0.1012
     13 C          15.3169   37.6149   11.3360 C.2     1  UNL1        0.2683
     14 N          14.0954   38.1271   10.7723 N.am    1  UNL1       -0.2744
     15 O          15.2538   36.8049   12.3017 O.2     1  UNL1       -0.2682
     16 C          16.6495   37.9953   10.8122 C.ar    1  UNL1        0.1538
     17 C          18.9204   37.4594   10.3691 C.ar    1  UNL1        0.1196
     18 C          19.1317   38.7462    9.8740 C.ar    1  UNL1        0.1195
     19 C          16.8710   39.2886   10.3215 C.ar    1  UNL1        0.1226
     20 N          17.6886   37.1154   10.8284 N.ar    1  UNL1       -0.2360
     21 N          18.1027   39.6333    9.8622 N.ar    1  UNL1       -0.2390
     22 N          10.5588   41.9873    5.9085 N.pl3   1  UNL1       -0.2679
     23 H          10.5781   42.3395    4.9893 H       1  UNL1        0.1565
     24 C           7.2498   43.2489    9.2521 C.3     1  UNL1        0.0522
     25 C           7.6504   42.3926    8.1056 C.ar    1  UNL1        0.0634
     26 C           6.7735   41.4250    7.6189 C.ar    1  UNL1        0.0296
     27 C           7.1857   40.6421    6.5426 C.ar    1  UNL1        0.0634
     28 C           9.2608   41.7817    6.4822 C.ar    1  UNL1        0.2211
     29 C           6.2818   39.5988    5.9923 C.3     1  UNL1        0.0522
     30 N           8.4146   40.8326    5.9960 N.ar    1  UNL1       -0.2179
     31 N           8.8717   42.5530    7.5320 N.ar    1  UNL1       -0.2179
@<TRIPOS>BOND
     1    24    25    1
     2    25    31   ar
     3    26    27   ar
     4    28    30   ar
     5    28    22    1
     6     2     6   ar
     7     3     7   ar
     8     4     1   ar
     9     5     3    1
    10     8     2    1
    11     8     9    1
    12     9    10    1
    13    10    11    1
    14    11    14    1
    15    12    14    1
    16    12     8    1
    17    13    16    1
    18    17    20   ar
    19    18    21   ar
    20    19    16   ar
    21    29    27    1
    22    22     1    1
    23    14    13   am
    24    25    26   ar
    25    27    30   ar
    26    28    31   ar
    27     1     6   ar
    28     2     7   ar
    29     3     4   ar
    30    13    15    2
    31    16    20   ar
    32    17    18   ar
    33    19    21   ar
    34    22    23    1
@<TRIPOS>MOLECULE
Molport-020-278-640 MCULE-6882409117 PubChem-110255512
 31 34 0 0 0
SMALL
GASTEIGER

@<TRIPOS>ATOM
      1 C          15.0683   41.7210    8.0461 C.ar    1  UNL1        0.1368
      2 C          12.9623   41.5141    6.9775 C.ar    1  UNL1        0.1414
      3 C          14.5015   43.1191    6.1759 C.ar    1  UNL1        0.0635
      4 C          15.4191   42.7387    7.1526 C.ar    1  UNL1        0.0492
      5 C          14.8450   44.1979    5.2135 C.3     1  UNL1        0.0522
      6 N          13.8470   41.1339    7.9368 N.ar    1  UNL1       -0.2158
      7 N          13.2932   42.5045    6.1046 N.ar    1  UNL1       -0.2348
      8 C          11.6298   40.8471    6.9006 C.3     1  UNL1        0.0785
      9 C          11.3474   40.3559    5.4794 C.3     1  UNL1        0.0110
     10 C           9.9797   39.6786    5.4124 C.3     1  UNL1        0.0220
     11 C           8.8959   40.6491    5.8724 C.3     1  UNL1        0.0938
     12 C          10.5281   41.7962    7.3699 C.3     1  UNL1        0.1012
     13 C           8.2590   41.0818    8.2648 C.2     1  UNL1        0.2683
     14 N           9.2282   41.1515    7.2027 N.am    1  UNL1       -0.2744
     15 O           7.0492   40.8664    7.9772 O.2     1  UNL1       -0.2682
     16 C           8.6345   41.2405    9.6891 C.ar    1  UNL1        0.1538
     17 C          10.2003   40.9580   11.4523 C.ar    1  UNL1        0.1196
     18 C           9.2885   41.5049   12.3551 C.ar    1  UNL1        0.1195
     19 C           7.7205   41.7811   10.6029 C.ar    1  UNL1        0.1226
     20 N           9.8523   40.8358   10.1444 N.ar    1  UNL1       -0.2360
     21 N           8.0679   41.9034   11.9111 N.ar    1  UNL1       -0.2390
     22 N          15.9599   41.2769    9.0787 N.pl3   1  UNL1       -0.2679
     23 H          16.6111   41.9386    9.4063 H       1  UNL1        0.1565
     24 C          18.5622   37.3139   10.1939 C.3     1  UNL1        0.0522
     25 C          17.2735   38.0529   10.2322 C.ar    1  UNL1        0.0634
     26 C          16.1614   37.4826   10.8487 C.ar    1  UNL1        0.0296
     27 C          14.9713   38.2069   10.8640 C.ar    1  UNL1        0.0634
     28 C          16.0117   39.9800    9.6885 C.ar    1  UNL1        0.2211
     29 C          13.7613   37.6360   11.5108 C.3     1  UNL1        0.0522
     30 N          14.9171   39.4355   10.2872 N.ar    1  UNL1       -0.2179
     31 N          17.1797   39.2845    9.6661 N.ar    1  UNL1       -0.2179
@<TRIPOS>BOND
     1    24    25    1
     2    25    31   ar
     3    26    27   ar
     4    28    30   ar
     5    28    22    1
     6     2     6   ar
     7     3     7   ar
     8     4     1   ar
     9     5     3    1
    10     8     2    1
    11     8     9    1
    12     9    10    1
    13    10    11    1
    14    11    14    1
    15    12    14    1
    16    12     8    1
    17    13    16    1
    18    17    20   ar
    19    18    21   ar
    20    19    16   ar
    21    29    27    1
    22    22     1    1
    23    14    13   am
    24    25    26   ar
    25    27    30   ar
    26    28    31   ar
    27     1     6   ar
    28     2     7   ar
    29     3     4   ar
    30    13    15    2
    31    16    20   ar
    32    17    18   ar
    33    19    21   ar
    34    22    23    1
@<TRIPOS>MOLECULE
Molport-020-278-640 MCULE-6882409117 PubChem-110255512
 31 34 0 0 0
SMALL
GASTEIGER

@<TRIPOS>ATOM
      1 C          11.3104   40.8787    8.8065 C.ar    1  UNL1        0.1368
      2 C           9.0615   41.6194    8.9237 C.ar    1  UNL1        0.1414
      3 C          10.2299   41.1812   10.9313 C.ar    1  UNL1        0.0635
      4 C          11.3634   40.8258   10.2036 C.ar    1  UNL1        0.0492
      5 C          10.2552   41.1339   12.4163 C.3     1  UNL1        0.0522
      6 N          10.1594   41.2737    8.2007 N.ar    1  UNL1       -0.2158
      7 N           9.1021   41.5696   10.2832 N.ar    1  UNL1       -0.2348
      8 C           7.8170   42.0388    8.2153 C.3     1  UNL1        0.0785
      9 C           8.1458   42.6493    6.8514 C.3     1  UNL1        0.0110
     10 C           6.8650   43.0780    6.1377 C.3     1  UNL1        0.0220
     11 C           6.0963   44.0730    7.0022 C.3     1  UNL1        0.0938
     12 C           7.0222   43.0263    9.0684 C.3     1  UNL1        0.1012
     13 C           4.5262   43.4615    8.8669 C.2     1  UNL1        0.2683
     14 N           5.8569   43.4874    8.3184 N.am    1  UNL1       -0.2744
     15 O           3.6373   44.1957    8.3536 O.2     1  UNL1       -0.2682
     16 C           4.1584   42.5906   10.0076 C.ar    1  UNL1        0.1538
     17 C           2.5971   41.9112   11.6633 C.ar    1  UNL1        0.1196
     18 C           3.5185   40.9889   12.1595 C.ar    1  UNL1        0.1195
     19 C           5.0820   41.6681   10.5165 C.ar    1  UNL1        0.1226
     20 N           2.9383   42.6908   10.6038 N.ar    1  UNL1       -0.2360
     21 N           4.7414   40.8884   11.5761 N.ar    1  UNL1       -0.2390
     22 N          12.4366   40.5263    7.9905 N.pl3   1  UNL1       -0.2679
     23 H          12.4044   39.6402    7.5627 H       1  UNL1        0.1565
     24 C          14.5637   44.0489    5.3851 C.3     1  UNL1        0.0522
     25 C          14.6403   43.0281    6.4623 C.ar    1  UNL1        0.0634
     26 C          15.8222   42.8618    7.1818 C.ar    1  UNL1        0.0296
     27 C          15.8543   41.8943    8.1839 C.ar    1  UNL1        0.0634
     28 C          13.6038   41.3165    7.7264 C.ar    1  UNL1        0.2211
     29 C          17.0944   41.6841    8.9754 C.3     1  UNL1        0.0522
     30 N          14.7515   41.1429    8.4375 N.ar    1  UNL1       -0.2179
     31 N          13.5581   42.2569    6.7456 N.ar    1  UNL1       -0.2179
@<TRIPOS>BOND
     1    24    25    1
     2    25    31   ar
     3    26    27   ar
     4    28    30   ar
     5    28    22    1
     6     2     6   ar
     7     3     7   ar
     8     4     1   ar
     9     5     3    1
    10     8     2    1
    11     8     9    1
    12     9    10    1
    13    10    11    1
    14    11    14    1
    15    12    14    1
    16    12     8    1
    17    13    16    1
    18    17    20   ar
    19    18    21   ar
    20    19    16   ar
    21    29    27    1
    22    22     1    1
    23    14    13   am
    24    25    26   ar
    25    27    30   ar
    26    28    31   ar
    27     1     6   ar
    28     2     7   ar
    29     3     4   ar
    30    13    15    2
    31    16    20   ar
    32    17    18   ar
    33    19    21   ar
    34    22    23    1
