@<TRIPOS>MOLECULE
MolPort-035-706-969 CSSS03437789224 MCULE-8319903994 PubChem-91938294
 25 27 0 0 0
SMALL
GASTEIGER

@<TRIPOS>ATOM
      1 C          15.0050   44.0354    6.3377 C.3     1  UNL1        0.2880
      2 C          15.0044   45.5566    6.2834 C.3     1  UNL1        0.0650
      3 C          13.2019   42.7567    7.5403 C.ar    1  UNL1        0.1542
      4 C          12.6266   42.3983    8.7630 C.ar    1  UNL1        0.0529
      5 C          11.5477   41.5082    8.8066 C.ar    1  UNL1        0.0534
      6 C          11.0444   40.9802    7.6074 C.ar    1  UNL1        0.0161
      7 C          11.6150   41.3384    6.3827 C.ar    1  UNL1        0.0190
      8 C          12.6934   42.2254    6.3511 C.ar    1  UNL1        0.0850
      9 C          14.3841   43.4995    5.0632 C.2     1  UNL1        0.2732
     10 O          14.2803   43.6477    7.5161 O.3     1  UNL1       -0.4618
     11 O          14.8594   43.8281    3.9428 O.2     1  UNL1       -0.2704
     12 N          13.2731   42.6045    5.1086 N.am    1  UNL1       -0.2783
     13 H          12.9035   42.2452    4.2699 H       1  UNL1        0.1551
     14 C           9.8551   41.7848   10.7139 C.2     1  UNL1        0.2256
     15 O           9.2026   42.6943   10.1340 O.2     1  UNL1       -0.2748
     16 N          10.9857   41.1680   10.0812 N.am    1  UNL1       -0.2838
     17 H          11.4209   40.4348   10.5735 H       1  UNL1        0.1549
     18 C           9.4122   41.3045   12.0577 C.3     1  UNL1        0.0768
     19 C           7.9374   40.9465   12.0194 C.3     1  UNL1        0.0096
     20 C           8.3783   42.2556   12.6329 C.3     1  UNL1        0.0096
     21 C          16.4164   43.5262    6.4498 C.2     1  UNL1        0.3623
     22 O          17.3208   43.9887    5.6992 O.2     1  UNL1       -0.2457
     23 O          16.7042   42.4880    7.3426 O.3     1  UNL1       -0.4458
     24 C          17.4336   43.9350    9.1332 C.3     1  UNL1        0.0513
     25 C          17.6466   42.6233    8.3999 C.3     1  UNL1        0.2087
@<TRIPOS>BOND
     1    24    25    1
     2    25    23    1
     3    21    23    1
     4     1    21    1
     5     1     2    1
     6     1    10    1
     7     1     9    1
     8     3    10    1
     9     4     5   ar
    10     5    16    1
    11    18    14    1
    12    18    19    1
    13    19    20    1
    14    20    18    1
    15     6     7   ar
    16     8    12    1
    17     8     3   ar
    18    16    14   am
    19    12     9   am
    20    21    22    2
    21     3     4   ar
    22     5     6   ar
    23    14    15    2
    24     7     8   ar
    25     9    11    2
    26    16    17    1
    27    12    13    1
@<TRIPOS>MOLECULE
MolPort-035-706-969 CSSS03437789224 MCULE-8319903994 PubChem-91938294
 25 27 0 0 0
SMALL
GASTEIGER

@<TRIPOS>ATOM
      1 C           8.3577   42.2606    9.0267 C.3     1  UNL1        0.2880
      2 C           8.0766   41.7270   10.4243 C.3     1  UNL1        0.0650
      3 C          10.6819   42.2767    8.0623 C.ar    1  UNL1        0.1542
      4 C          11.9670   42.8263    8.0932 C.ar    1  UNL1        0.0529
      5 C          12.9336   42.4250    7.1643 C.ar    1  UNL1        0.0534
      6 C          12.6011   41.4598    6.2010 C.ar    1  UNL1        0.0161
      7 C          11.3182   40.9058    6.1688 C.ar    1  UNL1        0.0190
      8 C          10.3603   41.3156    7.0990 C.ar    1  UNL1        0.0850
      9 C           8.0634   41.1690    8.0173 C.2     1  UNL1        0.2732
     10 O           9.7283   42.6903    8.9988 O.3     1  UNL1       -0.4618
     11 O           6.9240   40.6306    7.9837 O.2     1  UNL1       -0.2704
     12 N           9.0557   40.7491    7.0811 N.am    1  UNL1       -0.2783
     13 H           8.8344   40.0589    6.4147 H       1  UNL1        0.1551
     14 C          14.7415   44.0870    6.4236 C.2     1  UNL1        0.2256
     15 O          14.0047   44.6619    5.5776 O.2     1  UNL1       -0.2748
     16 N          14.2400   43.0123    7.2315 N.am    1  UNL1       -0.2838
     17 H          14.8573   42.6393    7.9017 H       1  UNL1        0.1549
     18 C          16.1418   44.5672    6.6261 C.3     1  UNL1        0.0768
     19 C          17.0822   43.8315    5.6886 C.3     1  UNL1        0.0096
     20 C          17.0083   43.4339    7.1449 C.3     1  UNL1        0.0096
     21 C           7.4746   43.4452    8.7422 C.2     1  UNL1        0.3623
     22 O           7.8253   44.6022    9.1078 O.2     1  UNL1       -0.2457
     23 O           6.2314   43.2456    8.1322 O.3     1  UNL1       -0.4458
     24 C           4.2604   44.6225    7.9061 C.3     1  UNL1        0.0513
     25 C           5.0038   43.6067    8.7541 C.3     1  UNL1        0.2087
@<TRIPOS>BOND
     1    24    25    1
     2    25    23    1
     3    21    23    1
     4     1    21    1
     5     1     2    1
     6     1    10    1
     7     1     9    1
     8     3    10    1
     9     4     5   ar
    10     5    16    1
    11    18    14    1
    12    18    19    1
    13    19    20    1
    14    20    18    1
    15     6     7   ar
    16     8    12    1
    17     8     3   ar
    18    16    14   am
    19    12     9   am
    20    21    22    2
    21     3     4   ar
    22     5     6   ar
    23    14    15    2
    24     7     8   ar
    25     9    11    2
    26    16    17    1
    27    12    13    1
@<TRIPOS>MOLECULE
MolPort-035-706-969 CSSS03437789224 MCULE-8319903994 PubChem-91938294
 25 27 0 0 0
SMALL
GASTEIGER

@<TRIPOS>ATOM
      1 C           8.9185   42.6165    9.8083 C.3     1  UNL1        0.2880
      2 C           8.5350   42.7406   11.2762 C.3     1  UNL1        0.0650
      3 C          11.1724   41.7489    9.1015 C.ar    1  UNL1        0.1542
      4 C          12.5505   41.9717    9.0263 C.ar    1  UNL1        0.0529
      5 C          13.3873   41.0413    8.4000 C.ar    1  UNL1        0.0534
      6 C          12.8290   39.8769    7.8500 C.ar    1  UNL1        0.0161
      7 C          11.4520   39.6491    7.9259 C.ar    1  UNL1        0.0190
      8 C          10.6257   40.5858    8.5508 C.ar    1  UNL1        0.0850
      9 C           8.3674   41.3126    9.2667 C.2     1  UNL1        0.2732
     10 O          10.3512   42.6905    9.7312 O.3     1  UNL1       -0.4618
     11 O           7.1336   41.0668    9.3470 O.2     1  UNL1       -0.2704
     12 N           9.2248   40.3570    8.6428 N.am    1  UNL1       -0.2783
     13 H           8.8418   39.5295    8.2715 H       1  UNL1        0.1551
     14 C          15.4417   42.3722    7.6334 C.2     1  UNL1        0.2256
     15 O          14.7703   43.2349    7.0056 O.2     1  UNL1       -0.2748
     16 N          14.7953   41.3073    8.3457 N.am    1  UNL1       -0.2838
     17 H          15.3794   40.6957    8.8497 H       1  UNL1        0.1549
     18 C          16.9304   42.4910    7.6811 C.3     1  UNL1        0.0768
     19 C          17.3363   43.4876    8.7519 C.3     1  UNL1        0.0096
     20 C          17.3504   43.8983    7.2973 C.3     1  UNL1        0.0096
     21 C           8.3333   43.7609    9.0262 C.2     1  UNL1        0.3623
     22 O           8.1301   44.8751    9.5852 O.2     1  UNL1       -0.2457
     23 O           7.9518   43.5604    7.6951 O.3     1  UNL1       -0.4458
     24 C           6.3734   43.0949    5.9276 C.3     1  UNL1        0.0513
     25 C           6.6405   43.8430    7.2209 C.3     1  UNL1        0.2087
@<TRIPOS>BOND
     1    24    25    1
     2    25    23    1
     3    21    23    1
     4     1    21    1
     5     1     2    1
     6     1    10    1
     7     1     9    1
     8     3    10    1
     9     4     5   ar
    10     5    16    1
    11    18    14    1
    12    18    19    1
    13    19    20    1
    14    20    18    1
    15     6     7   ar
    16     8    12    1
    17     8     3   ar
    18    16    14   am
    19    12     9   am
    20    21    22    2
    21     3     4   ar
    22     5     6   ar
    23    14    15    2
    24     7     8   ar
    25     9    11    2
    26    16    17    1
    27    12    13    1
@<TRIPOS>MOLECULE
MolPort-035-706-969 CSSS03437789224 MCULE-8319903994 PubChem-91938294
 25 27 0 0 0
SMALL
GASTEIGER

@<TRIPOS>ATOM
      1 C          14.4148   37.5060   10.9489 C.3     1  UNL1        0.2880
      2 C          14.1055   36.4191   11.9687 C.3     1  UNL1        0.0650
      3 C          12.6189   38.5002    9.4933 C.ar    1  UNL1        0.1542
      4 C          11.7283   38.3193    8.4309 C.ar    1  UNL1        0.0529
      5 C          10.9279   39.3778    7.9869 C.ar    1  UNL1        0.0534
      6 C          11.0249   40.6254    8.6227 C.ar    1  UNL1        0.0161
      7 C          11.9120   40.8093    9.6871 C.ar    1  UNL1        0.0190
      8 C          12.7082   39.7467   10.1203 C.ar    1  UNL1        0.0850
      9 C          14.4346   38.8476   11.6538 C.2     1  UNL1        0.2732
     10 O          13.4115   37.4305    9.9233 O.3     1  UNL1       -0.4618
     11 O          15.2036   39.0339   12.6352 O.2     1  UNL1       -0.2704
     12 N          13.6055   39.9215   11.2101 N.am    1  UNL1       -0.2783
     13 H          13.6554   40.7937   11.6639 H       1  UNL1        0.1551
     14 C          10.1918   39.5876    5.5388 C.2     1  UNL1        0.2256
     15 O          11.2326   40.1996    5.1762 O.2     1  UNL1       -0.2748
     16 N          10.0265   39.1497    6.8953 N.am    1  UNL1       -0.2838
     17 H           9.2092   38.6396    7.0975 H       1  UNL1        0.1549
     18 C           9.1384   39.2661    4.5291 C.3     1  UNL1        0.0768
     19 C           9.5261   38.0188    3.7555 C.3     1  UNL1        0.0096
     20 C           9.7112   39.3813    3.1280 C.3     1  UNL1        0.0096
     21 C          15.7616   37.2573   10.3258 C.2     1  UNL1        0.3623
     22 O          16.7880   37.1460   11.0533 O.2     1  UNL1       -0.2457
     23 O          15.8783   37.2201    8.9321 O.3     1  UNL1       -0.4458
     24 C          15.4520   34.8623    8.6306 C.3     1  UNL1        0.0513
     25 C          16.2964   36.0571    8.2270 C.3     1  UNL1        0.2087
@<TRIPOS>BOND
     1    24    25    1
     2    25    23    1
     3    21    23    1
     4     1    21    1
     5     1     2    1
     6     1    10    1
     7     1     9    1
     8     3    10    1
     9     4     5   ar
    10     5    16    1
    11    18    14    1
    12    18    19    1
    13    19    20    1
    14    20    18    1
    15     6     7   ar
    16     8    12    1
    17     8     3   ar
    18    16    14   am
    19    12     9   am
    20    21    22    2
    21     3     4   ar
    22     5     6   ar
    23    14    15    2
    24     7     8   ar
    25     9    11    2
    26    16    17    1
    27    12    13    1
@<TRIPOS>MOLECULE
MolPort-035-706-969 CSSS03437789224 MCULE-8319903994 PubChem-91938294
 25 27 0 0 0
SMALL
GASTEIGER

@<TRIPOS>ATOM
      1 C           8.9315   40.6364    7.5297 C.3     1  UNL1        0.2880
      2 C           8.5055   39.1751    7.5364 C.3     1  UNL1        0.0650
      3 C          11.3501   41.3056    7.3430 C.ar    1  UNL1        0.1542
      4 C          12.6083   41.3598    7.9500 C.ar    1  UNL1        0.0529
      5 C          13.6856   41.9705    7.2984 C.ar    1  UNL1        0.0534
      6 C          13.4916   42.5261    6.0241 C.ar    1  UNL1        0.0161
      7 C          12.2359   42.4712    5.4126 C.ar    1  UNL1        0.0190
      8 C          11.1669   41.8617    6.0733 C.ar    1  UNL1        0.0850
      9 C           8.7841   41.1831    6.1239 C.2     1  UNL1        0.2732
     10 O          10.2845   40.6913    8.0097 O.3     1  UNL1       -0.4618
     11 O           7.6706   41.1216    5.5360 O.2     1  UNL1       -0.2704
     12 N           9.8882   41.7911    5.4540 N.am    1  UNL1       -0.2783
     13 H           9.7633   42.1661    4.5523 H       1  UNL1        0.1551
     14 C          16.1320   42.7084    7.5216 C.2     1  UNL1        0.2256
     15 O          16.1083   43.4368    6.4930 O.2     1  UNL1       -0.2748
     16 N          14.9598   42.0034    7.9553 N.am    1  UNL1       -0.2838
     17 H          15.0386   41.4887    8.7908 H       1  UNL1        0.1549
     18 C          17.3844   42.6204    8.3317 C.3     1  UNL1        0.0768
     19 C          17.5260   43.8560    9.2023 C.3     1  UNL1        0.0096
     20 C          18.3382   43.7322    7.9336 C.3     1  UNL1        0.0096
     21 C           8.0564   41.4306    8.4611 C.2     1  UNL1        0.3623
     22 O           7.8088   41.0005    9.6225 O.2     1  UNL1       -0.2457
     23 O           7.4634   42.6135    8.0064 O.3     1  UNL1       -0.4458
     24 C           5.8752   44.4324    7.9809 C.3     1  UNL1        0.0513
     25 C           6.1274   42.9778    8.3330 C.3     1  UNL1        0.2087
@<TRIPOS>BOND
     1    24    25    1
     2    25    23    1
     3    21    23    1
     4     1    21    1
     5     1     2    1
     6     1    10    1
     7     1     9    1
     8     3    10    1
     9     4     5   ar
    10     5    16    1
    11    18    14    1
    12    18    19    1
    13    19    20    1
    14    20    18    1
    15     6     7   ar
    16     8    12    1
    17     8     3   ar
    18    16    14   am
    19    12     9   am
    20    21    22    2
    21     3     4   ar
    22     5     6   ar
    23    14    15    2
    24     7     8   ar
    25     9    11    2
    26    16    17    1
    27    12    13    1
@<TRIPOS>MOLECULE
MolPort-035-706-969 CSSS03437789224 MCULE-8319903994 PubChem-91938294
 25 27 0 0 0
SMALL
GASTEIGER

@<TRIPOS>ATOM
      1 C          14.8018   38.4577   10.5553 C.3     1  UNL1        0.2880
      2 C          16.0178   39.3545   10.7404 C.3     1  UNL1        0.0650
      3 C          12.5265   39.4062   10.0501 C.ar    1  UNL1        0.1542
      4 C          11.4214   40.1279   10.5112 C.ar    1  UNL1        0.0529
      5 C          10.2989   40.3065    9.6949 C.ar    1  UNL1        0.0534
      6 C          10.2945   39.7563    8.4037 C.ar    1  UNL1        0.0161
      7 C          11.3986   39.0368    7.9380 C.ar    1  UNL1        0.0190
      8 C          12.5126   38.8622    8.7622 C.ar    1  UNL1        0.0850
      9 C          14.7847   37.9439    9.1296 C.2     1  UNL1        0.2732
     10 O          13.6398   39.2375   10.8804 O.3     1  UNL1       -0.4618
     11 O          15.7780   37.3164    8.6726 O.2     1  UNL1       -0.2704
     12 N          13.6454   38.1412    8.2926 N.am    1  UNL1       -0.2783
     13 H          13.6435   37.7738    7.3793 H       1  UNL1        0.1551
     14 C           7.9547   41.3338    9.5258 C.2     1  UNL1        0.2256
     15 O           7.7271   40.8685    8.3765 O.2     1  UNL1       -0.2748
     16 N           9.1871   41.0544   10.2056 N.am    1  UNL1       -0.2838
     17 H           9.2790   41.4137   11.1176 H       1  UNL1        0.1549
     18 C           6.9036   42.1438   10.2126 C.3     1  UNL1        0.0768
     19 C           6.2145   41.3050   11.2738 C.3     1  UNL1        0.0096
     20 C           5.5334   41.5472    9.9464 C.3     1  UNL1        0.0096
     21 C          14.8778   37.2884   11.4992 C.2     1  UNL1        0.3623
     22 O          15.8255   37.2020   12.3297 O.2     1  UNL1       -0.2457
     23 O          13.9302   36.2636   11.4023 O.3     1  UNL1       -0.4458
     24 C          11.6363   36.0059   10.6928 C.3     1  UNL1        0.0513
     25 C          13.0898   36.0994   10.2661 C.3     1  UNL1        0.2087
@<TRIPOS>BOND
     1    24    25    1
     2    25    23    1
     3    21    23    1
     4     1    21    1
     5     1     2    1
     6     1    10    1
     7     1     9    1
     8     3    10    1
     9     4     5   ar
    10     5    16    1
    11    18    14    1
    12    18    19    1
    13    19    20    1
    14    20    18    1
    15     6     7   ar
    16     8    12    1
    17     8     3   ar
    18    16    14   am
    19    12     9   am
    20    21    22    2
    21     3     4   ar
    22     5     6   ar
    23    14    15    2
    24     7     8   ar
    25     9    11    2
    26    16    17    1
    27    12    13    1
@<TRIPOS>MOLECULE
MolPort-035-706-969 CSSS03437789224 MCULE-8319903994 PubChem-91938294
 25 27 0 0 0
SMALL
GASTEIGER

@<TRIPOS>ATOM
      1 C           7.6643   42.1465    9.6652 C.3     1  UNL1        0.2880
      2 C           7.0993   43.5360    9.9239 C.3     1  UNL1        0.0650
      3 C          10.1295   41.7640    9.3356 C.ar    1  UNL1        0.1542
      4 C          11.2491   41.9321    8.5153 C.ar    1  UNL1        0.0529
      5 C          12.4863   41.3911    8.8825 C.ar    1  UNL1        0.0534
      6 C          12.5940   40.6796   10.0876 C.ar    1  UNL1        0.0161
      7 C          11.4777   40.5120   10.9118 C.ar    1  UNL1        0.0190
      8 C          10.2470   41.0538   10.5343 C.ar    1  UNL1        0.0850
      9 C           7.8416   41.4351   10.9916 C.2     1  UNL1        0.2732
     10 O           8.9006   42.3117    8.9521 O.3     1  UNL1       -0.4618
     11 O           6.8590   41.2942   11.7688 O.2     1  UNL1       -0.2704
     12 N           9.1082   40.8981   11.3723 N.am    1  UNL1       -0.2783
     13 H           9.1946   40.4140   12.2252 H       1  UNL1        0.1551
     14 C          13.8833   42.7456    7.2113 C.2     1  UNL1        0.2256
     15 O          13.1333   43.7579    7.2552 O.2     1  UNL1       -0.2748
     16 N          13.6099   41.5876    8.0135 N.am    1  UNL1       -0.2838
     17 H          14.2615   40.8515    7.9618 H       1  UNL1        0.1549
     18 C          15.1051   42.7723    6.3516 C.3     1  UNL1        0.0768
     19 C          16.0593   43.8468    6.8410 C.3     1  UNL1        0.0096
     20 C          15.1984   44.1020    5.6251 C.3     1  UNL1        0.0096
     21 C           6.7136   41.3573    8.8065 C.2     1  UNL1        0.3623
     22 O           7.1501   40.4545    8.0386 O.2     1  UNL1       -0.2457
     23 O           5.3519   41.6786    8.8137 O.3     1  UNL1       -0.4458
     24 C           3.0075   41.5239    9.3722 C.3     1  UNL1        0.0513
     25 C           4.3771   40.8773    9.4710 C.3     1  UNL1        0.2087
@<TRIPOS>BOND
     1    24    25    1
     2    25    23    1
     3    21    23    1
     4     1    21    1
     5     1     2    1
     6     1    10    1
     7     1     9    1
     8     3    10    1
     9     4     5   ar
    10     5    16    1
    11    18    14    1
    12    18    19    1
    13    19    20    1
    14    20    18    1
    15     6     7   ar
    16     8    12    1
    17     8     3   ar
    18    16    14   am
    19    12     9   am
    20    21    22    2
    21     3     4   ar
    22     5     6   ar
    23    14    15    2
    24     7     8   ar
    25     9    11    2
    26    16    17    1
    27    12    13    1
@<TRIPOS>MOLECULE
MolPort-035-706-969 CSSS03437789224 MCULE-8319903994 PubChem-91938294
 25 27 0 0 0
SMALL
GASTEIGER

@<TRIPOS>ATOM
      1 C          14.7220   38.5757   10.7494 C.3     1  UNL1        0.2880
      2 C          15.2877   38.7271   12.1544 C.3     1  UNL1        0.0650
      3 C          13.0396   40.2007    9.8214 C.ar    1  UNL1        0.1542
      4 C          11.7321   40.6941    9.8596 C.ar    1  UNL1        0.0529
      5 C          11.3175   41.6784    8.9555 C.ar    1  UNL1        0.0534
      6 C          12.2307   42.1702    8.0098 C.ar    1  UNL1        0.0161
      7 C          13.5397   41.6816    7.9703 C.ar    1  UNL1        0.0190
      8 C          13.9419   40.6971    8.8757 C.ar    1  UNL1        0.0850
      9 C          15.6953   39.1863    9.7610 C.2     1  UNL1        0.2732
     10 O          13.4361   39.2163   10.7330 O.3     1  UNL1       -0.4618
     11 O          16.8900   38.7859    9.7220 O.2     1  UNL1       -0.2704
     12 N          15.2752   40.2021    8.8504 N.am    1  UNL1       -0.2783
     13 H          15.9162   40.5645    8.1968 H       1  UNL1        0.1551
     14 C           9.5202   43.3685    9.6571 C.2     1  UNL1        0.2256
     15 O          10.3402   44.1725   10.1772 O.2     1  UNL1       -0.2748
     16 N           9.9683   42.1584    9.0296 N.am    1  UNL1       -0.2838
     17 H           9.2775   41.5994    8.6058 H       1  UNL1        0.1549
     18 C           8.0648   43.7066    9.6465 C.3     1  UNL1        0.0768
     19 C           7.6240   44.0531    8.2358 C.3     1  UNL1        0.0096
     20 C           7.8727   45.1562    9.2387 C.3     1  UNL1        0.0096
     21 C          14.5392   37.1181   10.4238 C.2     1  UNL1        0.3623
     22 O          14.5486   36.2546   11.3454 O.2     1  UNL1       -0.2457
     23 O          14.4288   36.7206    9.0868 O.3     1  UNL1       -0.4458
     24 C          16.3447   35.8268    7.9196 C.3     1  UNL1        0.0513
     25 C          15.0171   35.5242    8.5901 C.3     1  UNL1        0.2087
@<TRIPOS>BOND
     1    24    25    1
     2    25    23    1
     3    21    23    1
     4     1    21    1
     5     1     2    1
     6     1    10    1
     7     1     9    1
     8     3    10    1
     9     4     5   ar
    10     5    16    1
    11    18    14    1
    12    18    19    1
    13    19    20    1
    14    20    18    1
    15     6     7   ar
    16     8    12    1
    17     8     3   ar
    18    16    14   am
    19    12     9   am
    20    21    22    2
    21     3     4   ar
    22     5     6   ar
    23    14    15    2
    24     7     8   ar
    25     9    11    2
    26    16    17    1
    27    12    13    1
@<TRIPOS>MOLECULE
MolPort-035-706-969 CSSS03437789224 MCULE-8319903994 PubChem-91938294
 25 27 0 0 0
SMALL
GASTEIGER

@<TRIPOS>ATOM
      1 C          11.3146   41.7020    9.1814 C.3     1  UNL1        0.2880
      2 C          11.2139   43.2205    9.2105 C.3     1  UNL1        0.0650
      3 C          13.4449   40.5082    9.7887 C.ar    1  UNL1        0.1542
      4 C          14.7634   40.1998    9.4411 C.ar    1  UNL1        0.0529
      5 C          15.5269   39.3422   10.2411 C.ar    1  UNL1        0.0534
      6 C          14.9561   38.7963   11.4014 C.ar    1  UNL1        0.0161
      7 C          13.6392   39.1047   11.7539 C.ar    1  UNL1        0.0190
      8 C          12.8853   39.9596   10.9467 C.ar    1  UNL1        0.0850
      9 C          10.7623   41.1495   10.4802 C.2     1  UNL1        0.2732
     10 O          12.6966   41.3672    8.9766 O.3     1  UNL1       -0.4618
     11 O           9.5876   41.4338   10.8384 O.2     1  UNL1       -0.2704
     12 N          11.5481   40.2881   11.3036 N.am    1  UNL1       -0.2783
     13 H          11.1598   39.9167   12.1285 H       1  UNL1        0.1551
     14 C          17.6785   37.9467   10.2866 C.2     1  UNL1        0.2256
     15 O          17.2073   37.0661   11.0557 O.2     1  UNL1       -0.2748
     16 N          16.8757   39.0529    9.8497 N.am    1  UNL1       -0.2838
     17 H          17.2946   39.6783    9.2152 H       1  UNL1        0.1549
     18 C          19.0771   37.8079    9.7793 C.3     1  UNL1        0.0768
     19 C          19.1499   36.6830    8.7625 C.3     1  UNL1        0.0096
     20 C          19.6395   36.4543   10.1741 C.3     1  UNL1        0.0096
     21 C          10.5105   41.1560    8.0328 C.2     1  UNL1        0.3623
     22 O           9.5406   41.8162    7.5649 O.2     1  UNL1       -0.2457
     23 O          10.8015   39.8817    7.5337 O.3     1  UNL1       -0.4458
     24 C           9.0521   38.2511    7.1982 C.3     1  UNL1        0.0513
     25 C          10.2169   38.6975    8.0628 C.3     1  UNL1        0.2087
@<TRIPOS>BOND
     1    24    25    1
     2    25    23    1
     3    21    23    1
     4     1    21    1
     5     1     2    1
     6     1    10    1
     7     1     9    1
     8     3    10    1
     9     4     5   ar
    10     5    16    1
    11    18    14    1
    12    18    19    1
    13    19    20    1
    14    20    18    1
    15     6     7   ar
    16     8    12    1
    17     8     3   ar
    18    16    14   am
    19    12     9   am
    20    21    22    2
    21     3     4   ar
    22     5     6   ar
    23    14    15    2
    24     7     8   ar
    25     9    11    2
    26    16    17    1
    27    12    13    1
@<TRIPOS>MOLECULE
MolPort-035-706-969 CSSS03437789224 MCULE-8319903994 PubChem-91938294
 25 27 0 0 0
SMALL
GASTEIGER

@<TRIPOS>ATOM
      1 C          13.4587   37.0756    9.7930 C.3     1  UNL1        0.2880
      2 C          13.9637   35.8502    9.0445 C.3     1  UNL1        0.0650
      3 C          12.6948   39.1427    8.5783 C.ar    1  UNL1        0.1542
      4 C          13.0471   40.2562    7.8097 C.ar    1  UNL1        0.0529
      5 C          12.0795   41.1941    7.4328 C.ar    1  UNL1        0.0534
      6 C          10.7471   41.0037    7.8310 C.ar    1  UNL1        0.0161
      7 C          10.3903   39.8902    8.5969 C.ar    1  UNL1        0.0190
      8 C          11.3648   38.9618    8.9699 C.ar    1  UNL1        0.0850
      9 C          11.9974   36.8705   10.1390 C.2     1  UNL1        0.2732
     10 O          13.6758   38.2157    8.9462 O.3     1  UNL1       -0.4618
     11 O          11.6418   35.8604   10.8041 O.2     1  UNL1       -0.2704
     12 N          11.0090   37.8197    9.7396 N.am    1  UNL1       -0.2783
     13 H          10.0696   37.6822    9.9999 H       1  UNL1        0.1551
     14 C          13.7600   42.9743    6.6673 C.2     1  UNL1        0.2256
     15 O          14.6955   42.5444    7.3947 O.2     1  UNL1       -0.2748
     16 N          12.4825   42.3211    6.6431 N.am    1  UNL1       -0.2838
     17 H          11.8131   42.6846    6.0194 H       1  UNL1        0.1549
     18 C          14.0016   44.1495    5.7767 C.3     1  UNL1        0.0768
     19 C          15.1640   43.8617    4.8436 C.3     1  UNL1        0.0096
     20 C          15.3722   44.7387    6.0569 C.3     1  UNL1        0.0096
     21 C          14.2439   37.2613   11.0630 C.2     1  UNL1        0.3623
     22 O          14.4205   36.2888   11.8494 O.2     1  UNL1       -0.2457
     23 O          14.7167   38.5344   11.3995 O.3     1  UNL1       -0.4458
     24 C          16.4617   39.7600   10.2662 C.3     1  UNL1        0.0513
     25 C          16.1023   38.8558   11.4310 C.3     1  UNL1        0.2087
@<TRIPOS>BOND
     1    24    25    1
     2    25    23    1
     3    21    23    1
     4     1    21    1
     5     1     2    1
     6     1    10    1
     7     1     9    1
     8     3    10    1
     9     4     5   ar
    10     5    16    1
    11    18    14    1
    12    18    19    1
    13    19    20    1
    14    20    18    1
    15     6     7   ar
    16     8    12    1
    17     8     3   ar
    18    16    14   am
    19    12     9   am
    20    21    22    2
    21     3     4   ar
    22     5     6   ar
    23    14    15    2
    24     7     8   ar
    25     9    11    2
    26    16    17    1
    27    12    13    1
