@<TRIPOS>MOLECULE
MolPort-020-292-515 MCULE-1986421558 PubChem-110264983
 34 37 0 0 0
SMALL
GASTEIGER

@<TRIPOS>ATOM
      1 C          15.0350   29.7484    2.5086 C.ar    1  UNL1        0.0528
      2 C          15.6492   30.3575    3.6054 C.ar    1  UNL1        0.0294
      3 C          14.8883   30.6933    4.7284 C.ar    1  UNL1        0.0611
      4 C          12.9297   29.8332    3.6948 C.ar    1  UNL1        0.0602
      5 C          13.6596   29.4852    2.5572 C.ar    1  UNL1        0.0294
      6 C          11.4706   29.5577    3.7535 C.3     1  UNL1        0.0521
      7 N          13.5525   30.4251    4.7483 N.ar    1  UNL1       -0.2538
      8 C          15.5513   31.3446    5.8964 C.3     1  UNL1        0.0602
      9 C          14.6769   31.2320    7.1457 C.3     1  UNL1        0.0094
     10 C          15.3643   31.8967    8.3361 C.3     1  UNL1        0.0220
     11 C          15.6623   33.3596    8.0203 C.3     1  UNL1        0.0937
     12 C          15.8584   32.8100    5.5919 C.3     1  UNL1        0.0996
     13 C          17.7667   33.9693    6.7398 C.2     1  UNL1        0.2490
     14 N          16.4257   33.4475    6.7773 N.am    1  UNL1       -0.2757
     15 O          18.5492   33.5811    5.8285 O.2     1  UNL1       -0.2699
     16 C          18.2619   34.9545    7.7298 C.ar    1  UNL1        0.0536
     17 C          18.7994   36.1739    7.2887 C.ar    1  UNL1        0.0043
     18 C          19.2476   37.1271    8.2076 C.ar    1  UNL1       -0.0017
     19 C          19.1511   36.8752    9.5793 C.ar    1  UNL1        0.0073
     20 C          18.6145   35.6659   10.0294 C.ar    1  UNL1       -0.0017
     21 C          18.1669   34.7141    9.1091 C.ar    1  UNL1        0.0043
     22 C          19.6525   37.8778   10.5577 C.3     1  UNL1        0.1687
     23 C          17.4517   38.0116   10.6297 C.3     1  UNL1        0.1746
     24 O          18.6101   38.7204   10.9448 O.3     1  UNL1       -0.3463
     25 N          15.8371   29.4128    1.3679 N.pl3   1  UNL1       -0.2825
     26 H          16.4232   28.6275    1.4627 H       1  UNL1        0.1551
     27 C          13.5718   31.8496   -2.2290 C.3     1  UNL1        0.0522
     28 C          14.8100   31.2708   -1.6461 C.ar    1  UNL1        0.0634
     29 C          16.0215   31.3886   -2.3247 C.ar    1  UNL1        0.0296
     30 C          17.1602   30.8338   -1.7439 C.ar    1  UNL1        0.0634
     31 C          15.8825   30.0909    0.1050 C.ar    1  UNL1        0.2200
     32 C          18.4716   30.9356   -2.4353 C.3     1  UNL1        0.0522
     33 N          17.0713   30.1986   -0.5460 N.ar    1  UNL1       -0.2179
     34 N          14.7618   30.6286   -0.4498 N.ar    1  UNL1       -0.2179
@<TRIPOS>BOND
     1    27    28    1
     2    28    34   ar
     3    29    30   ar
     4    31    33   ar
     5    31    25    1
     6     2     3   ar
     7     4     7   ar
     8     5     1   ar
     9     6     4    1
    10     8     3    1
    11     8     9    1
    12     9    10    1
    13    10    11    1
    14    11    14    1
    15    12    14    1
    16    12     8    1
    17    13    16    1
    18    17    18   ar
    19    19    20   ar
    20    21    16   ar
    21    22    19    1
    22    22    24    1
    23    23    24    1
    24    32    30    1
    25    25     1    1
    26    14    13   am
    27    28    29   ar
    28    30    33   ar
    29    31    34   ar
    30     1     2   ar
    31     3     7   ar
    32     4     5   ar
    33    13    15    2
    34    16    17   ar
    35    18    19   ar
    36    20    21   ar
    37    25    26    1
@<TRIPOS>MOLECULE
MolPort-020-292-515 MCULE-1986421558 PubChem-110264983
 34 37 0 0 0
SMALL
GASTEIGER

@<TRIPOS>ATOM
      1 C          13.6160   40.7497    8.8003 C.ar    1  UNL1        0.0528
      2 C          12.3955   41.2303    9.2805 C.ar    1  UNL1        0.0294
      3 C          11.9129   40.7873   10.5149 C.ar    1  UNL1        0.0611
      4 C          13.8249   39.4063   10.7998 C.ar    1  UNL1        0.0602
      5 C          14.3359   39.8272    9.5711 C.ar    1  UNL1        0.0294
      6 C          14.5823   38.4278   11.6227 C.3     1  UNL1        0.0521
      7 N          12.6344   39.8900   11.2435 N.ar    1  UNL1       -0.2538
      8 C          10.6076   41.3047   11.0212 C.3     1  UNL1        0.0602
      9 C          10.5346   41.1881   12.5442 C.3     1  UNL1        0.0094
     10 C           9.1985   41.7232   13.0538 C.3     1  UNL1        0.0220
     11 C           8.0462   40.9643   12.4020 C.3     1  UNL1        0.0937
     12 C           9.4444   40.5549   10.3736 C.3     1  UNL1        0.0996
     13 C           7.2091   41.6674   10.1119 C.2     1  UNL1        0.2490
     14 N           8.1837   41.0173   10.9482 N.am    1  UNL1       -0.2757
     15 O           7.5731   42.1340    8.9969 O.2     1  UNL1       -0.2699
     16 C           5.7878   41.8027   10.5091 C.ar    1  UNL1        0.0536
     17 C           4.9639   42.7233    9.8428 C.ar    1  UNL1        0.0043
     18 C           3.6143   42.8470   10.1850 C.ar    1  UNL1       -0.0017
     19 C           3.0713   42.0413   11.1900 C.ar    1  UNL1        0.0073
     20 C           3.8818   41.1191   11.8575 C.ar    1  UNL1       -0.0017
     21 C           5.2309   40.9967   11.5139 C.ar    1  UNL1        0.0043
     22 C           1.6414   42.1910   11.5734 C.3     1  UNL1        0.1687
     23 C           0.3221   42.7026   13.2659 C.3     1  UNL1        0.1746
     24 O           1.5046   42.0337   12.9530 O.3     1  UNL1       -0.3463
     25 N          14.0906   41.2196    7.5310 N.pl3   1  UNL1       -0.2825
     26 H          13.7942   40.7138    6.7401 H       1  UNL1        0.1551
     27 C          18.3790   43.5080    8.1472 C.3     1  UNL1        0.0522
     28 C          17.0121   43.4679    7.5660 C.ar    1  UNL1        0.0634
     29 C          16.5599   44.5215    6.7738 C.ar    1  UNL1        0.0296
     30 C          15.2725   44.4453    6.2460 C.ar    1  UNL1        0.0634
     31 C          14.9477   42.3423    7.2827 C.ar    1  UNL1        0.2200
     32 C          14.7509   45.5482    5.3976 C.3     1  UNL1        0.0522
     33 N          14.4937   43.3631    6.5079 N.ar    1  UNL1       -0.2179
     34 N          16.2035   42.4026    7.8047 N.ar    1  UNL1       -0.2179
@<TRIPOS>BOND
     1    27    28    1
     2    28    34   ar
     3    29    30   ar
     4    31    33   ar
     5    31    25    1
     6     2     3   ar
     7     4     7   ar
     8     5     1   ar
     9     6     4    1
    10     8     3    1
    11     8     9    1
    12     9    10    1
    13    10    11    1
    14    11    14    1
    15    12    14    1
    16    12     8    1
    17    13    16    1
    18    17    18   ar
    19    19    20   ar
    20    21    16   ar
    21    22    19    1
    22    22    24    1
    23    23    24    1
    24    32    30    1
    25    25     1    1
    26    14    13   am
    27    28    29   ar
    28    30    33   ar
    29    31    34   ar
    30     1     2   ar
    31     3     7   ar
    32     4     5   ar
    33    13    15    2
    34    16    17   ar
    35    18    19   ar
    36    20    21   ar
    37    25    26    1
@<TRIPOS>MOLECULE
MolPort-020-292-515 MCULE-1986421558 PubChem-110264983
 34 37 0 0 0
SMALL
GASTEIGER

@<TRIPOS>ATOM
      1 C           0.6300   43.5015   14.8480 C.ar    1  UNL1        0.0528
      2 C           1.5367   43.4405   13.7871 C.ar    1  UNL1        0.0294
      3 C           1.4727   42.3792   12.8802 C.ar    1  UNL1        0.0611
      4 C          -0.3672   41.4454   14.0579 C.ar    1  UNL1        0.0602
      5 C          -0.3311   42.4908   14.9819 C.ar    1  UNL1        0.0294
      6 C          -1.3832   40.3694   14.1937 C.3     1  UNL1        0.0521
      7 N           0.5272   41.4103   13.0347 N.ar    1  UNL1       -0.2538
      8 C           2.4453   42.3203   11.7495 C.3     1  UNL1        0.0602
      9 C           1.7683   41.7985   10.4816 C.3     1  UNL1        0.0094
     10 C           2.7689   41.7454    9.3294 C.3     1  UNL1        0.0220
     11 C           3.9559   40.8633    9.7053 C.3     1  UNL1        0.0937
     12 C           3.6412   41.4421   12.1143 C.3     1  UNL1        0.0996
     13 C           5.8775   41.8394   11.0448 C.2     1  UNL1        0.2490
     14 N           4.5341   41.3289   10.9640 N.am    1  UNL1       -0.2757
     15 O           6.1645   42.6661   11.9545 O.2     1  UNL1       -0.2699
     16 C           6.9419   41.4229   10.1015 C.ar    1  UNL1        0.0536
     17 C           8.2777   41.3877   10.5314 C.ar    1  UNL1        0.0043
     18 C           9.2927   40.9726    9.6646 C.ar    1  UNL1       -0.0017
     19 C           8.9800   40.5759    8.3612 C.ar    1  UNL1        0.0073
     20 C           7.6530   40.6038    7.9239 C.ar    1  UNL1       -0.0017
     21 C           6.6395   41.0191    8.7920 C.ar    1  UNL1        0.0043
     22 C          10.0628   40.1594    7.4295 C.3     1  UNL1        0.1687
     23 C          10.7311   40.9557    5.4836 C.3     1  UNL1        0.1746
     24 O           9.6464   40.3442    6.1107 O.3     1  UNL1       -0.3463
     25 N           0.7153   44.6008   15.7653 N.pl3   1  UNL1       -0.2825
     26 H           1.2077   44.4340   16.6014 H       1  UNL1        0.1551
     27 C          -0.2065   49.0695   17.5509 C.3     1  UNL1        0.0522
     28 C          -0.2918   48.0817   16.4442 C.ar    1  UNL1        0.0634
     29 C          -0.9045   48.4317   15.2425 C.ar    1  UNL1        0.0296
     30 C          -0.9627   47.4776   14.2286 C.ar    1  UNL1        0.0634
     31 C           0.1652   45.9153   15.6033 C.ar    1  UNL1        0.2200
     32 C          -1.6090   47.8095   12.9323 C.3     1  UNL1        0.0522
     33 N          -0.4295   46.2434   14.4256 N.ar    1  UNL1       -0.2179
     34 N           0.2301   46.8374   16.6027 N.ar    1  UNL1       -0.2179
@<TRIPOS>BOND
     1    27    28    1
     2    28    34   ar
     3    29    30   ar
     4    31    33   ar
     5    31    25    1
     6     2     3   ar
     7     4     7   ar
     8     5     1   ar
     9     6     4    1
    10     8     3    1
    11     8     9    1
    12     9    10    1
    13    10    11    1
    14    11    14    1
    15    12    14    1
    16    12     8    1
    17    13    16    1
    18    17    18   ar
    19    19    20   ar
    20    21    16   ar
    21    22    19    1
    22    22    24    1
    23    23    24    1
    24    32    30    1
    25    25     1    1
    26    14    13   am
    27    28    29   ar
    28    30    33   ar
    29    31    34   ar
    30     1     2   ar
    31     3     7   ar
    32     4     5   ar
    33    13    15    2
    34    16    17   ar
    35    18    19   ar
    36    20    21   ar
    37    25    26    1
@<TRIPOS>MOLECULE
MolPort-020-292-515 MCULE-1986421558 PubChem-110264983
 34 37 0 0 0
SMALL
GASTEIGER

@<TRIPOS>ATOM
      1 C           0.8375   43.4426   14.8002 C.ar    1  UNL1        0.0528
      2 C           1.7471   43.3986   13.7410 C.ar    1  UNL1        0.0294
      3 C           1.6632   42.3714   12.7971 C.ar    1  UNL1        0.0611
      4 C          -0.2018   41.4383   13.9350 C.ar    1  UNL1        0.0602
      5 C          -0.1464   42.4495   14.8954 C.ar    1  UNL1        0.0294
      6 C          -1.2421   40.3812   14.0295 C.3     1  UNL1        0.0521
      7 N           0.6958   41.4190   12.9143 N.ar    1  UNL1       -0.2538
      8 C           2.6390   42.3304   11.6683 C.3     1  UNL1        0.0602
      9 C           1.9492   41.8984   10.3738 C.3     1  UNL1        0.0094
     10 C           2.9533   41.8632    9.2240 C.3     1  UNL1        0.0220
     11 C           4.1032   40.9181    9.5600 C.3     1  UNL1        0.0937
     12 C           3.7980   41.3895   11.9935 C.3     1  UNL1        0.0996
     13 C           6.0538   41.7516   10.9529 C.2     1  UNL1        0.2490
     14 N           4.6921   41.2984   10.8422 N.am    1  UNL1       -0.2757
     15 O           6.3676   42.5209   11.9033 O.2     1  UNL1       -0.2699
     16 C           7.1064   41.3410    9.9939 C.ar    1  UNL1        0.0536
     17 C           8.4514   41.3397   10.3957 C.ar    1  UNL1        0.0043
     18 C           9.4562   40.9308    9.5143 C.ar    1  UNL1       -0.0017
     19 C           9.1244   40.5063    8.2244 C.ar    1  UNL1        0.0073
     20 C           7.7882   40.5004    7.8152 C.ar    1  UNL1       -0.0017
     21 C           6.7849   40.9096    8.6978 C.ar    1  UNL1        0.0043
     22 C          10.1956   40.0963    7.2766 C.3     1  UNL1        0.1687
     23 C          10.3063   40.5328    5.1170 C.3     1  UNL1        0.1746
     24 O           9.6307   39.7471    6.0496 O.3     1  UNL1       -0.3463
     25 N           0.9435   44.5069   15.7559 N.pl3   1  UNL1       -0.2825
     26 H           0.9199   45.4221   15.3939 H       1  UNL1        0.1551
     27 C          -1.0767   44.3203   20.2159 C.3     1  UNL1        0.0522
     28 C           0.1269   44.2970   19.3449 C.ar    1  UNL1        0.0634
     29 C           1.3935   44.1574   19.9090 C.ar    1  UNL1        0.0296
     30 C           2.4969   44.1384   19.0581 C.ar    1  UNL1        0.0634
     31 C           1.0799   44.3897   17.1788 C.ar    1  UNL1        0.2200
     32 C           3.8652   43.9932   19.6190 C.3     1  UNL1        0.0522
     33 N           2.3216   44.2539   17.7156 N.ar    1  UNL1       -0.2179
     34 N          -0.0074   44.4091   17.9976 N.ar    1  UNL1       -0.2179
@<TRIPOS>BOND
     1    27    28    1
     2    28    34   ar
     3    29    30   ar
     4    31    33   ar
     5    31    25    1
     6     2     3   ar
     7     4     7   ar
     8     5     1   ar
     9     6     4    1
    10     8     3    1
    11     8     9    1
    12     9    10    1
    13    10    11    1
    14    11    14    1
    15    12    14    1
    16    12     8    1
    17    13    16    1
    18    17    18   ar
    19    19    20   ar
    20    21    16   ar
    21    22    19    1
    22    22    24    1
    23    23    24    1
    24    32    30    1
    25    25     1    1
    26    14    13   am
    27    28    29   ar
    28    30    33   ar
    29    31    34   ar
    30     1     2   ar
    31     3     7   ar
    32     4     5   ar
    33    13    15    2
    34    16    17   ar
    35    18    19   ar
    36    20    21   ar
    37    25    26    1
@<TRIPOS>MOLECULE
MolPort-020-292-515 MCULE-1986421558 PubChem-110264983
 34 37 0 0 0
SMALL
GASTEIGER

@<TRIPOS>ATOM
      1 C           0.4388   44.3535   14.4363 C.ar    1  UNL1        0.0528
      2 C           1.3896   43.7750   13.5921 C.ar    1  UNL1        0.0294
      3 C           1.0642   42.6267   12.8649 C.ar    1  UNL1        0.0611
      4 C          -1.1212   42.6204   13.7966 C.ar    1  UNL1        0.0602
      5 C          -0.8296   43.7667   14.5374 C.ar    1  UNL1        0.0294
      6 C          -2.4640   41.9921   13.8991 C.3     1  UNL1        0.0521
      7 N          -0.1773   42.0778   12.9825 N.ar    1  UNL1       -0.2538
      8 C           2.0855   42.0137   11.9654 C.3     1  UNL1        0.0602
      9 C           2.7687   40.8302   12.6516 C.3     1  UNL1        0.0094
     10 C           3.8084   40.2068   11.7233 C.3     1  UNL1        0.0220
     11 C           4.8381   41.2543   11.3098 C.3     1  UNL1        0.0937
     12 C           3.1215   43.0535   11.5411 C.3     1  UNL1        0.0996
     13 C           4.3458   42.8062    9.3633 C.2     1  UNL1        0.2490
     14 N           4.1567   42.4120   10.7347 N.am    1  UNL1       -0.2757
     15 O           3.4236   43.4357    8.7746 O.2     1  UNL1       -0.2699
     16 C           5.5904   42.5064    8.6168 C.ar    1  UNL1        0.0536
     17 C           5.9415   43.2901    7.5064 C.ar    1  UNL1        0.0043
     18 C           7.1245   43.0398    6.8052 C.ar    1  UNL1       -0.0017
     19 C           7.9758   42.0098    7.2155 C.ar    1  UNL1        0.0073
     20 C           7.6376   41.2256    8.3217 C.ar    1  UNL1       -0.0017
     21 C           6.4545   41.4774    9.0216 C.ar    1  UNL1        0.0043
     22 C           9.2218   41.7254    6.4537 C.3     1  UNL1        0.1687
     23 C           8.3880   39.8259    5.7030 C.3     1  UNL1        0.1746
     24 O           8.9092   41.0463    5.2757 O.3     1  UNL1       -0.3463
     25 N           0.7962   45.5319   15.1717 N.pl3   1  UNL1       -0.2825
     26 H           0.4485   46.3850   14.8244 H       1  UNL1        0.1551
     27 C           2.5832   43.4599   19.2363 C.3     1  UNL1        0.0522
     28 C           2.4787   44.6292   18.3255 C.ar    1  UNL1        0.0634
     29 C           3.1676   45.8048   18.6177 C.ar    1  UNL1        0.0296
     30 C           3.0449   46.8782   17.7377 C.ar    1  UNL1        0.0634
     31 C           1.6022   45.6089   16.3554 C.ar    1  UNL1        0.2200
     32 C           3.7614   48.1505   18.0132 C.3     1  UNL1        0.0522
     33 N           2.2691   46.7619   16.6282 N.ar    1  UNL1       -0.2179
     34 N           1.7132   44.5517   17.2057 N.ar    1  UNL1       -0.2179
@<TRIPOS>BOND
     1    27    28    1
     2    28    34   ar
     3    29    30   ar
     4    31    33   ar
     5    31    25    1
     6     2     3   ar
     7     4     7   ar
     8     5     1   ar
     9     6     4    1
    10     8     3    1
    11     8     9    1
    12     9    10    1
    13    10    11    1
    14    11    14    1
    15    12    14    1
    16    12     8    1
    17    13    16    1
    18    17    18   ar
    19    19    20   ar
    20    21    16   ar
    21    22    19    1
    22    22    24    1
    23    23    24    1
    24    32    30    1
    25    25     1    1
    26    14    13   am
    27    28    29   ar
    28    30    33   ar
    29    31    34   ar
    30     1     2   ar
    31     3     7   ar
    32     4     5   ar
    33    13    15    2
    34    16    17   ar
    35    18    19   ar
    36    20    21   ar
    37    25    26    1
@<TRIPOS>MOLECULE
MolPort-020-292-515 MCULE-1986421558 PubChem-110264983
 34 37 0 0 0
SMALL
GASTEIGER

@<TRIPOS>ATOM
      1 C           2.9387   42.0803   11.9241 C.ar    1  UNL1        0.0528
      2 C           4.3258   41.9224   11.8757 C.ar    1  UNL1        0.0294
      3 C           4.9238   41.3915   10.7296 C.ar    1  UNL1        0.0611
      4 C           2.8004   41.1741    9.6868 C.ar    1  UNL1        0.0602
      5 C           2.1706   41.7006   10.8156 C.ar    1  UNL1        0.0294
      6 C           1.9923   40.7685    8.5073 C.3     1  UNL1        0.0521
      7 N           4.1521   41.0311    9.6661 N.ar    1  UNL1       -0.2538
      8 C           6.4065   41.2251   10.6854 C.3     1  UNL1        0.0602
      9 C           7.0418   41.6936   11.9950 C.3     1  UNL1        0.0094
     10 C           8.5574   41.5161   11.9427 C.3     1  UNL1        0.0220
     11 C           9.1358   42.2876   10.7600 C.3     1  UNL1        0.0937
     12 C           6.9983   41.9906    9.5029 C.3     1  UNL1        0.0996
     13 C           9.1487   41.2329    8.4520 C.2     1  UNL1        0.2490
     14 N           8.4548   41.8851    9.5314 N.am    1  UNL1       -0.2757
     15 O           8.5020   40.4726    7.6793 O.2     1  UNL1       -0.2699
     16 C          10.5975   41.4278    8.2085 C.ar    1  UNL1        0.0536
     17 C          11.5186   41.1452    9.2294 C.ar    1  UNL1        0.0043
     18 C          12.8908   41.2976    9.0109 C.ar    1  UNL1       -0.0017
     19 C          13.3570   41.7227    7.7635 C.ar    1  UNL1        0.0073
     20 C          12.4489   42.0034    6.7391 C.ar    1  UNL1       -0.0017
     21 C          11.0773   41.8504    6.9594 C.ar    1  UNL1        0.0043
     22 C          14.8157   41.9108    7.5382 C.3     1  UNL1        0.1687
     23 C          16.4206   43.3383    7.0347 C.3     1  UNL1        0.1746
     24 O          15.0434   43.1472    6.9331 O.3     1  UNL1       -0.3463
     25 N           2.3484   42.6279   13.1111 N.pl3   1  UNL1       -0.2825
     26 H           2.9670   43.0445   13.7537 H       1  UNL1        0.1551
     27 C          -1.7100   40.2316   14.4506 C.3     1  UNL1        0.0522
     28 C          -1.0150   41.5016   14.1165 C.ar    1  UNL1        0.0634
     29 C          -1.7113   42.7083   14.1530 C.ar    1  UNL1        0.0296
     30 C          -1.0233   43.8775   13.8346 C.ar    1  UNL1        0.0634
     31 C           0.9595   42.6376   13.4685 C.ar    1  UNL1        0.2200
     32 C          -1.7290   45.1850   13.8596 C.3     1  UNL1        0.0522
     33 N           0.2925   43.8220   13.5002 N.ar    1  UNL1       -0.2179
     34 N           0.3006   41.4873   13.7778 N.ar    1  UNL1       -0.2179
@<TRIPOS>BOND
     1    27    28    1
     2    28    34   ar
     3    29    30   ar
     4    31    33   ar
     5    31    25    1
     6     2     3   ar
     7     4     7   ar
     8     5     1   ar
     9     6     4    1
    10     8     3    1
    11     8     9    1
    12     9    10    1
    13    10    11    1
    14    11    14    1
    15    12    14    1
    16    12     8    1
    17    13    16    1
    18    17    18   ar
    19    19    20   ar
    20    21    16   ar
    21    22    19    1
    22    22    24    1
    23    23    24    1
    24    32    30    1
    25    25     1    1
    26    14    13   am
    27    28    29   ar
    28    30    33   ar
    29    31    34   ar
    30     1     2   ar
    31     3     7   ar
    32     4     5   ar
    33    13    15    2
    34    16    17   ar
    35    18    19   ar
    36    20    21   ar
    37    25    26    1
@<TRIPOS>MOLECULE
MolPort-020-292-515 MCULE-1986421558 PubChem-110264983
 34 37 0 0 0
SMALL
GASTEIGER

@<TRIPOS>ATOM
      1 C           3.3816   42.0052   11.4885 C.ar    1  UNL1        0.0528
      2 C           4.6986   41.5599   11.6244 C.ar    1  UNL1        0.0294
      3 C           5.6650   41.9599   10.6975 C.ar    1  UNL1        0.0611
      4 C           4.0445   43.2294    9.5117 C.ar    1  UNL1        0.0602
      5 C           3.0544   42.8490   10.4188 C.ar    1  UNL1        0.0294
      6 C           3.7051   44.1236    8.3743 C.3     1  UNL1        0.0521
      7 N           5.3185   42.7815    9.6672 N.ar    1  UNL1       -0.2538
      8 C           7.0701   41.4795   10.8486 C.3     1  UNL1        0.0602
      9 C           7.5478   41.6527   12.2909 C.3     1  UNL1        0.0094
     10 C           8.9839   41.1552   12.4375 C.3     1  UNL1        0.0220
     11 C           9.9001   41.9059   11.4754 C.3     1  UNL1        0.0937
     12 C           7.9981   42.2214    9.8879 C.3     1  UNL1        0.0996
     13 C          10.1057   41.1314    9.0675 C.2     1  UNL1        0.2490
     14 N           9.3774   41.7979   10.1151 N.am    1  UNL1       -0.2757
     15 O           9.4658   40.6194    8.1074 O.2     1  UNL1       -0.2699
     16 C          11.5842   41.0306    9.0704 C.ar    1  UNL1        0.0536
     17 C          12.2305   40.3129   10.0890 C.ar    1  UNL1        0.0043
     18 C          13.6223   40.1842   10.0948 C.ar    1  UNL1       -0.0017
     19 C          14.3820   40.7621    9.0735 C.ar    1  UNL1        0.0073
     20 C          13.7485   41.4759    8.0527 C.ar    1  UNL1       -0.0017
     21 C          12.3568   41.6035    8.0486 C.ar    1  UNL1        0.0043
     22 C          15.8655   40.6484    9.0932 C.3     1  UNL1        0.1687
     23 C          17.2434   39.5206   10.3956 C.3     1  UNL1        0.1746
     24 O          16.2338   39.3506    9.4494 O.3     1  UNL1       -0.3463
     25 N           2.4078   41.5814   12.4526 N.pl3   1  UNL1       -0.2825
     26 H           2.4630   40.6429   12.7448 H       1  UNL1        0.1551
     27 C           0.9589   45.5774   14.8898 C.3     1  UNL1        0.0522
     28 C           0.6382   44.2923   14.2163 C.ar    1  UNL1        0.0634
     29 C          -0.6817   43.8501   14.1500 C.ar    1  UNL1        0.0296
     30 C          -0.9413   42.6407   13.5084 C.ar    1  UNL1        0.0634
     31 C           1.3629   42.3691   13.0395 C.ar    1  UNL1        0.2200
     32 C          -2.3346   42.1321   13.4171 C.3     1  UNL1        0.0522
     33 N           0.0796   41.9257   12.9672 N.ar    1  UNL1       -0.2179
     34 N           1.6316   43.5492   13.6626 N.ar    1  UNL1       -0.2179
@<TRIPOS>BOND
     1    27    28    1
     2    28    34   ar
     3    29    30   ar
     4    31    33   ar
     5    31    25    1
     6     2     3   ar
     7     4     7   ar
     8     5     1   ar
     9     6     4    1
    10     8     3    1
    11     8     9    1
    12     9    10    1
    13    10    11    1
    14    11    14    1
    15    12    14    1
    16    12     8    1
    17    13    16    1
    18    17    18   ar
    19    19    20   ar
    20    21    16   ar
    21    22    19    1
    22    22    24    1
    23    23    24    1
    24    32    30    1
    25    25     1    1
    26    14    13   am
    27    28    29   ar
    28    30    33   ar
    29    31    34   ar
    30     1     2   ar
    31     3     7   ar
    32     4     5   ar
    33    13    15    2
    34    16    17   ar
    35    18    19   ar
    36    20    21   ar
    37    25    26    1
@<TRIPOS>MOLECULE
MolPort-020-292-515 MCULE-1986421558 PubChem-110264983
 34 37 0 0 0
SMALL
GASTEIGER

@<TRIPOS>ATOM
      1 C           3.3800   41.9676   11.5324 C.ar    1  UNL1        0.0528
      2 C           4.6973   41.5230   11.6678 C.ar    1  UNL1        0.0294
      3 C           5.6624   41.9205   10.7384 C.ar    1  UNL1        0.0611
      4 C           4.0399   43.1861    9.5511 C.ar    1  UNL1        0.0602
      5 C           3.0511   42.8081   10.4607 C.ar    1  UNL1        0.0294
      6 C           3.6987   44.0768    8.4115 C.3     1  UNL1        0.0521
      7 N           5.3143   42.7390    9.7062 N.ar    1  UNL1       -0.2538
      8 C           7.0678   41.4410   10.8891 C.3     1  UNL1        0.0602
      9 C           7.5607   41.6546   12.3208 C.3     1  UNL1        0.0094
     10 C           8.9970   41.1577   12.4670 C.3     1  UNL1        0.0220
     11 C           9.9051   41.8777   11.4743 C.3     1  UNL1        0.0937
     12 C           7.9876   42.1522    9.8978 C.3     1  UNL1        0.0996
     13 C          10.0840   41.0333    9.0879 C.2     1  UNL1        0.2490
     14 N           9.3682   41.7318   10.1231 N.am    1  UNL1       -0.2757
     15 O           9.4332   40.4955    8.1496 O.2     1  UNL1       -0.2699
     16 C          11.5623   40.9287    9.0786 C.ar    1  UNL1        0.0536
     17 C          12.2971   41.5487    8.0558 C.ar    1  UNL1        0.0043
     18 C          13.6933   41.4836    8.0439 C.ar    1  UNL1       -0.0017
     19 C          14.3703   40.8075    9.0631 C.ar    1  UNL1        0.0073
     20 C          13.6487   40.1897   10.0880 C.ar    1  UNL1       -0.0017
     21 C          12.2528   40.2558   10.0983 C.ar    1  UNL1        0.0043
     22 C          15.8551   40.7149    9.0369 C.3     1  UNL1        0.1687
     23 C          17.3520   39.6425   10.2519 C.3     1  UNL1        0.1746
     24 O          16.2540   39.4336    9.4185 O.3     1  UNL1       -0.3463
     25 N           2.4077   41.5464   12.4991 N.pl3   1  UNL1       -0.2825
     26 H           2.4785   40.6156   12.8120 H       1  UNL1        0.1551
     27 C          -2.3556   42.1614   13.4690 C.3     1  UNL1        0.0522
     28 C          -0.9530   42.6464   13.5419 C.ar    1  UNL1        0.0634
     29 C          -0.6665   43.8614   14.1615 C.ar    1  UNL1        0.0296
     30 C           0.6616   44.2804   14.2107 C.ar    1  UNL1        0.0634
     31 C           1.3440   42.3267   13.0618 C.ar    1  UNL1        0.2200
     32 C           1.0100   45.5705   14.8606 C.3     1  UNL1        0.0522
     33 N           1.6379   43.5099   13.6634 N.ar    1  UNL1       -0.2179
     34 N           0.0511   41.9041   13.0067 N.ar    1  UNL1       -0.2179
@<TRIPOS>BOND
     1    27    28    1
     2    28    34   ar
     3    29    30   ar
     4    31    33   ar
     5    31    25    1
     6     2     3   ar
     7     4     7   ar
     8     5     1   ar
     9     6     4    1
    10     8     3    1
    11     8     9    1
    12     9    10    1
    13    10    11    1
    14    11    14    1
    15    12    14    1
    16    12     8    1
    17    13    16    1
    18    17    18   ar
    19    19    20   ar
    20    21    16   ar
    21    22    19    1
    22    22    24    1
    23    23    24    1
    24    32    30    1
    25    25     1    1
    26    14    13   am
    27    28    29   ar
    28    30    33   ar
    29    31    34   ar
    30     1     2   ar
    31     3     7   ar
    32     4     5   ar
    33    13    15    2
    34    16    17   ar
    35    18    19   ar
    36    20    21   ar
    37    25    26    1
@<TRIPOS>MOLECULE
MolPort-020-292-515 MCULE-1986421558 PubChem-110264983
 34 37 0 0 0
SMALL
GASTEIGER

@<TRIPOS>ATOM
      1 C           0.6267   44.0182   14.6311 C.ar    1  UNL1        0.0528
      2 C           1.5525   43.4768   13.7361 C.ar    1  UNL1        0.0294
      3 C           1.1473   42.4937   12.8292 C.ar    1  UNL1        0.0611
      4 C          -1.0685   42.5788   13.6819 C.ar    1  UNL1        0.0602
      5 C          -0.6976   43.5615   14.6010 C.ar    1  UNL1        0.0294
      6 C          -2.4710   42.0890   13.6444 C.3     1  UNL1        0.0521
      7 N          -0.1473   42.0688   12.8221 N.ar    1  UNL1       -0.2538
      8 C           2.1422   41.9193   11.8763 C.3     1  UNL1        0.0602
      9 C           2.8182   40.6872   12.4790 C.3     1  UNL1        0.0094
     10 C           3.8309   40.1037   11.4965 C.3     1  UNL1        0.0220
     11 C           4.8700   41.1579   11.1259 C.3     1  UNL1        0.0937
     12 C           3.1874   42.9664   11.4943 C.3     1  UNL1        0.0996
     13 C           4.3685   42.8291    9.2832 C.2     1  UNL1        0.2490
     14 N           4.1974   42.3577   10.6325 N.am    1  UNL1       -0.2757
     15 O           3.4463   43.5062    8.7498 O.2     1  UNL1       -0.2699
     16 C           5.5946   42.5549    8.4972 C.ar    1  UNL1        0.0536
     17 C           6.5603   43.5615    8.3410 C.ar    1  UNL1        0.0043
     18 C           7.7354   43.3143    7.6255 C.ar    1  UNL1       -0.0017
     19 C           7.9626   42.0522    7.0689 C.ar    1  UNL1        0.0073
     20 C           7.0093   41.0418    7.2214 C.ar    1  UNL1       -0.0017
     21 C           5.8350   41.2908    7.9371 C.ar    1  UNL1        0.0043
     22 C           9.2007   41.7961    6.2845 C.3     1  UNL1        0.1687
     23 C          10.2316   40.4128    4.9095 C.3     1  UNL1        0.1746
     24 O           8.9626   40.7952    5.3420 O.3     1  UNL1       -0.3463
     25 N           1.0664   45.0262   15.5519 N.pl3   1  UNL1       -0.2825
     26 H           2.0395   45.1579   15.6224 H       1  UNL1        0.1551
     27 C          -1.3287   45.8009   19.7555 C.3     1  UNL1        0.0522
     28 C          -0.9152   46.2615   18.4047 C.ar    1  UNL1        0.0634
     29 C          -1.3175   47.5127   17.9410 C.ar    1  UNL1        0.0296
     30 C          -0.9074   47.9086   16.6695 C.ar    1  UNL1        0.0634
     31 C           0.2500   45.8640   16.3815 C.ar    1  UNL1        0.2200
     32 C          -1.3158   49.2342   16.1364 C.3     1  UNL1        0.0522
     33 N          -0.1350   47.0822   15.9165 N.ar    1  UNL1       -0.2179
     34 N          -0.1424   45.4640   17.6221 N.ar    1  UNL1       -0.2179
@<TRIPOS>BOND
     1    27    28    1
     2    28    34   ar
     3    29    30   ar
     4    31    33   ar
     5    31    25    1
     6     2     3   ar
     7     4     7   ar
     8     5     1   ar
     9     6     4    1
    10     8     3    1
    11     8     9    1
    12     9    10    1
    13    10    11    1
    14    11    14    1
    15    12    14    1
    16    12     8    1
    17    13    16    1
    18    17    18   ar
    19    19    20   ar
    20    21    16   ar
    21    22    19    1
    22    22    24    1
    23    23    24    1
    24    32    30    1
    25    25     1    1
    26    14    13   am
    27    28    29   ar
    28    30    33   ar
    29    31    34   ar
    30     1     2   ar
    31     3     7   ar
    32     4     5   ar
    33    13    15    2
    34    16    17   ar
    35    18    19   ar
    36    20    21   ar
    37    25    26    1
@<TRIPOS>MOLECULE
MolPort-020-292-515 MCULE-1986421558 PubChem-110264983
 34 37 0 0 0
SMALL
GASTEIGER

@<TRIPOS>ATOM
      1 C           3.7839   42.4331   10.7073 C.ar    1  UNL1        0.0528
      2 C           5.0604   41.9811   10.3644 C.ar    1  UNL1        0.0294
      3 C           5.7006   42.5015    9.2364 C.ar    1  UNL1        0.0611
      4 C           3.8358   43.9036    8.7887 C.ar    1  UNL1        0.0602
      5 C           3.1677   43.4050    9.9080 C.ar    1  UNL1        0.0294
      6 C           3.1885   44.9341    7.9358 C.3     1  UNL1        0.0521
      7 N           5.0776   43.4462    8.4776 N.ar    1  UNL1       -0.2538
      8 C           7.0643   42.0132    8.8759 C.3     1  UNL1        0.0602
      9 C           6.9762   40.8168    7.9277 C.3     1  UNL1        0.0094
     10 C           8.3750   40.3266    7.5608 C.3     1  UNL1        0.0220
     11 C           9.1486   39.9551    8.8225 C.3     1  UNL1        0.0937
     12 C           7.8513   41.6406   10.1314 C.3     1  UNL1        0.0996
     13 C          10.3591   41.7578   10.1357 C.2     1  UNL1        0.2490
     14 N           9.1468   41.0845    9.7497 N.am    1  UNL1       -0.2757
     15 O          10.3008   42.9678   10.4906 O.2     1  UNL1       -0.2699
     16 C          11.6763   41.0787   10.1395 C.ar    1  UNL1        0.0536
     17 C          12.5973   41.3413    9.1133 C.ar    1  UNL1        0.0043
     18 C          13.8547   40.7309    9.1133 C.ar    1  UNL1       -0.0017
     19 C          14.2090   39.8601   10.1478 C.ar    1  UNL1        0.0073
     20 C          13.3010   39.5942   11.1763 C.ar    1  UNL1       -0.0017
     21 C          12.0442   40.2055   11.1746 C.ar    1  UNL1        0.0043
     22 C          15.5370   39.1891   10.1347 C.3     1  UNL1        0.1687
     23 C          17.4168   40.3300    9.9567 C.3     1  UNL1        0.1746
     24 O          16.3683   39.8080    9.2006 O.3     1  UNL1       -0.3463
     25 N           3.1476   41.8843   11.8697 N.pl3   1  UNL1       -0.2825
     26 H           3.5277   41.0467   12.2205 H       1  UNL1        0.1551
     27 C          -1.5767   41.6289   13.1438 C.3     1  UNL1        0.0522
     28 C          -0.2602   42.3149   13.2087 C.ar    1  UNL1        0.0634
     29 C          -0.1161   43.4777   13.9632 C.ar    1  UNL1        0.0296
     30 C           1.1351   44.0901   13.9999 C.ar    1  UNL1        0.0634
     31 C           2.0206   42.4168   12.5790 C.ar    1  UNL1        0.2200
     32 C           1.3312   45.3326   14.7909 C.3     1  UNL1        0.0522
     33 N           2.1755   43.5518   13.3113 N.ar    1  UNL1       -0.2179
     34 N           0.8043   41.8071   12.5344 N.ar    1  UNL1       -0.2179
@<TRIPOS>BOND
     1    27    28    1
     2    28    34   ar
     3    29    30   ar
     4    31    33   ar
     5    31    25    1
     6     2     3   ar
     7     4     7   ar
     8     5     1   ar
     9     6     4    1
    10     8     3    1
    11     8     9    1
    12     9    10    1
    13    10    11    1
    14    11    14    1
    15    12    14    1
    16    12     8    1
    17    13    16    1
    18    17    18   ar
    19    19    20   ar
    20    21    16   ar
    21    22    19    1
    22    22    24    1
    23    23    24    1
    24    32    30    1
    25    25     1    1
    26    14    13   am
    27    28    29   ar
    28    30    33   ar
    29    31    34   ar
    30     1     2   ar
    31     3     7   ar
    32     4     5   ar
    33    13    15    2
    34    16    17   ar
    35    18    19   ar
    36    20    21   ar
    37    25    26    1
