@<TRIPOS>MOLECULE
MolPort-047-073-926 MCULE-9516720595 PubChem-132768183
 36 39 0 0 0
SMALL
GASTEIGER

@<TRIPOS>ATOM
      1 C          10.0883   41.9589    7.9532 C.ar    1  UNL1        0.1429
      2 C           9.6551   41.1358    6.9096 C.ar    1  UNL1        0.0619
      3 C          11.9989   41.8904    6.7850 C.ar    1  UNL1        0.1648
      4 N          11.3833   42.3743    7.8821 N.ar    1  UNL1       -0.2193
      5 S          10.9690   40.9385    5.8724 S.2     1  UNL1       -0.0507
      6 C           9.2127   42.3581    9.0626 C.2     1  UNL1        0.2642
      7 N           8.7184   41.3745    9.9739 N.am    1  UNL1       -0.2982
      8 O           8.8986   43.5709    9.2071 O.2     1  UNL1       -0.2685
      9 H           8.9744   40.4327    9.8444 H       1  UNL1        0.1498
     10 C           7.8490   41.7220   11.0865 C.3     1  UNL1        0.1070
     11 C           6.4246   41.2921   10.7825 C.3     1  UNL1        0.0936
     12 C           5.7560   41.3960    8.5300 C.3     1  UNL1        0.0896
     13 N           5.8397   42.1625    9.7632 N.3     1  UNL1       -0.2714
     14 C           4.4823   42.5982   10.1292 C.3     1  UNL1        0.0576
     15 C           4.1262   42.1726   11.5404 C.3     1  UNL1        0.0160
     16 C           2.6356   41.9262   11.5135 C.3     1  UNL1        0.0014
     17 C           2.3302   41.4472   10.1098 C.3     1  UNL1        0.0014
     18 C           3.3792   42.0713    9.2085 C.3     1  UNL1        0.0160
     19 N          13.3626   42.1526    6.4394 N.pl3   1  UNL1       -0.2781
     20 H          13.5408   42.5008    5.5360 H       1  UNL1        0.1555
     21 C          14.4889   41.9501    7.2995 C.ar    1  UNL1        0.1361
     22 C          14.4067   40.9988    8.3158 C.ar    1  UNL1        0.0492
     23 C          15.5112   40.8110    9.1467 C.ar    1  UNL1        0.0641
     24 C          16.7020   42.4732    7.9584 C.ar    1  UNL1        0.1406
     25 C          17.9409   43.2703    7.7638 C.3     1  UNL1        0.0737
     26 N          16.6373   41.5504    8.9530 N.ar    1  UNL1       -0.2349
     27 N          15.6344   42.6678    7.1412 N.ar    1  UNL1       -0.2159
     28 C          15.4464   39.7980   10.2405 C.3     1  UNL1        0.0564
     29 C          16.5628   38.7629   10.0889 C.3     1  UNL1        0.0087
     30 C          16.4389   37.6600   11.1435 C.3     1  UNL1        0.0178
     31 C          14.9795   37.2782   11.4247 C.3     1  UNL1        0.0731
     32 C          14.0489   39.1531   10.3023 C.3     1  UNL1        0.0789
     33 N          14.1096   37.6891   10.3230 N.3     1  UNL1       -0.2596
     34 C          12.7707   37.2199   10.6364 C.3     1  UNL1        0.1795
     35 C          11.8279   37.6955    9.6203 C.1     1  UNL1        0.0912
     36 N          11.0836   38.0711    8.8178 N.1     1  UNL1       -0.1944
@<TRIPOS>BOND
     1     1     6    1
     2     1     4   ar
     3     6     7   am
     4    10     7    1
     5    10    11    1
     6    11    13    1
     7    12    13    1
     8    14    13    1
     9    14    15    1
    10    15    16    1
    11    16    17    1
    12    17    18    1
    13    18    14    1
    14     2     5   ar
    15     3     5   ar
    16     3    19    1
    17    21    27   ar
    18    22    23   ar
    19    28    23    1
    20    28    29    1
    21    29    30    1
    22    30    31    1
    23    31    33    1
    24    34    33    1
    25    34    35    1
    26    32    33    1
    27    32    28    1
    28    24    26   ar
    29    25    24    1
    30    19    21    1
    31     1     2   ar
    32     6     8    2
    33     3     4   ar
    34    21    22   ar
    35    23    26   ar
    36    24    27   ar
    37    35    36    3
    38     7     9    1
    39    19    20    1
@<TRIPOS>MOLECULE
MolPort-047-073-926 MCULE-9516720595 PubChem-132768183
 36 39 0 0 0
SMALL
GASTEIGER

@<TRIPOS>ATOM
      1 C          15.5528   36.9877    9.6345 C.ar    1  UNL1        0.1429
      2 C          14.4781   36.9889   10.5285 C.ar    1  UNL1        0.0619
      3 C          15.1312   39.1881    9.6258 C.ar    1  UNL1        0.1648
      4 N          15.9117   38.2037    9.1373 N.ar    1  UNL1       -0.2193
      5 S          13.9787   38.5914   10.6818 S.2     1  UNL1       -0.0507
      6 C          16.2594   35.7598    9.2471 C.2     1  UNL1        0.2642
      7 N          15.5217   34.6193    8.8034 N.am    1  UNL1       -0.2982
      8 O          17.5182   35.7161    9.3085 O.2     1  UNL1       -0.2685
      9 H          14.5394   34.6726    8.7627 H       1  UNL1        0.1498
     10 C          16.1772   33.3823    8.4100 C.3     1  UNL1        0.1070
     11 C          15.1586   32.4236    7.8189 C.3     1  UNL1        0.0936
     12 C          15.0968   30.0745    7.7221 C.3     1  UNL1        0.0896
     13 N          15.8303   31.2462    7.2700 N.3     1  UNL1       -0.2714
     14 C          15.8295   31.2522    5.7983 C.3     1  UNL1        0.0576
     15 C          15.3756   32.5914    5.2505 C.3     1  UNL1        0.0160
     16 C          14.6689   32.2682    3.9546 C.3     1  UNL1        0.0014
     17 C          14.0567   30.8983    4.1586 C.3     1  UNL1        0.0014
     18 C          14.9406   30.1812    5.1620 C.3     1  UNL1        0.0160
     19 N          15.2653   40.5718    9.2864 N.pl3   1  UNL1       -0.2781
     20 H          15.8881   41.1110    9.8255 H       1  UNL1        0.1555
     21 C          14.5682   41.2364    8.2273 C.ar    1  UNL1        0.1361
     22 C          13.2557   40.8647    7.9382 C.ar    1  UNL1        0.0492
     23 C          12.5874   41.5203    6.9041 C.ar    1  UNL1        0.0641
     24 C          14.4994   42.8514    6.4974 C.ar    1  UNL1        0.1406
     25 C          15.1726   43.9242    5.7203 C.3     1  UNL1        0.0737
     26 N          13.2205   42.5005    6.2036 N.ar    1  UNL1       -0.2349
     27 N          15.1635   42.2220    7.5014 N.ar    1  UNL1       -0.2159
     28 C          11.1820   41.1398    6.5774 C.3     1  UNL1        0.0564
     29 C          10.6524   40.1086    7.5758 C.3     1  UNL1        0.0087
     30 C           9.2506   39.6328    7.1857 C.3     1  UNL1        0.0178
     31 C           9.0815   39.4876    5.6675 C.3     1  UNL1        0.0731
     32 C          11.0745   40.6571    5.1185 C.3     1  UNL1        0.0789
     33 N          10.3804   39.3715    5.0051 N.3     1  UNL1       -0.2596
     34 C          10.1229   39.1592    3.5910 C.3     1  UNL1        0.1795
     35 C           9.8349   37.7433    3.3464 C.1     1  UNL1        0.0912
     36 N           9.6072   36.6254    3.1533 N.1     1  UNL1       -0.1944
@<TRIPOS>BOND
     1     1     6    1
     2     1     4   ar
     3     6     7   am
     4    10     7    1
     5    10    11    1
     6    11    13    1
     7    12    13    1
     8    14    13    1
     9    14    15    1
    10    15    16    1
    11    16    17    1
    12    17    18    1
    13    18    14    1
    14     2     5   ar
    15     3     5   ar
    16     3    19    1
    17    21    27   ar
    18    22    23   ar
    19    28    23    1
    20    28    29    1
    21    29    30    1
    22    30    31    1
    23    31    33    1
    24    34    33    1
    25    34    35    1
    26    32    33    1
    27    32    28    1
    28    24    26   ar
    29    25    24    1
    30    19    21    1
    31     1     2   ar
    32     6     8    2
    33     3     4   ar
    34    21    22   ar
    35    23    26   ar
    36    24    27   ar
    37    35    36    3
    38     7     9    1
    39    19    20    1
@<TRIPOS>MOLECULE
MolPort-047-073-926 MCULE-9516720595 PubChem-132768183
 36 39 0 0 0
SMALL
GASTEIGER

@<TRIPOS>ATOM
      1 C           9.5501   41.1685    7.0179 C.ar    1  UNL1        0.1429
      2 C          10.0013   39.8921    7.3665 C.ar    1  UNL1        0.0619
      3 C          11.7212   41.4558    6.5449 C.ar    1  UNL1        0.1648
      4 N          10.5019   42.0304    6.5644 N.ar    1  UNL1       -0.2193
      5 S          11.6630   39.8732    7.0847 S.2     1  UNL1       -0.0507
      6 C           8.1412   41.5681    7.1289 C.2     1  UNL1        0.2642
      7 N           7.7764   42.9447    7.0109 N.am    1  UNL1       -0.2982
      8 O           7.2561   40.6925    7.3292 O.2     1  UNL1       -0.2685
      9 H           8.4817   43.6136    6.8550 H       1  UNL1        0.1498
     10 C           6.3952   43.3879    7.1141 C.3     1  UNL1        0.1070
     11 C           6.2232   44.2589    8.3461 C.3     1  UNL1        0.0936
     12 C           3.8788   44.4408    8.2959 C.3     1  UNL1        0.0896
     13 N           4.9953   43.8982    9.0538 N.3     1  UNL1       -0.2714
     14 C           4.8253   42.4391    9.1458 C.3     1  UNL1        0.0576
     15 C           3.3627   42.0593    9.2725 C.3     1  UNL1        0.0160
     16 C           3.3524   40.8076   10.1189 C.3     1  UNL1        0.0014
     17 C           4.5395   40.9391   11.0497 C.3     1  UNL1        0.0014
     18 C           5.5620   41.7894   10.3194 C.3     1  UNL1        0.0160
     19 N          12.9192   42.1124    6.1190 N.pl3   1  UNL1       -0.2781
     20 H          12.9014   42.5613    5.2430 H       1  UNL1        0.1555
     21 C          14.1415   42.1700    6.8620 C.ar    1  UNL1        0.1361
     22 C          14.3697   41.2341    7.8702 C.ar    1  UNL1        0.0492
     23 C          15.5647   41.3009    8.5865 C.ar    1  UNL1        0.0641
     24 C          16.2403   43.1713    7.3066 C.ar    1  UNL1        0.1406
     25 C          17.2496   44.2181    7.0009 C.3     1  UNL1        0.0737
     26 N          16.4771   42.2668    8.2919 N.ar    1  UNL1       -0.2349
     27 N          15.0810   43.1194    6.6004 N.ar    1  UNL1       -0.2159
     28 C          15.8309   40.3093    9.6695 C.3     1  UNL1        0.0564
     29 C          17.3326   40.1822    9.9322 C.3     1  UNL1        0.0087
     30 C          17.6211   39.0899   10.9654 C.3     1  UNL1        0.0178
     31 C          16.6953   37.8760   10.8100 C.3     1  UNL1        0.0731
     32 C          15.1730   38.9558    9.3412 C.3     1  UNL1        0.0789
     33 N          16.1072   37.8343    9.4715 N.3     1  UNL1       -0.2596
     34 C          15.3152   36.6191    9.3890 C.3     1  UNL1        0.1795
     35 C          14.1527   36.7235   10.2752 C.1     1  UNL1        0.0912
     36 N          13.2349   36.8057   10.9751 N.1     1  UNL1       -0.1944
@<TRIPOS>BOND
     1     1     6    1
     2     1     4   ar
     3     6     7   am
     4    10     7    1
     5    10    11    1
     6    11    13    1
     7    12    13    1
     8    14    13    1
     9    14    15    1
    10    15    16    1
    11    16    17    1
    12    17    18    1
    13    18    14    1
    14     2     5   ar
    15     3     5   ar
    16     3    19    1
    17    21    27   ar
    18    22    23   ar
    19    28    23    1
    20    28    29    1
    21    29    30    1
    22    30    31    1
    23    31    33    1
    24    34    33    1
    25    34    35    1
    26    32    33    1
    27    32    28    1
    28    24    26   ar
    29    25    24    1
    30    19    21    1
    31     1     2   ar
    32     6     8    2
    33     3     4   ar
    34    21    22   ar
    35    23    26   ar
    36    24    27   ar
    37    35    36    3
    38     7     9    1
    39    19    20    1
@<TRIPOS>MOLECULE
MolPort-047-073-926 MCULE-9516720595 PubChem-132768183
 36 39 0 0 0
SMALL
GASTEIGER

@<TRIPOS>ATOM
      1 C           8.6972   40.2279    5.8543 C.ar    1  UNL1        0.1429
      2 C           9.2419   39.3009    4.9609 C.ar    1  UNL1        0.0619
      3 C          10.6921   41.2034    5.5571 C.ar    1  UNL1        0.1648
      4 N           9.5001   41.2779    6.1820 N.ar    1  UNL1       -0.2193
      5 S          10.7922   39.8453    4.5849 S.2     1  UNL1       -0.0507
      6 C           7.3455   40.0904    6.4120 C.2     1  UNL1        0.2642
      7 N           6.9743   40.8274    7.5786 N.am    1  UNL1       -0.2982
      8 O           6.5152   39.3196    5.8582 O.2     1  UNL1       -0.2685
      9 H           7.6364   41.4238    7.9971 H       1  UNL1        0.1498
     10 C           5.6484   40.7235    8.1668 C.3     1  UNL1        0.1070
     11 C           5.6875   41.1854    9.6129 C.3     1  UNL1        0.0936
     12 C           4.2673   41.8208   11.3767 C.3     1  UNL1        0.0896
     13 N           4.4706   41.9274    9.9405 N.3     1  UNL1       -0.2714
     14 C           4.5896   43.3533    9.5955 C.3     1  UNL1        0.0576
     15 C           3.5088   43.7788    8.6207 C.3     1  UNL1        0.0160
     16 C           4.1436   44.8578    7.7747 C.3     1  UNL1        0.0014
     17 C           5.6135   44.5014    7.7007 C.3     1  UNL1        0.0014
     18 C           5.9333   43.7440    8.9760 C.3     1  UNL1        0.0160
     19 N          11.7448   42.1616    5.7039 N.pl3   1  UNL1       -0.2781
     20 H          11.6598   43.0062    5.2053 H       1  UNL1        0.1555
     21 C          12.9114   41.9929    6.5162 C.ar    1  UNL1        0.1361
     22 C          12.9327   40.9798    7.4743 C.ar    1  UNL1        0.0492
     23 C          14.0755   40.8257    8.2590 C.ar    1  UNL1        0.0641
     24 C          15.1020   42.6388    7.1402 C.ar    1  UNL1        0.1406
     25 C          16.2727   43.5357    6.9584 C.3     1  UNL1        0.0737
     26 N          15.1380   41.6567    8.0779 N.ar    1  UNL1       -0.2349
     27 N          13.9960   42.8016    6.3684 N.ar    1  UNL1       -0.2159
     28 C          14.1213   39.7479    9.2901 C.3     1  UNL1        0.0564
     29 C          13.3021   40.1393   10.5216 C.3     1  UNL1        0.0087
     30 C          13.4313   39.0877   11.6267 C.3     1  UNL1        0.0178
     31 C          14.8470   38.5028   11.7176 C.3     1  UNL1        0.0731
     32 C          15.5784   39.3917    9.6401 C.3     1  UNL1        0.0789
     33 N          15.8218   39.3912   11.0852 N.3     1  UNL1       -0.2596
     34 C          17.1339   38.8010   11.2876 C.3     1  UNL1        0.1795
     35 C          18.0160   39.1587   10.1733 C.1     1  UNL1        0.0912
     36 N          18.7127   39.4411    9.2936 N.1     1  UNL1       -0.1944
@<TRIPOS>BOND
     1     1     6    1
     2     1     4   ar
     3     6     7   am
     4    10     7    1
     5    10    11    1
     6    11    13    1
     7    12    13    1
     8    14    13    1
     9    14    15    1
    10    15    16    1
    11    16    17    1
    12    17    18    1
    13    18    14    1
    14     2     5   ar
    15     3     5   ar
    16     3    19    1
    17    21    27   ar
    18    22    23   ar
    19    28    23    1
    20    28    29    1
    21    29    30    1
    22    30    31    1
    23    31    33    1
    24    34    33    1
    25    34    35    1
    26    32    33    1
    27    32    28    1
    28    24    26   ar
    29    25    24    1
    30    19    21    1
    31     1     2   ar
    32     6     8    2
    33     3     4   ar
    34    21    22   ar
    35    23    26   ar
    36    24    27   ar
    37    35    36    3
    38     7     9    1
    39    19    20    1
@<TRIPOS>MOLECULE
MolPort-047-073-926 MCULE-9516720595 PubChem-132768183
 36 39 0 0 0
SMALL
GASTEIGER

@<TRIPOS>ATOM
      1 C           8.8403   40.1017    5.6023 C.ar    1  UNL1        0.1429
      2 C           9.2616   39.2023    4.6185 C.ar    1  UNL1        0.0619
      3 C          10.9282   40.8703    5.3386 C.ar    1  UNL1        0.1648
      4 N           9.7626   41.0221    5.9983 N.ar    1  UNL1       -0.2193
      5 S          10.8576   39.6009    4.2508 S.2     1  UNL1       -0.0507
      6 C           7.4908   40.0675    6.1809 C.2     1  UNL1        0.2642
      7 N           7.1460   40.9559    7.2457 N.am    1  UNL1       -0.2982
      8 O           6.6391   39.2514    5.7352 O.2     1  UNL1       -0.2685
      9 H           7.8247   41.5857    7.5805 H       1  UNL1        0.1498
     10 C           5.8233   40.9584    7.8501 C.3     1  UNL1        0.1070
     11 C           5.7661   41.9902    8.9628 C.3     1  UNL1        0.0936
     12 C           7.3093   41.8632   10.7331 C.3     1  UNL1        0.0896
     13 N           6.0324   41.3577   10.2541 N.3     1  UNL1       -0.2714
     14 C           5.0010   41.6910   11.2497 C.3     1  UNL1        0.0576
     15 C           4.3045   40.4457   11.7632 C.3     1  UNL1        0.0160
     16 C           2.8898   40.8817   12.0659 C.3     1  UNL1        0.0014
     17 C           2.5843   41.9823   11.0718 C.3     1  UNL1        0.0014
     18 C           3.9120   42.6375   10.7395 C.3     1  UNL1        0.0160
     19 N          12.0853   41.6878    5.5401 N.pl3   1  UNL1       -0.2781
     20 H          12.2362   42.4223    4.9022 H       1  UNL1        0.1555
     21 C          13.0414   41.5253    6.5930 C.ar    1  UNL1        0.1361
     22 C          12.7742   40.6223    7.6215 C.ar    1  UNL1        0.0492
     23 C          13.7141   40.4730    8.6412 C.ar    1  UNL1        0.0641
     24 C          15.1088   42.0779    7.6060 C.ar    1  UNL1        0.1406
     25 C          16.3692   42.8649    7.5959 C.3     1  UNL1        0.0737
     26 N          14.8628   41.2024    8.6148 N.ar    1  UNL1       -0.2349
     27 N          14.2029   42.2347    6.6058 N.ar    1  UNL1       -0.2159
     28 C          13.4499   39.5119    9.7518 C.3     1  UNL1        0.0564
     29 C          14.5058   39.6479   10.8504 C.3     1  UNL1        0.0087
     30 C          14.3049   38.5933   11.9419 C.3     1  UNL1        0.0178
     31 C          13.8609   37.2385   11.3742 C.3     1  UNL1        0.0731
     32 C          13.3426   38.0732    9.2119 C.3     1  UNL1        0.0789
     33 N          14.1890   37.1340    9.9526 N.3     1  UNL1       -0.2596
     34 C          13.8083   35.7996    9.5220 C.3     1  UNL1        0.1795
     35 C          14.9362   35.1572    8.8418 C.1     1  UNL1        0.0912
     36 N          15.8268   34.6497    8.3048 N.1     1  UNL1       -0.1944
@<TRIPOS>BOND
     1     1     6    1
     2     1     4   ar
     3     6     7   am
     4    10     7    1
     5    10    11    1
     6    11    13    1
     7    12    13    1
     8    14    13    1
     9    14    15    1
    10    15    16    1
    11    16    17    1
    12    17    18    1
    13    18    14    1
    14     2     5   ar
    15     3     5   ar
    16     3    19    1
    17    21    27   ar
    18    22    23   ar
    19    28    23    1
    20    28    29    1
    21    29    30    1
    22    30    31    1
    23    31    33    1
    24    34    33    1
    25    34    35    1
    26    32    33    1
    27    32    28    1
    28    24    26   ar
    29    25    24    1
    30    19    21    1
    31     1     2   ar
    32     6     8    2
    33     3     4   ar
    34    21    22   ar
    35    23    26   ar
    36    24    27   ar
    37    35    36    3
    38     7     9    1
    39    19    20    1
@<TRIPOS>MOLECULE
MolPort-047-073-926 MCULE-9516720595 PubChem-132768183
 36 39 0 0 0
SMALL
GASTEIGER

@<TRIPOS>ATOM
      1 C           8.9106   40.6605    6.0886 C.ar    1  UNL1        0.1429
      2 C           9.2408   39.7320    5.0971 C.ar    1  UNL1        0.0619
      3 C          10.9749   41.4012    5.6308 C.ar    1  UNL1        0.1648
      4 N           9.8701   41.5815    6.3816 N.ar    1  UNL1       -0.2193
      5 S          10.8032   40.1051    4.5866 S.2     1  UNL1       -0.0507
      6 C           7.6143   40.6547    6.7790 C.2     1  UNL1        0.2642
      7 N           7.4818   41.2781    8.0580 N.am    1  UNL1       -0.2982
      8 O           6.6202   40.0972    6.2394 O.2     1  UNL1       -0.2685
      9 H           8.2694   41.7078    8.4633 H       1  UNL1        0.1498
     10 C           6.2193   41.2973    8.7793 C.3     1  UNL1        0.1070
     11 C           5.2697   42.2896    8.1316 C.3     1  UNL1        0.0936
     12 C           4.0849   44.3003    8.4230 C.3     1  UNL1        0.0896
     13 N           4.7451   43.2166    9.1336 N.3     1  UNL1       -0.2714
     14 C           3.7567   42.5707   10.0122 C.3     1  UNL1        0.0576
     15 C           4.3623   42.2086   11.3544 C.3     1  UNL1        0.0160
     16 C           3.6387   40.9549   11.7880 C.3     1  UNL1        0.0014
     17 C           3.2873   40.2274   10.5074 C.3     1  UNL1        0.0014
     18 C           3.1392   41.2936    9.4380 C.3     1  UNL1        0.0160
     19 N          12.1512   42.2120    5.7130 N.pl3   1  UNL1       -0.2781
     20 H          12.2083   42.9878    5.1096 H       1  UNL1        0.1555
     21 C          13.2518   41.9877    6.6005 C.ar    1  UNL1        0.1361
     22 C          13.1772   40.9491    7.5281 C.ar    1  UNL1        0.0492
     23 C          14.2564   40.7409    8.3869 C.ar    1  UNL1        0.0641
     24 C          15.4089   42.5527    7.3961 C.ar    1  UNL1        0.1406
     25 C          16.6135   43.4198    7.3234 C.3     1  UNL1        0.0737
     26 N          15.3512   41.5452    8.3053 N.ar    1  UNL1       -0.2349
     27 N          14.3657   42.7683    6.5531 N.ar    1  UNL1       -0.2159
     28 C          14.1991   39.6350    9.3872 C.3     1  UNL1        0.0564
     29 C          13.5354   40.1077   10.6820 C.3     1  UNL1        0.0087
     30 C          13.5694   39.0121   11.7508 C.3     1  UNL1        0.0178
     31 C          14.8777   38.2104   11.7280 C.3     1  UNL1        0.0731
     32 C          15.6015   39.0439    9.6251 C.3     1  UNL1        0.0789
     33 N          15.9367   38.9565   11.0490 N.3     1  UNL1       -0.2596
     34 C          17.1495   38.1621   11.1446 C.3     1  UNL1        0.1795
     35 C          18.1778   38.7182   10.2610 C.1     1  UNL1        0.0912
     36 N          18.9900   39.1573    9.5634 N.1     1  UNL1       -0.1944
@<TRIPOS>BOND
     1     1     6    1
     2     1     4   ar
     3     6     7   am
     4    10     7    1
     5    10    11    1
     6    11    13    1
     7    12    13    1
     8    14    13    1
     9    14    15    1
    10    15    16    1
    11    16    17    1
    12    17    18    1
    13    18    14    1
    14     2     5   ar
    15     3     5   ar
    16     3    19    1
    17    21    27   ar
    18    22    23   ar
    19    28    23    1
    20    28    29    1
    21    29    30    1
    22    30    31    1
    23    31    33    1
    24    34    33    1
    25    34    35    1
    26    32    33    1
    27    32    28    1
    28    24    26   ar
    29    25    24    1
    30    19    21    1
    31     1     2   ar
    32     6     8    2
    33     3     4   ar
    34    21    22   ar
    35    23    26   ar
    36    24    27   ar
    37    35    36    3
    38     7     9    1
    39    19    20    1
@<TRIPOS>MOLECULE
MolPort-047-073-926 MCULE-9516720595 PubChem-132768183
 36 39 0 0 0
SMALL
GASTEIGER

@<TRIPOS>ATOM
      1 C           8.5078   40.2666    5.8875 C.ar    1  UNL1        0.1429
      2 C           8.9968   39.3465    4.9555 C.ar    1  UNL1        0.0619
      3 C          10.4910   41.2320    5.4946 C.ar    1  UNL1        0.1648
      4 N           9.3349   41.3071    6.1836 N.ar    1  UNL1       -0.2193
      5 S          10.5287   39.8849    4.5030 S.2     1  UNL1       -0.0507
      6 C           7.1871   40.1316    6.5156 C.2     1  UNL1        0.2642
      7 N           6.8532   40.9234    7.6574 N.am    1  UNL1       -0.2982
      8 O           6.3502   39.3145    6.0440 O.2     1  UNL1       -0.2685
      9 H           7.5200   41.5554    8.0112 H       1  UNL1        0.1498
     10 C           5.5589   40.8242    8.3127 C.3     1  UNL1        0.1070
     11 C           5.2133   42.1460    8.9758 C.3     1  UNL1        0.0936
     12 C           5.7204   41.2469   11.0891 C.3     1  UNL1        0.0896
     13 N           6.0255   42.3377   10.1767 N.3     1  UNL1       -0.2714
     14 C           7.4656   42.2985    9.8753 C.3     1  UNL1        0.0576
     15 C           8.2573   41.7182   11.0311 C.3     1  UNL1        0.0160
     16 C           9.5915   42.4264   10.9900 C.3     1  UNL1        0.0014
     17 C           9.2999   43.8064   10.4392 C.3     1  UNL1        0.0014
     18 C           8.0805   43.6612    9.5480 C.3     1  UNL1        0.0160
     19 N          11.5572   42.1812    5.5955 N.pl3   1  UNL1       -0.2781
     20 H          11.4773   43.0082    5.0674 H       1  UNL1        0.1555
     21 C          12.7302   42.0270    6.4014 C.ar    1  UNL1        0.1361
     22 C          12.7635   41.0243    7.3699 C.ar    1  UNL1        0.0492
     23 C          13.9125   40.8843    8.1482 C.ar    1  UNL1        0.0641
     24 C          14.9218   42.6908    7.0032 C.ar    1  UNL1        0.1406
     25 C          16.0865   43.5917    6.8038 C.3     1  UNL1        0.0737
     26 N          14.9693   41.7188    7.9508 N.ar    1  UNL1       -0.2349
     27 N          13.8096   42.8398    6.2375 N.ar    1  UNL1       -0.2159
     28 C          13.9711   39.8177    9.1902 C.3     1  UNL1        0.0564
     29 C          13.2336   40.2552   10.4572 C.3     1  UNL1        0.0087
     30 C          13.3803   39.2124   11.5684 C.3     1  UNL1        0.0178
     31 C          14.7753   38.5736   11.5933 C.3     1  UNL1        0.0731
     32 C          15.4299   39.4089    9.4685 C.3     1  UNL1        0.0789
     33 N          15.7489   39.4157   10.8987 N.3     1  UNL1       -0.2596
     34 C          17.0462   38.7770   11.0404 C.3     1  UNL1        0.1795
     35 C          17.0193   37.4542   10.4103 C.1     1  UNL1        0.0912
     36 N          16.9979   36.4097    9.9127 N.1     1  UNL1       -0.1944
@<TRIPOS>BOND
     1     1     6    1
     2     1     4   ar
     3     6     7   am
     4    10     7    1
     5    10    11    1
     6    11    13    1
     7    12    13    1
     8    14    13    1
     9    14    15    1
    10    15    16    1
    11    16    17    1
    12    17    18    1
    13    18    14    1
    14     2     5   ar
    15     3     5   ar
    16     3    19    1
    17    21    27   ar
    18    22    23   ar
    19    28    23    1
    20    28    29    1
    21    29    30    1
    22    30    31    1
    23    31    33    1
    24    34    33    1
    25    34    35    1
    26    32    33    1
    27    32    28    1
    28    24    26   ar
    29    25    24    1
    30    19    21    1
    31     1     2   ar
    32     6     8    2
    33     3     4   ar
    34    21    22   ar
    35    23    26   ar
    36    24    27   ar
    37    35    36    3
    38     7     9    1
    39    19    20    1
@<TRIPOS>MOLECULE
MolPort-047-073-926 MCULE-9516720595 PubChem-132768183
 36 39 0 0 0
SMALL
GASTEIGER

@<TRIPOS>ATOM
      1 C          14.1474   39.7638    9.6269 C.ar    1  UNL1        0.1429
      2 C          13.7441   38.4885   10.0333 C.ar    1  UNL1        0.0619
      3 C          11.9325   40.0982    9.5802 C.ar    1  UNL1        0.1648
      4 N          13.1450   40.6511    9.3773 N.ar    1  UNL1       -0.2193
      5 S          12.0590   38.5038   10.0717 S.2     1  UNL1       -0.0507
      6 C          15.5597   40.1367    9.4746 C.2     1  UNL1        0.2642
      7 N          15.9106   41.3660    8.8361 N.am    1  UNL1       -0.2982
      8 O          16.4604   39.3680    9.9085 O.2     1  UNL1       -0.2685
      9 H          15.1932   41.9526    8.5035 H       1  UNL1        0.1498
     10 C          17.2946   41.7771    8.6624 C.3     1  UNL1        0.1070
     11 C          17.4058   43.2856    8.7968 C.3     1  UNL1        0.0936
     12 C          17.8227   42.9459    6.5072 C.3     1  UNL1        0.0896
     13 N          17.3459   43.9172    7.4791 N.3     1  UNL1       -0.2714
     14 C          15.9710   44.2968    7.1163 C.3     1  UNL1        0.0576
     15 C          15.0891   43.0764    6.9361 C.3     1  UNL1        0.0160
     16 C          14.0916   43.4649    5.8697 C.3     1  UNL1        0.0014
     17 C          14.8221   44.4372    4.9676 C.3     1  UNL1        0.0014
     18 C          15.8610   45.1245    5.8338 C.3     1  UNL1        0.0160
     19 N          10.6893   40.7830    9.3981 N.pl3   1  UNL1       -0.2781
     20 H          10.4679   41.0830    8.4869 H       1  UNL1        0.1555
     21 C           9.7410   41.0677   10.4320 C.ar    1  UNL1        0.1361
     22 C           8.4521   41.4686   10.0817 C.ar    1  UNL1        0.0492
     23 C           7.5375   41.7426   11.0985 C.ar    1  UNL1        0.0641
     24 C           9.1735   41.2230   12.7254 C.ar    1  UNL1        0.1406
     25 C           9.5648   41.0899   14.1526 C.3     1  UNL1        0.0737
     26 N           7.9142   41.6148   12.4000 N.ar    1  UNL1       -0.2349
     27 N          10.0756   40.9529   11.7463 N.ar    1  UNL1       -0.2159
     28 C           6.1523   42.1724   10.7473 C.3     1  UNL1        0.0564
     29 C           5.2901   40.9676   10.3657 C.3     1  UNL1        0.0087
     30 C           3.9001   41.4096    9.9007 C.3     1  UNL1        0.0178
     31 C           3.9411   42.7017    9.0740 C.3     1  UNL1        0.0731
     32 C           6.1799   43.2500    9.6469 C.3     1  UNL1        0.0789
     33 N           5.2802   42.9350    8.5339 N.3     1  UNL1       -0.2596
     34 C           5.2067   44.1268    7.7061 C.3     1  UNL1        0.1795
     35 C           3.8847   44.7443    7.8418 C.1     1  UNL1        0.0912
     36 N           2.8406   45.2316    7.9487 N.1     1  UNL1       -0.1944
@<TRIPOS>BOND
     1     1     6    1
     2     1     4   ar
     3     6     7   am
     4    10     7    1
     5    10    11    1
     6    11    13    1
     7    12    13    1
     8    14    13    1
     9    14    15    1
    10    15    16    1
    11    16    17    1
    12    17    18    1
    13    18    14    1
    14     2     5   ar
    15     3     5   ar
    16     3    19    1
    17    21    27   ar
    18    22    23   ar
    19    28    23    1
    20    28    29    1
    21    29    30    1
    22    30    31    1
    23    31    33    1
    24    34    33    1
    25    34    35    1
    26    32    33    1
    27    32    28    1
    28    24    26   ar
    29    25    24    1
    30    19    21    1
    31     1     2   ar
    32     6     8    2
    33     3     4   ar
    34    21    22   ar
    35    23    26   ar
    36    24    27   ar
    37    35    36    3
    38     7     9    1
    39    19    20    1
@<TRIPOS>MOLECULE
MolPort-047-073-926 MCULE-9516720595 PubChem-132768183
 36 39 0 0 0
SMALL
GASTEIGER

@<TRIPOS>ATOM
      1 C           9.5186   41.2677   10.7451 C.ar    1  UNL1        0.1429
      2 C          10.1165   41.1649   12.0045 C.ar    1  UNL1        0.0619
      3 C          11.4570   40.3443   10.1052 C.ar    1  UNL1        0.1648
      4 N          10.2611   40.8138    9.6975 N.ar    1  UNL1       -0.2193
      5 S          11.6351   40.4743   11.7637 S.2     1  UNL1       -0.0507
      6 C           8.1752   41.8280   10.5495 C.2     1  UNL1        0.2642
      7 N           7.0569   41.2624   11.2362 N.am    1  UNL1       -0.2982
      8 O           8.0128   42.8086    9.7734 O.2     1  UNL1       -0.2685
      9 H           7.2037   40.4969   11.8376 H       1  UNL1        0.1498
     10 C           5.7088   41.7829   11.0740 C.3     1  UNL1        0.1070
     11 C           4.8862   40.8299   10.2247 C.3     1  UNL1        0.0936
     12 C           2.8249   41.5819    9.3780 C.3     1  UNL1        0.0896
     13 N           4.2559   41.5515    9.1200 N.3     1  UNL1       -0.2714
     14 C           4.7381   42.9390    9.0270 C.3     1  UNL1        0.0576
     15 C           3.6077   43.8972    8.7048 C.3     1  UNL1        0.0160
     16 C           4.2435   44.9949    7.8838 C.3     1  UNL1        0.0014
     17 C           5.3722   44.3300    7.1244 C.3     1  UNL1        0.0014
     18 C           5.8287   43.1605    7.9765 C.3     1  UNL1        0.0160
     19 N          12.4545   39.8030    9.2334 N.pl3   1  UNL1       -0.2781
     20 H          12.1425   39.2864    8.4555 H       1  UNL1        0.1555
     21 C          13.8686   39.9509    9.3995 C.ar    1  UNL1        0.1361
     22 C          14.5510   40.8856    8.6214 C.ar    1  UNL1        0.0492
     23 C          15.9287   41.0202    8.7932 C.ar    1  UNL1        0.0641
     24 C          15.8967   39.3405   10.4577 C.ar    1  UNL1        0.1406
     25 C          16.6218   38.5053   11.4500 C.3     1  UNL1        0.0737
     26 N          16.5755   40.2465    9.7071 N.ar    1  UNL1       -0.2349
     27 N          14.5548   39.1976   10.3017 N.ar    1  UNL1       -0.2159
     28 C          16.6798   42.0145    7.9721 C.3     1  UNL1        0.0564
     29 C          17.4932   42.9529    8.8655 C.3     1  UNL1        0.0087
     30 C          18.1811   44.0425    8.0389 C.3     1  UNL1        0.0178
     31 C          17.3053   44.5424    6.8822 C.3     1  UNL1        0.0731
     32 C          15.7255   42.7752    7.0322 C.3     1  UNL1        0.0789
     33 N          15.8966   44.2280    7.1188 N.3     1  UNL1       -0.2596
     34 C          15.1387   44.8041    6.0212 C.3     1  UNL1        0.1795
     35 C          13.9043   44.0413    5.8166 C.1     1  UNL1        0.0912
     36 N          12.9294   43.4392    5.6548 N.1     1  UNL1       -0.1944
@<TRIPOS>BOND
     1     1     6    1
     2     1     4   ar
     3     6     7   am
     4    10     7    1
     5    10    11    1
     6    11    13    1
     7    12    13    1
     8    14    13    1
     9    14    15    1
    10    15    16    1
    11    16    17    1
    12    17    18    1
    13    18    14    1
    14     2     5   ar
    15     3     5   ar
    16     3    19    1
    17    21    27   ar
    18    22    23   ar
    19    28    23    1
    20    28    29    1
    21    29    30    1
    22    30    31    1
    23    31    33    1
    24    34    33    1
    25    34    35    1
    26    32    33    1
    27    32    28    1
    28    24    26   ar
    29    25    24    1
    30    19    21    1
    31     1     2   ar
    32     6     8    2
    33     3     4   ar
    34    21    22   ar
    35    23    26   ar
    36    24    27   ar
    37    35    36    3
    38     7     9    1
    39    19    20    1
@<TRIPOS>MOLECULE
MolPort-047-073-926 MCULE-9516720595 PubChem-132768183
 36 39 0 0 0
SMALL
GASTEIGER

@<TRIPOS>ATOM
      1 C          10.2833   40.7508    9.4175 C.ar    1  UNL1        0.1429
      2 C          10.2910   41.1597   10.7543 C.ar    1  UNL1        0.0619
      3 C          12.1567   39.7044   10.0619 C.ar    1  UNL1        0.1648
      4 N          11.3149   39.9470    9.0375 N.ar    1  UNL1       -0.2193
      5 S          11.6568   40.4710   11.4625 S.2     1  UNL1       -0.0507
      6 C           9.2351   41.1551    8.4717 C.2     1  UNL1        0.2642
      7 N           8.0766   40.3374    8.2947 N.am    1  UNL1       -0.2982
      8 O           9.3619   42.2253    7.8166 O.2     1  UNL1       -0.2685
      9 H           7.9959   39.5054    8.8148 H       1  UNL1        0.1498
     10 C           7.0133   40.6965    7.3700 C.3     1  UNL1        0.1070
     11 C           5.7767   41.1182    8.1439 C.3     1  UNL1        0.0936
     12 C           5.8056   43.4540    7.8703 C.3     1  UNL1        0.0896
     13 N           6.0183   42.3851    8.8333 N.3     1  UNL1       -0.2714
     14 C           5.0877   42.5831    9.9562 C.3     1  UNL1        0.0576
     15 C           5.1222   41.4104   10.9170 C.3     1  UNL1        0.0160
     16 C           3.7191   41.3115   11.4689 C.3     1  UNL1        0.0014
     17 C           2.8123   41.7969   10.3576 C.3     1  UNL1        0.0014
     18 C           3.6283   42.7813    9.5406 C.3     1  UNL1        0.0160
     19 N          13.3332   38.8951    9.9691 N.pl3   1  UNL1       -0.2781
     20 H          13.2092   37.9187    9.9446 H       1  UNL1        0.1555
     21 C          14.6757   39.3884    9.9090 C.ar    1  UNL1        0.1361
     22 C          14.9869   40.4062    9.0080 C.ar    1  UNL1        0.0492
     23 C          16.2985   40.8784    8.9595 C.ar    1  UNL1        0.0641
     24 C          16.9221   39.3532   10.6560 C.ar    1  UNL1        0.1406
     25 C          17.9660   38.7834   11.5468 C.3     1  UNL1        0.0737
     26 N          17.2409   40.3442    9.7834 N.ar    1  UNL1       -0.2349
     27 N          15.6491   38.8826   10.7146 N.ar    1  UNL1       -0.2159
     28 C          16.6546   41.9676    8.0036 C.3     1  UNL1        0.0564
     29 C          17.2752   43.1558    8.7409 C.3     1  UNL1        0.0087
     30 C          17.5443   44.3194    7.7832 C.3     1  UNL1        0.0178
     31 C          16.4430   44.4761    6.7262 C.3     1  UNL1        0.0731
     32 C          15.4312   42.3714    7.1592 C.3     1  UNL1        0.0789
     33 N          15.2084   43.8198    7.1556 N.3     1  UNL1       -0.2596
     34 C          14.2056   44.0856    6.1383 C.3     1  UNL1        0.1795
     35 C          13.1789   43.0404    6.1689 C.1     1  UNL1        0.0912
     36 N          12.3679   42.2153    6.1928 N.1     1  UNL1       -0.1944
@<TRIPOS>BOND
     1     1     6    1
     2     1     4   ar
     3     6     7   am
     4    10     7    1
     5    10    11    1
     6    11    13    1
     7    12    13    1
     8    14    13    1
     9    14    15    1
    10    15    16    1
    11    16    17    1
    12    17    18    1
    13    18    14    1
    14     2     5   ar
    15     3     5   ar
    16     3    19    1
    17    21    27   ar
    18    22    23   ar
    19    28    23    1
    20    28    29    1
    21    29    30    1
    22    30    31    1
    23    31    33    1
    24    34    33    1
    25    34    35    1
    26    32    33    1
    27    32    28    1
    28    24    26   ar
    29    25    24    1
    30    19    21    1
    31     1     2   ar
    32     6     8    2
    33     3     4   ar
    34    21    22   ar
    35    23    26   ar
    36    24    27   ar
    37    35    36    3
    38     7     9    1
    39    19    20    1
