@<TRIPOS>MOLECULE
Molport-020-279-129 MCULE-4540815078 MCULE-9333749686 PubChem-110255884
 27 29 0 0 0
SMALL
GASTEIGER

@<TRIPOS>ATOM
      1 C           8.4982   39.8128    6.8868 C.3     1  UNL1        0.0522
      2 C           9.9398   40.1474    7.0181 C.ar    1  UNL1        0.0635
      3 C          10.4682   41.2357    6.3273 C.ar    1  UNL1        0.0492
      4 C          11.8291   41.5272    6.4701 C.ar    1  UNL1        0.1368
      5 C          12.0655   39.6849    7.9430 C.ar    1  UNL1        0.1414
      6 N          12.5948   40.7438    7.2752 N.ar    1  UNL1       -0.2158
      7 N          10.7428   39.3928    7.8112 N.ar    1  UNL1       -0.2348
      8 C          12.9438   38.8529    8.8171 C.3     1  UNL1        0.0785
      9 C          12.1071   38.0407    9.8078 C.3     1  UNL1        0.0110
     10 C          13.0120   37.1908   10.6974 C.3     1  UNL1        0.0220
     11 C          13.9978   38.0853   11.4429 C.3     1  UNL1        0.0935
     12 C          13.9524   39.7315    9.5569 C.3     1  UNL1        0.1009
     13 C          16.1612   38.9019   10.4294 C.2     1  UNL1        0.2415
     14 N          14.7269   38.9102   10.4829 N.am    1  UNL1       -0.2780
     15 O          16.7675   39.6151    9.5857 O.2     1  UNL1       -0.2734
     16 C          16.9588   38.0288   11.3401 C.3     1  UNL1        0.1517
     17 N          16.0707   37.1359   12.0624 N.3     1  UNL1       -0.3135
     18 H          15.4112   37.6850   12.6138 H       1  UNL1        0.1193
     19 H          16.6188   36.5398   12.6827 H       1  UNL1        0.1193
     20 N          12.4440   42.6313    5.7907 N.pl3   1  UNL1       -0.2679
     21 H          11.9396   43.0141    5.0369 H       1  UNL1        0.1565
     22 C          13.7085   43.2419    6.0829 C.ar    1  UNL1        0.2218
     23 C          15.8255   43.0992    7.1315 C.ar    1  UNL1        0.1034
     24 C          16.1538   44.3729    6.6717 C.ar    1  UNL1        0.0414
     25 C          15.2144   45.0609    5.9062 C.ar    1  UNL1        0.1034
     26 N          14.6156   42.5592    6.8308 N.ar    1  UNL1       -0.2120
     27 N          14.0153   44.4874    5.6266 N.ar    1  UNL1       -0.2120
@<TRIPOS>BOND
     1     1     2    1
     2     2     7   ar
     3     3     4   ar
     4     4    20    1
     5     5     6   ar
     6     8     5    1
     7     8     9    1
     8     9    10    1
     9    10    11    1
    10    11    14    1
    11    12    14    1
    12    12     8    1
    13    16    13    1
    14    16    17    1
    15    22    27   ar
    16    23    26   ar
    17    24    25   ar
    18    14    13   am
    19    20    22    1
    20     2     3   ar
    21     4     6   ar
    22     5     7   ar
    23    13    15    2
    24    22    26   ar
    25    23    24   ar
    26    25    27   ar
    27    17    18    1
    28    17    19    1
    29    20    21    1
@<TRIPOS>MOLECULE
Molport-020-279-129 MCULE-4540815078 MCULE-9333749686 PubChem-110255884
 27 29 0 0 0
SMALL
GASTEIGER

@<TRIPOS>ATOM
      1 C           8.7763   41.8987    9.2333 C.3     1  UNL1        0.0522
      2 C           9.9709   41.3168    8.5686 C.ar    1  UNL1        0.0635
      3 C          10.6522   42.0465    7.5969 C.ar    1  UNL1        0.0492
      4 C          11.7739   41.4733    6.9880 C.ar    1  UNL1        0.1368
      5 C          11.4913   39.5255    8.3092 C.ar    1  UNL1        0.1414
      6 N          12.1661   40.2258    7.3597 N.ar    1  UNL1       -0.2158
      7 N          10.3991   40.0740    8.9079 N.ar    1  UNL1       -0.2348
      8 C          11.9587   38.1591    8.6866 C.3     1  UNL1        0.0785
      9 C          11.3408   37.7248   10.0173 C.3     1  UNL1        0.0110
     10 C          11.8219   36.3257   10.3961 C.3     1  UNL1        0.0220
     11 C          13.3448   36.3055   10.4860 C.3     1  UNL1        0.0935
     12 C          13.4849   38.1152    8.7614 C.3     1  UNL1        0.1009
     13 C          14.8437   36.0177    8.4748 C.2     1  UNL1        0.2415
     14 N          13.9118   36.8016    9.2345 N.am    1  UNL1       -0.2780
     15 O          15.3118   36.4633    7.3931 O.2     1  UNL1       -0.2734
     16 C          15.2482   34.6540    8.9270 C.3     1  UNL1        0.1517
     17 N          14.1778   33.7116    8.6551 N.3     1  UNL1       -0.3135
     18 H          13.3373   33.9978    9.1571 H       1  UNL1        0.1193
     19 H          14.4578   32.7806    8.9638 H       1  UNL1        0.1193
     20 N          12.5260   42.1638    5.9799 N.pl3   1  UNL1       -0.2679
     21 H          12.2030   42.0693    5.0547 H       1  UNL1        0.1565
     22 C          13.6939   42.9757    6.1641 C.ar    1  UNL1        0.2218
     23 C          15.8638   43.2139    7.0784 C.ar    1  UNL1        0.1034
     24 C          15.9615   44.4979    6.5461 C.ar    1  UNL1        0.0414
     25 C          14.8835   44.9934    5.8154 C.ar    1  UNL1        0.1034
     26 N          14.7382   42.4795    6.8792 N.ar    1  UNL1       -0.2120
     27 N          13.7749   44.2287    5.6379 N.ar    1  UNL1       -0.2120
@<TRIPOS>BOND
     1     1     2    1
     2     2     7   ar
     3     3     4   ar
     4     4    20    1
     5     5     6   ar
     6     8     5    1
     7     8     9    1
     8     9    10    1
     9    10    11    1
    10    11    14    1
    11    12    14    1
    12    12     8    1
    13    16    13    1
    14    16    17    1
    15    22    27   ar
    16    23    26   ar
    17    24    25   ar
    18    14    13   am
    19    20    22    1
    20     2     3   ar
    21     4     6   ar
    22     5     7   ar
    23    13    15    2
    24    22    26   ar
    25    23    24   ar
    26    25    27   ar
    27    17    18    1
    28    17    19    1
    29    20    21    1
@<TRIPOS>MOLECULE
Molport-020-279-129 MCULE-4540815078 MCULE-9333749686 PubChem-110255884
 27 29 0 0 0
SMALL
GASTEIGER

@<TRIPOS>ATOM
      1 C          13.3766   39.5381   11.0213 C.3     1  UNL1        0.0522
      2 C          12.5470   40.4457   10.1874 C.ar    1  UNL1        0.0635
      3 C          13.0405   40.9238    8.9754 C.ar    1  UNL1        0.0492
      4 C          12.2370   41.7768    8.2111 C.ar    1  UNL1        0.1368
      5 C          10.5343   41.6399    9.8546 C.ar    1  UNL1        0.1414
      6 N          11.0026   42.1140    8.6700 N.ar    1  UNL1       -0.2158
      7 N          11.3077   40.8094   10.6058 N.ar    1  UNL1       -0.2348
      8 C           9.1720   42.0359   10.3186 C.3     1  UNL1        0.0785
      9 C           8.8943   41.4799   11.7168 C.3     1  UNL1        0.0110
     10 C           7.5000   41.8903   12.1855 C.3     1  UNL1        0.0220
     11 C           6.4505   41.3908   11.1973 C.3     1  UNL1        0.0935
     12 C           8.1084   41.5608    9.3288 C.3     1  UNL1        0.1009
     13 C           5.8444   42.6293    9.0823 C.2     1  UNL1        0.2415
     14 N           6.7815   41.8656    9.8561 N.am    1  UNL1       -0.2780
     15 O           6.1567   43.0361    7.9313 O.2     1  UNL1       -0.2734
     16 C           4.5038   42.9861    9.6331 C.3     1  UNL1        0.1517
     17 N           3.6600   43.5006    8.5697 N.3     1  UNL1       -0.3135
     18 H           4.0909   44.3323    8.1660 H       1  UNL1        0.1193
     19 H           2.7444   43.7421    8.9488 H       1  UNL1        0.1193
     20 N          12.6770   42.3086    6.9531 N.pl3   1  UNL1       -0.2679
     21 H          12.1026   42.1200    6.1760 H       1  UNL1        0.1565
     22 C          13.8566   43.0830    6.6968 C.ar    1  UNL1        0.2218
     23 C          16.1885   43.3663    6.9858 C.ar    1  UNL1        0.1034
     24 C          16.1530   44.5375    6.2317 C.ar    1  UNL1        0.0414
     25 C          14.9268   44.9552    5.7183 C.ar    1  UNL1        0.1034
     26 N          15.0462   42.6637    7.2038 N.ar    1  UNL1       -0.2120
     27 N          13.8064   44.2255    5.9580 N.ar    1  UNL1       -0.2120
@<TRIPOS>BOND
     1     1     2    1
     2     2     7   ar
     3     3     4   ar
     4     4    20    1
     5     5     6   ar
     6     8     5    1
     7     8     9    1
     8     9    10    1
     9    10    11    1
    10    11    14    1
    11    12    14    1
    12    12     8    1
    13    16    13    1
    14    16    17    1
    15    22    27   ar
    16    23    26   ar
    17    24    25   ar
    18    14    13   am
    19    20    22    1
    20     2     3   ar
    21     4     6   ar
    22     5     7   ar
    23    13    15    2
    24    22    26   ar
    25    23    24   ar
    26    25    27   ar
    27    17    18    1
    28    17    19    1
    29    20    21    1
@<TRIPOS>MOLECULE
Molport-020-279-129 MCULE-4540815078 MCULE-9333749686 PubChem-110255884
 27 29 0 0 0
SMALL
GASTEIGER

@<TRIPOS>ATOM
      1 C          13.2677   39.9422   10.7005 C.3     1  UNL1        0.0522
      2 C          12.4234   40.4992    9.6123 C.ar    1  UNL1        0.0635
      3 C          13.0187   41.1297    8.5219 C.ar    1  UNL1        0.0492
      4 C          12.1987   41.6446    7.5120 C.ar    1  UNL1        0.1368
      5 C          10.2829   40.8987    8.6921 C.ar    1  UNL1        0.1414
      6 N          10.8498   41.5162    7.6222 N.ar    1  UNL1       -0.2158
      7 N          11.0716   40.3941    9.6799 N.ar    1  UNL1       -0.2348
      8 C           8.7972   40.7795    8.7706 C.3     1  UNL1        0.0785
      9 C           8.1583   41.0792    7.4130 C.3     1  UNL1        0.0110
     10 C           6.6388   40.9537    7.5004 C.3     1  UNL1        0.0220
     11 C           6.0981   41.9051    8.5634 C.3     1  UNL1        0.0935
     12 C           8.2397   41.7119    9.8460 C.3     1  UNL1        0.1009
     13 C           6.0480   41.3425   11.0241 C.2     1  UNL1        0.2415
     14 N           6.7808   41.6561    9.8305 N.am    1  UNL1       -0.2780
     15 O           6.6600   41.1221   12.1034 O.2     1  UNL1       -0.2734
     16 C           4.5593   41.2362   11.0059 C.3     1  UNL1        0.1517
     17 N           4.1579   39.9196   11.4676 N.3     1  UNL1       -0.3135
     18 H           4.5543   39.2084   10.8532 H       1  UNL1        0.1193
     19 H           3.1403   39.8506   11.4553 H       1  UNL1        0.1193
     20 N          12.7392   42.3064    6.3593 N.pl3   1  UNL1       -0.2679
     21 H          12.2574   42.1679    5.5120 H       1  UNL1        0.1565
     22 C          13.9001   43.1465    6.2987 C.ar    1  UNL1        0.2218
     23 C          16.1758   43.4889    6.8509 C.ar    1  UNL1        0.1034
     24 C          16.1591   44.7257    6.2093 C.ar    1  UNL1        0.0414
     25 C          14.9711   45.1444    5.6135 C.ar    1  UNL1        0.1034
     26 N          15.0525   42.7255    6.8842 N.ar    1  UNL1       -0.2120
     27 N          13.8686   44.3527    5.6680 N.ar    1  UNL1       -0.2120
@<TRIPOS>BOND
     1     1     2    1
     2     2     7   ar
     3     3     4   ar
     4     4    20    1
     5     5     6   ar
     6     8     5    1
     7     8     9    1
     8     9    10    1
     9    10    11    1
    10    11    14    1
    11    12    14    1
    12    12     8    1
    13    16    13    1
    14    16    17    1
    15    22    27   ar
    16    23    26   ar
    17    24    25   ar
    18    14    13   am
    19    20    22    1
    20     2     3   ar
    21     4     6   ar
    22     5     7   ar
    23    13    15    2
    24    22    26   ar
    25    23    24   ar
    26    25    27   ar
    27    17    18    1
    28    17    19    1
    29    20    21    1
@<TRIPOS>MOLECULE
Molport-020-279-129 MCULE-4540815078 MCULE-9333749686 PubChem-110255884
 27 29 0 0 0
SMALL
GASTEIGER

@<TRIPOS>ATOM
      1 C          11.5388   40.3797   10.8244 C.3     1  UNL1        0.0522
      2 C          11.0467   40.9855    9.5602 C.ar    1  UNL1        0.0635
      3 C          11.9413   41.2759    8.5324 C.ar    1  UNL1        0.0492
      4 C          11.4495   41.8460    7.3532 C.ar    1  UNL1        0.1368
      5 C           9.2573   41.8111    8.2547 C.ar    1  UNL1        0.1414
      6 N          10.1184   42.0996    7.2434 N.ar    1  UNL1       -0.2158
      7 N           9.7254   41.2562    9.4059 N.ar    1  UNL1       -0.2348
      8 C           7.8035   42.1057    8.0896 C.3     1  UNL1        0.0785
      9 C           7.6006   43.3991    7.2976 C.3     1  UNL1        0.0110
     10 C           6.1112   43.6932    7.1312 C.3     1  UNL1        0.0220
     11 C           5.4453   43.7985    8.4998 C.3     1  UNL1        0.0935
     12 C           7.1155   42.1945    9.4518 C.3     1  UNL1        0.1009
     13 C           4.6589   41.7897    9.8116 C.2     1  UNL1        0.2415
     14 N           5.7213   42.5875    9.2686 N.am    1  UNL1       -0.2780
     15 O           4.9220   40.7438   10.4634 O.2     1  UNL1       -0.2734
     16 C           3.2300   42.1585    9.5880 C.3     1  UNL1        0.1517
     17 N           2.5759   41.1259    8.8044 N.3     1  UNL1       -0.3135
     18 H           3.0455   41.0340    7.9036 H       1  UNL1        0.1193
     19 H           1.5995   41.3800    8.6546 H       1  UNL1        0.1193
     20 N          12.3095   42.1724    6.2520 N.pl3   1  UNL1       -0.2679
     21 H          12.0187   41.8595    5.3650 H       1  UNL1        0.1565
     22 C          13.5437   42.9017    6.2939 C.ar    1  UNL1        0.2218
     23 C          14.7722   44.8291    5.6796 C.ar    1  UNL1        0.1034
     24 C          15.8949   44.3421    6.3459 C.ar    1  UNL1        0.0414
     25 C          15.7991   43.1080    6.9858 C.ar    1  UNL1        0.1034
     26 N          13.6230   44.1045    5.6653 N.ar    1  UNL1       -0.2120
     27 N          14.6326   42.4130    6.9492 N.ar    1  UNL1       -0.2120
@<TRIPOS>BOND
     1     1     2    1
     2     2     7   ar
     3     3     4   ar
     4     4    20    1
     5     5     6   ar
     6     8     5    1
     7     8     9    1
     8     9    10    1
     9    10    11    1
    10    11    14    1
    11    12    14    1
    12    12     8    1
    13    16    13    1
    14    16    17    1
    15    22    27   ar
    16    23    26   ar
    17    24    25   ar
    18    14    13   am
    19    20    22    1
    20     2     3   ar
    21     4     6   ar
    22     5     7   ar
    23    13    15    2
    24    22    26   ar
    25    23    24   ar
    26    25    27   ar
    27    17    18    1
    28    17    19    1
    29    20    21    1
@<TRIPOS>MOLECULE
Molport-020-279-129 MCULE-4540815078 MCULE-9333749686 PubChem-110255884
 27 29 0 0 0
SMALL
GASTEIGER

@<TRIPOS>ATOM
      1 C           9.8156   41.9981   11.0618 C.3     1  UNL1        0.0522
      2 C          10.9473   41.5813   10.1940 C.ar    1  UNL1        0.0635
      3 C          11.2471   42.3073    9.0434 C.ar    1  UNL1        0.0492
      4 C          12.3184   41.8916    8.2454 C.ar    1  UNL1        0.1368
      5 C          12.7295   40.0968    9.7384 C.ar    1  UNL1        0.1414
      6 N          13.0338   40.7956    8.6130 N.ar    1  UNL1       -0.2158
      7 N          11.6896   40.4929   10.5218 N.ar    1  UNL1       -0.2348
      8 C          13.5433   38.9001   10.1038 C.3     1  UNL1        0.0785
      9 C          14.2215   39.1013   11.4605 C.3     1  UNL1        0.0110
     10 C          15.0506   37.8727   11.8285 C.3     1  UNL1        0.0220
     11 C          16.0938   37.6058   10.7478 C.3     1  UNL1        0.0935
     12 C          14.5813   38.6055    9.0209 C.3     1  UNL1        0.1009
     13 C          15.5898   36.3352    8.6251 C.2     1  UNL1        0.2415
     14 N          15.4320   37.4992    9.4499 N.am    1  UNL1       -0.2780
     15 O          15.0009   36.2624    7.5134 O.2     1  UNL1       -0.2734
     16 C          16.4191   35.1796    9.0777 C.3     1  UNL1        0.1517
     17 N          15.7362   33.9368    8.7666 N.3     1  UNL1       -0.3135
     18 H          14.8362   33.9141    9.2459 H       1  UNL1        0.1193
     19 H          16.3060   33.1492    9.0757 H       1  UNL1        0.1193
     20 N          12.6869   42.5887    7.0466 N.pl3   1  UNL1       -0.2679
     21 H          12.0088   42.6167    6.3334 H       1  UNL1        0.1565
     22 C          13.9289   43.2494    6.7671 C.ar    1  UNL1        0.2218
     23 C          15.0808   45.0065    5.6777 C.ar    1  UNL1        0.1034
     24 C          16.2910   44.5548    6.2002 C.ar    1  UNL1        0.0414
     25 C          16.2771   43.4259    7.0169 C.ar    1  UNL1        0.1034
     26 N          13.9277   44.3497    5.9687 N.ar    1  UNL1       -0.2120
     27 N          15.1037   42.7963    7.2849 N.ar    1  UNL1       -0.2120
@<TRIPOS>BOND
     1     1     2    1
     2     2     7   ar
     3     3     4   ar
     4     4    20    1
     5     5     6   ar
     6     8     5    1
     7     8     9    1
     8     9    10    1
     9    10    11    1
    10    11    14    1
    11    12    14    1
    12    12     8    1
    13    16    13    1
    14    16    17    1
    15    22    27   ar
    16    23    26   ar
    17    24    25   ar
    18    14    13   am
    19    20    22    1
    20     2     3   ar
    21     4     6   ar
    22     5     7   ar
    23    13    15    2
    24    22    26   ar
    25    23    24   ar
    26    25    27   ar
    27    17    18    1
    28    17    19    1
    29    20    21    1
@<TRIPOS>MOLECULE
Molport-020-279-129 MCULE-4540815078 MCULE-9333749686 PubChem-110255884
 27 29 0 0 0
SMALL
GASTEIGER

@<TRIPOS>ATOM
      1 C          11.6598   40.2668   11.4149 C.3     1  UNL1        0.0522
      2 C          12.8097   40.2264   10.4749 C.ar    1  UNL1        0.0635
      3 C          12.7448   40.9134    9.2646 C.ar    1  UNL1        0.0492
      4 C          13.8427   40.8575    8.3993 C.ar    1  UNL1        0.1368
      5 C          14.9866   39.4721    9.9458 C.ar    1  UNL1        0.1414
      6 N          14.9375   40.1377    8.7617 N.ar    1  UNL1       -0.2158
      7 N          13.9241   39.5202   10.7949 N.ar    1  UNL1       -0.2348
      8 C          16.2100   38.6952   10.3028 C.3     1  UNL1        0.0785
      9 C          17.3759   39.6357   10.6146 C.3     1  UNL1        0.0110
     10 C          18.6232   38.8341   10.9806 C.3     1  UNL1        0.0220
     11 C          18.9912   37.8930    9.8377 C.3     1  UNL1        0.0935
     12 C          16.5818   37.7313    9.1761 C.3     1  UNL1        0.1009
     13 C          17.9216   35.6291    9.5135 C.2     1  UNL1        0.2415
     14 N          17.8377   37.0619    9.5024 N.am    1  UNL1       -0.2780
     15 O          16.9099   34.9334    9.2299 O.2     1  UNL1       -0.2734
     16 C          19.1884   34.9367    9.8927 C.3     1  UNL1        0.1517
     17 N          19.1455   34.5748   11.2980 N.3     1  UNL1       -0.3135
     18 H          19.0395   35.4173   11.8630 H       1  UNL1        0.1193
     19 H          20.0117   34.1007   11.5536 H       1  UNL1        0.1193
     20 N          13.8492   41.5390    7.1367 N.pl3   1  UNL1       -0.2679
     21 H          13.2853   41.1504    6.4294 H       1  UNL1        0.1565
     22 C          14.5821   42.7208    6.7857 C.ar    1  UNL1        0.2218
     23 C          14.7734   44.6493    5.4272 C.ar    1  UNL1        0.1034
     24 C          15.9553   45.0041    6.0742 C.ar    1  UNL1        0.0414
     25 C          16.4259   44.1753    7.0906 C.ar    1  UNL1        0.1034
     26 N          14.1114   43.5204    5.7921 N.ar    1  UNL1       -0.2120
     27 N          15.7358   43.0547    7.4271 N.ar    1  UNL1       -0.2120
@<TRIPOS>BOND
     1     1     2    1
     2     2     7   ar
     3     3     4   ar
     4     4    20    1
     5     5     6   ar
     6     8     5    1
     7     8     9    1
     8     9    10    1
     9    10    11    1
    10    11    14    1
    11    12    14    1
    12    12     8    1
    13    16    13    1
    14    16    17    1
    15    22    27   ar
    16    23    26   ar
    17    24    25   ar
    18    14    13   am
    19    20    22    1
    20     2     3   ar
    21     4     6   ar
    22     5     7   ar
    23    13    15    2
    24    22    26   ar
    25    23    24   ar
    26    25    27   ar
    27    17    18    1
    28    17    19    1
    29    20    21    1
@<TRIPOS>MOLECULE
Molport-020-279-129 MCULE-4540815078 MCULE-9333749686 PubChem-110255884
 27 29 0 0 0
SMALL
GASTEIGER

@<TRIPOS>ATOM
      1 C          16.3350   44.5099    6.5805 C.3     1  UNL1        0.0522
      2 C          15.6145   43.3172    7.0960 C.ar    1  UNL1        0.0635
      3 C          16.2416   42.4603    7.9980 C.ar    1  UNL1        0.0492
      4 C          15.5388   41.3451    8.4666 C.ar    1  UNL1        0.1368
      5 C          13.6703   41.9737    7.1502 C.ar    1  UNL1        0.1414
      6 N          14.2693   41.1292    8.0307 N.ar    1  UNL1       -0.2158
      7 N          14.3450   43.0617    6.6884 N.ar    1  UNL1       -0.2348
      8 C          12.2743   41.6979    6.6998 C.3     1  UNL1        0.0785
      9 C          11.2675   42.1140    7.7742 C.3     1  UNL1        0.0110
     10 C           9.8417   41.8306    7.3059 C.3     1  UNL1        0.0220
     11 C           9.6864   40.3488    6.9779 C.3     1  UNL1        0.0935
     12 C          12.1059   40.2201    6.3470 C.3     1  UNL1        0.1009
     13 C          10.3599   39.3467    4.7606 C.2     1  UNL1        0.2415
     14 N          10.7096   39.9552    6.0126 N.am    1  UNL1       -0.2780
     15 O          11.2602   39.0247    3.9398 O.2     1  UNL1       -0.2734
     16 C           8.9323   39.1165    4.3906 C.3     1  UNL1        0.1517
     17 N           8.8198   38.9595    2.9517 N.3     1  UNL1       -0.3135
     18 H           9.1557   39.8048    2.4901 H       1  UNL1        0.1193
     19 H           7.8436   38.8009    2.7023 H       1  UNL1        0.1193
     20 N          16.1183   40.4186    9.3965 N.pl3   1  UNL1       -0.2679
     21 H          17.0359   40.6165    9.6934 H       1  UNL1        0.1565
     22 C          15.5156   39.2377    9.9434 C.ar    1  UNL1        0.2218
     23 C          14.9766   36.9464    9.6971 C.ar    1  UNL1        0.1034
     24 C          14.3699   36.9406   10.9515 C.ar    1  UNL1        0.0414
     25 C          14.3570   38.1259   11.6840 C.ar    1  UNL1        0.1034
     26 N          15.5355   38.0882    9.2178 N.ar    1  UNL1       -0.2120
     27 N          14.9264   39.2473   11.1708 N.ar    1  UNL1       -0.2120
@<TRIPOS>BOND
     1     1     2    1
     2     2     7   ar
     3     3     4   ar
     4     4    20    1
     5     5     6   ar
     6     8     5    1
     7     8     9    1
     8     9    10    1
     9    10    11    1
    10    11    14    1
    11    12    14    1
    12    12     8    1
    13    16    13    1
    14    16    17    1
    15    22    27   ar
    16    23    26   ar
    17    24    25   ar
    18    14    13   am
    19    20    22    1
    20     2     3   ar
    21     4     6   ar
    22     5     7   ar
    23    13    15    2
    24    22    26   ar
    25    23    24   ar
    26    25    27   ar
    27    17    18    1
    28    17    19    1
    29    20    21    1
@<TRIPOS>MOLECULE
Molport-020-279-129 MCULE-4540815078 MCULE-9333749686 PubChem-110255884
 27 29 0 0 0
SMALL
GASTEIGER

@<TRIPOS>ATOM
      1 C          13.0705   37.0558    9.8513 C.3     1  UNL1        0.0522
      2 C          13.2105   38.4993    9.5287 C.ar    1  UNL1        0.0635
      3 C          14.4752   39.0499    9.3330 C.ar    1  UNL1        0.0492
      4 C          14.5766   40.4121    9.0303 C.ar    1  UNL1        0.1368
      5 C          12.2162   40.6064    9.1296 C.ar    1  UNL1        0.1414
      6 N          13.4435   41.1573    8.9359 N.ar    1  UNL1       -0.2158
      7 N          12.1064   39.2822    9.4243 N.ar    1  UNL1       -0.2348
      8 C          10.9990   41.4626    9.0149 C.3     1  UNL1        0.0785
      9 C          10.9966   42.5462   10.0952 C.3     1  UNL1        0.0110
     10 C           9.7497   43.4193    9.9707 C.3     1  UNL1        0.0220
     11 C           8.4967   42.5561   10.0816 C.3     1  UNL1        0.0935
     12 C           9.7329   40.6108    9.1035 C.3     1  UNL1        0.1009
     13 C           7.5146   41.2897    8.1307 C.2     1  UNL1        0.2415
     14 N           8.5596   41.4798    9.0960 N.am    1  UNL1       -0.2780
     15 O           7.5961   40.3599    7.2841 O.2     1  UNL1       -0.2734
     16 C           6.3351   42.2033    8.0855 C.3     1  UNL1        0.1517
     17 N           5.1454   41.4864    8.5083 N.3     1  UNL1       -0.3135
     18 H           4.9843   40.6966    7.8832 H       1  UNL1        0.1193
     19 H           4.3417   42.1136    8.4777 H       1  UNL1        0.1193
     20 N          15.8441   41.0494    8.8154 N.pl3   1  UNL1       -0.2679
     21 H          16.6182   40.6421    9.2672 H       1  UNL1        0.1565
     22 C          16.1137   42.2110    8.0186 C.ar    1  UNL1        0.2218
     23 C          15.4351   43.6727    6.2853 C.ar    1  UNL1        0.1034
     24 C          16.5870   44.4368    6.4606 C.ar    1  UNL1        0.0414
     25 C          17.4942   44.0473    7.4440 C.ar    1  UNL1        0.1034
     26 N          15.2199   42.5795    7.0628 N.ar    1  UNL1       -0.2120
     27 N          17.2438   42.9480    8.2015 N.ar    1  UNL1       -0.2120
@<TRIPOS>BOND
     1     1     2    1
     2     2     7   ar
     3     3     4   ar
     4     4    20    1
     5     5     6   ar
     6     8     5    1
     7     8     9    1
     8     9    10    1
     9    10    11    1
    10    11    14    1
    11    12    14    1
    12    12     8    1
    13    16    13    1
    14    16    17    1
    15    22    27   ar
    16    23    26   ar
    17    24    25   ar
    18    14    13   am
    19    20    22    1
    20     2     3   ar
    21     4     6   ar
    22     5     7   ar
    23    13    15    2
    24    22    26   ar
    25    23    24   ar
    26    25    27   ar
    27    17    18    1
    28    17    19    1
    29    20    21    1
@<TRIPOS>MOLECULE
Molport-020-279-129 MCULE-4540815078 MCULE-9333749686 PubChem-110255884
 27 29 0 0 0
SMALL
GASTEIGER

@<TRIPOS>ATOM
      1 C          14.3294   44.2197    5.5472 C.3     1  UNL1        0.0522
      2 C          14.0507   43.0157    6.3719 C.ar    1  UNL1        0.0635
      3 C          15.0293   42.5159    7.2283 C.ar    1  UNL1        0.0492
      4 C          14.7387   41.3809    7.9929 C.ar    1  UNL1        0.1368
      5 C          12.5699   41.2982    7.0394 C.ar    1  UNL1        0.1414
      6 N          13.5150   40.7996    7.8794 N.ar    1  UNL1       -0.2158
      7 N          12.8423   42.4021    6.2914 N.ar    1  UNL1       -0.2348
      8 C          11.2395   40.6279    6.9480 C.3     1  UNL1        0.0785
      9 C          11.1771   39.7154    5.7213 C.3     1  UNL1        0.0110
     10 C           9.8140   39.0318    5.6353 C.3     1  UNL1        0.0220
     11 C           8.7084   40.0812    5.5733 C.3     1  UNL1        0.0935
     12 C          10.1174   41.6651    6.9056 C.3     1  UNL1        0.1009
     13 C           7.7513   41.2020    7.6232 C.2     1  UNL1        0.2415
     14 N           8.8376   40.9903    6.7093 N.am    1  UNL1       -0.2780
     15 O           7.8901   41.9841    8.6015 O.2     1  UNL1       -0.2734
     16 C           6.4558   40.4794    7.4571 C.3     1  UNL1        0.1517
     17 N           6.0298   40.5528    6.0711 N.3     1  UNL1       -0.3135
     18 H           5.9076   41.5296    5.8043 H       1  UNL1        0.1193
     19 H           5.1452   40.0570    5.9606 H       1  UNL1        0.1193
     20 N          15.6955   40.8092    8.8964 N.pl3   1  UNL1       -0.2679
     21 H          16.5955   41.2082    8.8872 H       1  UNL1        0.1565
     22 C          15.4926   39.7236    9.8115 C.ar    1  UNL1        0.2218
     23 C          14.3032   38.8296   11.6520 C.ar    1  UNL1        0.1034
     24 C          15.0639   37.6636   11.5942 C.ar    1  UNL1        0.0414
     25 C          16.0472   37.5649   10.6119 C.ar    1  UNL1        0.1034
     26 N          14.5296   39.8333   10.7648 N.ar    1  UNL1       -0.2120
     27 N          16.2437   38.5901    9.7426 N.ar    1  UNL1       -0.2120
@<TRIPOS>BOND
     1     1     2    1
     2     2     7   ar
     3     3     4   ar
     4     4    20    1
     5     5     6   ar
     6     8     5    1
     7     8     9    1
     8     9    10    1
     9    10    11    1
    10    11    14    1
    11    12    14    1
    12    12     8    1
    13    16    13    1
    14    16    17    1
    15    22    27   ar
    16    23    26   ar
    17    24    25   ar
    18    14    13   am
    19    20    22    1
    20     2     3   ar
    21     4     6   ar
    22     5     7   ar
    23    13    15    2
    24    22    26   ar
    25    23    24   ar
    26    25    27   ar
    27    17    18    1
    28    17    19    1
    29    20    21    1
