@<TRIPOS>MOLECULE
MolPort-051-443-739 2356137063 CSSS09880969218 MCULE-4277650856 PubChem-162637231 QEFWAKVEWCZNOH-UHFFFAOYSA-N
 29 31 0 0 0
SMALL
GASTEIGER

@<TRIPOS>ATOM
      1 C          11.3036   41.9382    8.0922 C.2     1  UNL1        0.2521
      2 N           9.9866   41.3882    8.1936 N.am    1  UNL1       -0.2663
      3 O          11.7295   42.7656    8.9411 O.2     1  UNL1       -0.2726
      4 H           9.7052   40.7475    7.5011 H       1  UNL1        0.1564
      5 C           9.0487   41.7013    9.2278 C.ar    1  UNL1        0.1551
      6 C           7.6959   41.4947    9.1670 C.ar    1  UNL1        0.0504
      7 C           7.2265   41.9489   10.3649 C.ar    1  UNL1        0.0766
      8 C           5.8721   41.9124   10.6832 C.ar    1  UNL1        0.0224
      9 C           4.9863   41.3711    9.7250 C.ar    1  UNL1        0.0729
     10 C           5.4864   40.9194    8.4766 C.ar    1  UNL1        0.0040
     11 C           6.8620   40.9722    8.1845 C.ar    1  UNL1        0.0043
     12 N           8.2387   42.4118   11.1218 N.ar    1  UNL1       -0.2745
     13 N           9.3603   42.2589   10.4213 N.ar    1  UNL1       -0.1574
     14 H           8.1635   42.7931   12.0263 H       1  UNL1        0.1890
     15 C           3.5097   41.3535    9.9933 C.3     1  UNL1        0.4186
     16 F           2.8103   41.7660    8.8722 F       1  UNL1       -0.1659
     17 F           3.1996   42.2008   11.0428 F       1  UNL1       -0.1659
     18 F           3.1204   40.0680   10.3206 F       1  UNL1       -0.1659
     19 C          12.1692   41.5562    6.9421 C.3     1  UNL1        0.2117
     20 C          14.5325   41.8173    7.7246 C.ar    1  UNL1        0.0604
     21 C          14.5708   40.5742    8.5517 C.3     1  UNL1        0.0519
     22 C          15.5657   42.7206    7.5195 C.ar    1  UNL1        0.0631
     23 C          15.0122   43.6737    6.6722 C.ar    1  UNL1        0.0828
     24 C          15.6917   44.8792    6.1210 C.3     1  UNL1        0.0541
     25 N          13.4524   42.2374    7.0369 N.ar    1  UNL1       -0.2457
     26 N          13.7336   43.3568    6.3904 N.ar    1  UNL1       -0.1734
     27 C          16.9433   42.6893    8.0602 C.2     1  UNL1        0.1758
     28 C          17.5735   43.9012    8.6533 C.3     1  UNL1        0.0773
     29 O          17.6108   41.6224    8.0258 O.2     1  UNL1       -0.2912
@<TRIPOS>BOND
     1     1     2   am
     2     5     6   ar
     3     6     7   ar
     4     7    12   ar
     5     8     9   ar
     6    15     9    1
     7    15    16    1
     8    15    17    1
     9    15    18    1
    10    10    11   ar
    11    19     1    1
    12    19    25    1
    13    21    20    1
    14    22    27    1
    15    22    23   ar
    16    28    27    1
    17    24    23    1
    18     2     5    1
    19    12    13   ar
    20    25    20   ar
    21    25    26   ar
    22     1     3    2
    23     5    13   ar
    24     7     8   ar
    25     9    10   ar
    26    11     6   ar
    27    20    22   ar
    28    27    29    2
    29    23    26   ar
    30     2     4    1
    31    12    14    1
@<TRIPOS>MOLECULE
MolPort-051-443-739 2356137063 CSSS09880969218 MCULE-4277650856 PubChem-162637231 QEFWAKVEWCZNOH-UHFFFAOYSA-N
 29 31 0 0 0
SMALL
GASTEIGER

@<TRIPOS>ATOM
      1 C          12.0319   41.0681    8.9348 C.2     1  UNL1        0.2521
      2 N          11.0470   41.8592    8.2630 N.am    1  UNL1       -0.2663
      3 O          12.0592   40.9942   10.1919 O.2     1  UNL1       -0.2726
      4 H          11.0739   41.8824    7.2792 H       1  UNL1        0.1564
      5 C          10.0258   42.6191    8.9166 C.ar    1  UNL1        0.1551
      6 C           8.7965   42.9198    8.3924 C.ar    1  UNL1        0.0504
      7 C           8.1822   43.6571    9.3623 C.ar    1  UNL1        0.0766
      8 C           6.8957   44.1612    9.1958 C.ar    1  UNL1        0.0224
      9 C           6.2284   43.8722    7.9846 C.ar    1  UNL1        0.0729
     10 C           6.8864   43.1199    6.9778 C.ar    1  UNL1        0.0040
     11 C           8.1891   42.6261    7.1763 C.ar    1  UNL1        0.0043
     12 N           8.9931   43.8027   10.4267 N.ar    1  UNL1       -0.2745
     13 N          10.1278   43.1632   10.1518 N.ar    1  UNL1       -0.1574
     14 H           8.7853   44.2917   11.2555 H       1  UNL1        0.1890
     15 C           4.8596   44.4327    7.7294 C.3     1  UNL1        0.4186
     16 F           4.4126   44.0620    6.4730 F       1  UNL1       -0.1659
     17 F           4.8834   45.8149    7.7988 F       1  UNL1       -0.1659
     18 F           3.9828   43.9478    8.6818 F       1  UNL1       -0.1659
     19 C          13.0653   40.3532    8.1355 C.3     1  UNL1        0.2117
     20 C          14.3382   42.1890    7.0060 C.ar    1  UNL1        0.0604
     21 C          13.2899   42.5185    5.9944 C.3     1  UNL1        0.0519
     22 C          15.5685   42.8091    7.1718 C.ar    1  UNL1        0.0631
     23 C          16.1394   42.1357    8.2457 C.ar    1  UNL1        0.0828
     24 C          17.4711   42.4004    8.8582 C.3     1  UNL1        0.0541
     25 N          14.2204   41.2154    7.9303 N.ar    1  UNL1       -0.2457
     26 N          15.3023   41.1787    8.6908 N.ar    1  UNL1       -0.1734
     27 C          16.1505   43.9311    6.4015 C.2     1  UNL1        0.1758
     28 C          17.4598   43.7991    5.7043 C.3     1  UNL1        0.0773
     29 O          15.5380   45.0283    6.3238 O.2     1  UNL1       -0.2912
@<TRIPOS>BOND
     1     1     2   am
     2     5     6   ar
     3     6     7   ar
     4     7    12   ar
     5     8     9   ar
     6    15     9    1
     7    15    16    1
     8    15    17    1
     9    15    18    1
    10    10    11   ar
    11    19     1    1
    12    19    25    1
    13    21    20    1
    14    22    27    1
    15    22    23   ar
    16    28    27    1
    17    24    23    1
    18     2     5    1
    19    12    13   ar
    20    25    20   ar
    21    25    26   ar
    22     1     3    2
    23     5    13   ar
    24     7     8   ar
    25     9    10   ar
    26    11     6   ar
    27    20    22   ar
    28    27    29    2
    29    23    26   ar
    30     2     4    1
    31    12    14    1
@<TRIPOS>MOLECULE
MolPort-051-443-739 2356137063 CSSS09880969218 MCULE-4277650856 PubChem-162637231 QEFWAKVEWCZNOH-UHFFFAOYSA-N
 29 31 0 0 0
SMALL
GASTEIGER

@<TRIPOS>ATOM
      1 C          11.5614   42.0212    7.7445 C.2     1  UNL1        0.2521
      2 N          10.2938   41.3581    7.7703 N.am    1  UNL1       -0.2663
      3 O          11.9063   42.8004    8.6720 O.2     1  UNL1       -0.2726
      4 H          10.0754   40.7619    7.0179 H       1  UNL1        0.1564
      5 C           9.3203   41.4983    8.8095 C.ar    1  UNL1        0.1551
      6 C           9.5635   41.3763   10.1520 C.ar    1  UNL1        0.0504
      7 C           8.3493   41.5811   10.7396 C.ar    1  UNL1        0.0766
      8 C           8.1850   41.5303   12.1206 C.ar    1  UNL1        0.0224
      9 C           9.3284   41.2721   12.9093 C.ar    1  UNL1        0.0729
     10 C          10.5809   41.0432   12.2836 C.ar    1  UNL1        0.0040
     11 C          10.7132   41.0992   10.8837 C.ar    1  UNL1        0.0043
     12 N           7.4086   41.8155    9.8058 N.ar    1  UNL1       -0.2745
     13 N           8.0070   41.7647    8.6178 N.ar    1  UNL1       -0.1574
     14 H           6.4542   41.9919    9.9710 H       1  UNL1        0.1890
     15 C           9.2012   41.1552   14.4002 C.3     1  UNL1        0.4186
     16 F           8.4498   40.0419   14.7348 F       1  UNL1       -0.1659
     17 F           8.5818   42.2779   14.9214 F       1  UNL1       -0.1659
     18 F          10.4603   41.0344   14.9578 F       1  UNL1       -0.1659
     19 C          12.4699   41.8172    6.5822 C.3     1  UNL1        0.2117
     20 C          14.6038   43.1256    6.5657 C.ar    1  UNL1        0.0604
     21 C          14.1521   44.1659    5.5938 C.3     1  UNL1        0.0519
     22 C          15.8341   43.0511    7.2034 C.ar    1  UNL1        0.0631
     23 C          15.7292   41.9158    7.9989 C.ar    1  UNL1        0.0828
     24 C          16.7710   41.3664    8.9107 C.3     1  UNL1        0.0541
     25 N          13.8461   42.0881    6.9725 N.ar    1  UNL1       -0.2457
     26 N          14.5150   41.3529    7.8457 N.ar    1  UNL1       -0.1734
     27 C          16.9949   43.9617    7.0841 C.2     1  UNL1        0.1758
     28 C          17.9806   44.1140    8.1900 C.3     1  UNL1        0.0773
     29 O          17.1676   44.6296    6.0310 O.2     1  UNL1       -0.2912
@<TRIPOS>BOND
     1     1     2   am
     2     5     6   ar
     3     6     7   ar
     4     7    12   ar
     5     8     9   ar
     6    15     9    1
     7    15    16    1
     8    15    17    1
     9    15    18    1
    10    10    11   ar
    11    19     1    1
    12    19    25    1
    13    21    20    1
    14    22    27    1
    15    22    23   ar
    16    28    27    1
    17    24    23    1
    18     2     5    1
    19    12    13   ar
    20    25    20   ar
    21    25    26   ar
    22     1     3    2
    23     5    13   ar
    24     7     8   ar
    25     9    10   ar
    26    11     6   ar
    27    20    22   ar
    28    27    29    2
    29    23    26   ar
    30     2     4    1
    31    12    14    1
@<TRIPOS>MOLECULE
MolPort-051-443-739 2356137063 CSSS09880969218 MCULE-4277650856 PubChem-162637231 QEFWAKVEWCZNOH-UHFFFAOYSA-N
 29 31 0 0 0
SMALL
GASTEIGER

@<TRIPOS>ATOM
      1 C          11.8125   41.3380    7.9400 C.2     1  UNL1        0.2521
      2 N          10.7829   40.9138    7.0416 N.am    1  UNL1       -0.2663
      3 O          11.6916   42.3948    8.6145 O.2     1  UNL1       -0.2726
      4 H          10.9314   40.0809    6.5380 H       1  UNL1        0.1564
      5 C           9.5531   41.6115    6.8214 C.ar    1  UNL1        0.1551
      6 C           8.5139   41.6958    7.7098 C.ar    1  UNL1        0.0504
      7 C           7.5726   42.4438    7.0648 C.ar    1  UNL1        0.0766
      8 C           6.3485   42.7481    7.6530 C.ar    1  UNL1        0.0224
      9 C           6.1099   42.2673    8.9598 C.ar    1  UNL1        0.0729
     10 C           7.0904   41.4755    9.6110 C.ar    1  UNL1        0.0040
     11 C           8.3179   41.1835    8.9877 C.ar    1  UNL1        0.0043
     12 N           8.0107   42.7994    5.8428 N.ar    1  UNL1       -0.2745
     13 N           9.2302   42.2868    5.6937 N.ar    1  UNL1       -0.1574
     14 H           7.5200   43.3388    5.1815 H       1  UNL1        0.1890
     15 C           4.7877   42.5212    9.6234 C.3     1  UNL1        0.4186
     16 F           3.8169   41.6839    9.1015 F       1  UNL1       -0.1659
     17 F           4.3919   43.8326    9.4248 F       1  UNL1       -0.1659
     18 F           4.9053   42.2856   10.9804 F       1  UNL1       -0.1659
     19 C          13.0638   40.5378    8.0486 C.3     1  UNL1        0.2117
     20 C          14.3677   42.3166    6.8648 C.ar    1  UNL1        0.0604
     21 C          13.3532   42.5854    5.8021 C.3     1  UNL1        0.0519
     22 C          15.5895   42.9513    7.0380 C.ar    1  UNL1        0.0631
     23 C          16.1261   42.3400    8.1654 C.ar    1  UNL1        0.0828
     24 C          17.4354   42.6445    8.8071 C.3     1  UNL1        0.0541
     25 N          14.2221   41.3937    7.8360 N.ar    1  UNL1       -0.2457
     26 N          15.2778   41.4040    8.6333 N.ar    1  UNL1       -0.1734
     27 C          16.1934   44.0331    6.2281 C.2     1  UNL1        0.1758
     28 C          17.5065   43.8553    5.5485 C.3     1  UNL1        0.0773
     29 O          15.5967   45.1344    6.1005 O.2     1  UNL1       -0.2912
@<TRIPOS>BOND
     1     1     2   am
     2     5     6   ar
     3     6     7   ar
     4     7    12   ar
     5     8     9   ar
     6    15     9    1
     7    15    16    1
     8    15    17    1
     9    15    18    1
    10    10    11   ar
    11    19     1    1
    12    19    25    1
    13    21    20    1
    14    22    27    1
    15    22    23   ar
    16    28    27    1
    17    24    23    1
    18     2     5    1
    19    12    13   ar
    20    25    20   ar
    21    25    26   ar
    22     1     3    2
    23     5    13   ar
    24     7     8   ar
    25     9    10   ar
    26    11     6   ar
    27    20    22   ar
    28    27    29    2
    29    23    26   ar
    30     2     4    1
    31    12    14    1
@<TRIPOS>MOLECULE
MolPort-051-443-739 2356137063 CSSS09880969218 MCULE-4277650856 PubChem-162637231 QEFWAKVEWCZNOH-UHFFFAOYSA-N
 29 31 0 0 0
SMALL
GASTEIGER

@<TRIPOS>ATOM
      1 C          12.6822   40.8986    9.2127 C.2     1  UNL1        0.2521
      2 N          11.8099   41.8383    8.5777 N.am    1  UNL1       -0.2663
      3 O          12.5370   40.5943   10.4263 O.2     1  UNL1       -0.2726
      4 H          11.9709   42.0404    7.6277 H       1  UNL1        0.1564
      5 C          10.7208   42.5058    9.2224 C.ar    1  UNL1        0.1551
      6 C           9.4011   42.1503    9.1312 C.ar    1  UNL1        0.0504
      7 C           8.7455   43.0700    9.8968 C.ar    1  UNL1        0.0766
      8 C           7.3625   43.0443   10.0502 C.ar    1  UNL1        0.0224
      9 C           6.6476   42.0171    9.3946 C.ar    1  UNL1        0.0729
     10 C           7.3406   41.0788    8.5873 C.ar    1  UNL1        0.0040
     11 C           8.7401   41.1334    8.4507 C.ar    1  UNL1        0.0043
     12 N           9.6177   43.9459   10.4296 N.ar    1  UNL1       -0.2745
     13 N          10.8336   43.5978   10.0143 N.ar    1  UNL1       -0.1574
     14 H           9.3971   44.7039   11.0178 H       1  UNL1        0.1890
     15 C           5.1500   41.9707    9.4827 C.3     1  UNL1        0.4186
     16 F           4.7369   42.1672   10.7891 F       1  UNL1       -0.1659
     17 F           4.6789   40.7428    9.0514 F       1  UNL1       -0.1659
     18 F           4.6147   42.9651    8.6855 F       1  UNL1       -0.1659
     19 C          13.8040   40.3015    8.4362 C.3     1  UNL1        0.2117
     20 C          14.5979   42.1955    7.0050 C.ar    1  UNL1        0.0604
     21 C          13.4418   42.1838    6.0594 C.3     1  UNL1        0.0519
     22 C          15.6827   43.0608    6.9931 C.ar    1  UNL1        0.0631
     23 C          16.4472   42.6523    8.0799 C.ar    1  UNL1        0.0828
     24 C          17.7326   43.2477    8.5404 C.3     1  UNL1        0.0541
     25 N          14.7419   41.3411    8.0371 N.ar    1  UNL1       -0.2457
     26 N          15.8546   41.6129    8.6990 N.ar    1  UNL1       -0.1734
     27 C          15.9714   44.1700    6.0564 C.2     1  UNL1        0.1758
     28 C          15.0470   45.3290    5.9150 C.3     1  UNL1        0.0773
     29 O          17.0176   44.1488    5.3563 O.2     1  UNL1       -0.2912
@<TRIPOS>BOND
     1     1     2   am
     2     5     6   ar
     3     6     7   ar
     4     7    12   ar
     5     8     9   ar
     6    15     9    1
     7    15    16    1
     8    15    17    1
     9    15    18    1
    10    10    11   ar
    11    19     1    1
    12    19    25    1
    13    21    20    1
    14    22    27    1
    15    22    23   ar
    16    28    27    1
    17    24    23    1
    18     2     5    1
    19    12    13   ar
    20    25    20   ar
    21    25    26   ar
    22     1     3    2
    23     5    13   ar
    24     7     8   ar
    25     9    10   ar
    26    11     6   ar
    27    20    22   ar
    28    27    29    2
    29    23    26   ar
    30     2     4    1
    31    12    14    1
@<TRIPOS>MOLECULE
MolPort-051-443-739 2356137063 CSSS09880969218 MCULE-4277650856 PubChem-162637231 QEFWAKVEWCZNOH-UHFFFAOYSA-N
 29 31 0 0 0
SMALL
GASTEIGER

@<TRIPOS>ATOM
      1 C          13.1821   40.1740    9.8952 C.2     1  UNL1        0.2521
      2 N          11.9027   40.6841    9.5079 N.am    1  UNL1       -0.2663
      3 O          13.4641   39.9786   11.1071 O.2     1  UNL1       -0.2726
      4 H          11.7374   40.8195    8.5468 H       1  UNL1        0.1564
      5 C          10.8459   41.0120   10.4151 C.ar    1  UNL1        0.1551
      6 C           9.5285   41.1778   10.0785 C.ar    1  UNL1        0.0504
      7 C           8.9109   41.4851   11.2557 C.ar    1  UNL1        0.0766
      8 C           7.5435   41.7352   11.3229 C.ar    1  UNL1        0.0224
      9 C           6.7996   41.6464   10.1252 C.ar    1  UNL1        0.0729
     10 C           7.4582   41.3438    8.9056 C.ar    1  UNL1        0.0040
     11 C           8.8434   41.0984    8.8709 C.ar    1  UNL1        0.0043
     12 N           9.8034   41.5081   12.2630 N.ar    1  UNL1       -0.2745
     13 N          10.9944   41.2164   11.7449 N.ar    1  UNL1       -0.1574
     14 H           9.6109   41.7043   13.2084 H       1  UNL1        0.1890
     15 C           5.3309   41.9560   10.1289 C.3     1  UNL1        0.4186
     16 F           4.8532   42.0148   11.4267 F       1  UNL1       -0.1659
     17 F           4.6297   40.9781    9.4450 F       1  UNL1       -0.1659
     18 F           5.1201   43.1762    9.5144 F       1  UNL1       -0.1659
     19 C          14.2101   39.9080    8.8510 C.3     1  UNL1        0.2117
     20 C          15.6842   41.8285    8.2151 C.ar    1  UNL1        0.0604
     21 C          16.8343   41.4506    9.0899 C.3     1  UNL1        0.0519
     22 C          15.6082   42.9111    7.3503 C.ar    1  UNL1        0.0631
     23 C          14.3468   42.7931    6.7781 C.ar    1  UNL1        0.0828
     24 C          13.7406   43.6971    5.7612 C.3     1  UNL1        0.0541
     25 N          14.5289   41.1386    8.1413 N.ar    1  UNL1       -0.2457
     26 N          13.7145   41.7097    7.2692 N.ar    1  UNL1       -0.1734
     27 C          16.6244   43.9531    7.0805 C.2     1  UNL1        0.1758
     28 C          17.9073   44.0020    7.8352 C.3     1  UNL1        0.0773
     29 O          16.4153   44.8249    6.1966 O.2     1  UNL1       -0.2912
@<TRIPOS>BOND
     1     1     2   am
     2     5     6   ar
     3     6     7   ar
     4     7    12   ar
     5     8     9   ar
     6    15     9    1
     7    15    16    1
     8    15    17    1
     9    15    18    1
    10    10    11   ar
    11    19     1    1
    12    19    25    1
    13    21    20    1
    14    22    27    1
    15    22    23   ar
    16    28    27    1
    17    24    23    1
    18     2     5    1
    19    12    13   ar
    20    25    20   ar
    21    25    26   ar
    22     1     3    2
    23     5    13   ar
    24     7     8   ar
    25     9    10   ar
    26    11     6   ar
    27    20    22   ar
    28    27    29    2
    29    23    26   ar
    30     2     4    1
    31    12    14    1
@<TRIPOS>MOLECULE
MolPort-051-443-739 2356137063 CSSS09880969218 MCULE-4277650856 PubChem-162637231 QEFWAKVEWCZNOH-UHFFFAOYSA-N
 29 31 0 0 0
SMALL
GASTEIGER

@<TRIPOS>ATOM
      1 C          10.6962   41.2318    8.2645 C.2     1  UNL1        0.2521
      2 N          11.7715   40.3544    7.9165 N.am    1  UNL1       -0.2663
      3 O          10.9039   42.2845    8.9242 O.2     1  UNL1       -0.2726
      4 H          11.5513   39.5446    7.4018 H       1  UNL1        0.1564
      5 C          13.1436   40.5678    8.2619 C.ar    1  UNL1        0.1551
      6 C          13.9591   41.5319    7.7310 C.ar    1  UNL1        0.0504
      7 C          15.1597   41.3438    8.3512 C.ar    1  UNL1        0.0766
      8 C          16.2645   42.1410    8.0673 C.ar    1  UNL1        0.0224
      9 C          16.1027   43.1740    7.1172 C.ar    1  UNL1        0.0729
     10 C          14.8537   43.3461    6.4670 C.ar    1  UNL1        0.0040
     11 C          13.7560   42.5213    6.7750 C.ar    1  UNL1        0.0043
     12 N          15.0856   40.3163    9.2175 N.ar    1  UNL1       -0.2745
     13 N          13.8440   39.8392    9.1623 N.ar    1  UNL1       -0.1574
     14 H          15.8149   39.9798    9.7869 H       1  UNL1        0.1890
     15 C          17.2734   44.0316    6.7341 C.3     1  UNL1        0.4186
     16 F          18.0383   44.3304    7.8484 F       1  UNL1       -0.1659
     17 F          16.8384   45.2171    6.1674 F       1  UNL1       -0.1659
     18 F          18.0557   43.3536    5.8180 F       1  UNL1       -0.1659
     19 C           9.3043   40.8733    7.8745 C.3     1  UNL1        0.2117
     20 C           7.0544   41.9245    8.1884 C.ar    1  UNL1        0.0604
     21 C           6.2554   40.7173    7.8207 C.3     1  UNL1        0.0519
     22 C           6.5694   43.1614    8.5890 C.ar    1  UNL1        0.0631
     23 C           7.7173   43.9109    8.8200 C.ar    1  UNL1        0.0828
     24 C           7.7808   45.3259    9.2808 C.3     1  UNL1        0.0541
     25 N           8.4012   41.9716    8.1872 N.ar    1  UNL1       -0.2457
     26 N           8.8135   43.1674    8.5747 N.ar    1  UNL1       -0.1734
     27 C           5.1637   43.5972    8.7472 C.2     1  UNL1        0.1758
     28 C           4.5298   44.5425    7.7868 C.3     1  UNL1        0.0773
     29 O           4.4745   43.1686    9.7097 O.2     1  UNL1       -0.2912
@<TRIPOS>BOND
     1     1     2   am
     2     5     6   ar
     3     6     7   ar
     4     7    12   ar
     5     8     9   ar
     6    15     9    1
     7    15    16    1
     8    15    17    1
     9    15    18    1
    10    10    11   ar
    11    19     1    1
    12    19    25    1
    13    21    20    1
    14    22    27    1
    15    22    23   ar
    16    28    27    1
    17    24    23    1
    18     2     5    1
    19    12    13   ar
    20    25    20   ar
    21    25    26   ar
    22     1     3    2
    23     5    13   ar
    24     7     8   ar
    25     9    10   ar
    26    11     6   ar
    27    20    22   ar
    28    27    29    2
    29    23    26   ar
    30     2     4    1
    31    12    14    1
@<TRIPOS>MOLECULE
MolPort-051-443-739 2356137063 CSSS09880969218 MCULE-4277650856 PubChem-162637231 QEFWAKVEWCZNOH-UHFFFAOYSA-N
 29 31 0 0 0
SMALL
GASTEIGER

@<TRIPOS>ATOM
      1 C          11.9051   40.5794    9.8391 C.2     1  UNL1        0.2521
      2 N          12.9988   39.7947    9.3541 N.am    1  UNL1       -0.2663
      3 O          12.0792   41.7624   10.2348 O.2     1  UNL1       -0.2726
      4 H          12.8054   38.8753    9.0596 H       1  UNL1        0.1564
      5 C          14.3530   40.2483    9.2658 C.ar    1  UNL1        0.1551
      6 C          14.8030   41.2649    8.4656 C.ar    1  UNL1        0.0504
      7 C          16.1436   41.3261    8.7121 C.ar    1  UNL1        0.0766
      8 C          16.9656   42.2481    8.0709 C.ar    1  UNL1        0.0224
      9 C          16.3635   43.1409    7.1565 C.ar    1  UNL1        0.0729
     10 C          14.9716   43.0536    6.8967 C.ar    1  UNL1        0.0040
     11 C          14.1679   42.1080    7.5602 C.ar    1  UNL1        0.0043
     12 N          16.4986   40.3942    9.6161 N.ar    1  UNL1       -0.2745
     13 N          15.3957   39.7311    9.9568 N.ar    1  UNL1       -0.1574
     14 H          17.4063   40.2328    9.9615 H       1  UNL1        0.1890
     15 C          17.2090   44.1221    6.3980 C.3     1  UNL1        0.4186
     16 F          17.6281   43.5724    5.1987 F       1  UNL1       -0.1659
     17 F          18.3260   44.4699    7.1377 F       1  UNL1       -0.1659
     18 F          16.4671   45.2593    6.1386 F       1  UNL1       -0.1659
     19 C          10.5468   39.9734    9.9142 C.3     1  UNL1        0.2117
     20 C           9.4199   39.3811    7.7590 C.ar    1  UNL1        0.0604
     21 C           9.7434   37.9235    7.7986 C.3     1  UNL1        0.0519
     22 C           8.6894   40.0523    6.7886 C.ar    1  UNL1        0.0631
     23 C           8.6742   41.3692    7.2338 C.ar    1  UNL1        0.0828
     24 C           8.0147   42.5277    6.5693 C.3     1  UNL1        0.0541
     25 N           9.8020   40.2684    8.6985 N.ar    1  UNL1       -0.2457
     26 N           9.3502   41.4740    8.3943 N.ar    1  UNL1       -0.1734
     27 C           8.0590   39.5094    5.5643 C.2     1  UNL1        0.1758
     28 C           8.8670   39.1603    4.3630 C.3     1  UNL1        0.0773
     29 O           6.8133   39.3326    5.5208 O.2     1  UNL1       -0.2912
@<TRIPOS>BOND
     1     1     2   am
     2     5     6   ar
     3     6     7   ar
     4     7    12   ar
     5     8     9   ar
     6    15     9    1
     7    15    16    1
     8    15    17    1
     9    15    18    1
    10    10    11   ar
    11    19     1    1
    12    19    25    1
    13    21    20    1
    14    22    27    1
    15    22    23   ar
    16    28    27    1
    17    24    23    1
    18     2     5    1
    19    12    13   ar
    20    25    20   ar
    21    25    26   ar
    22     1     3    2
    23     5    13   ar
    24     7     8   ar
    25     9    10   ar
    26    11     6   ar
    27    20    22   ar
    28    27    29    2
    29    23    26   ar
    30     2     4    1
    31    12    14    1
@<TRIPOS>MOLECULE
MolPort-051-443-739 2356137063 CSSS09880969218 MCULE-4277650856 PubChem-162637231 QEFWAKVEWCZNOH-UHFFFAOYSA-N
 29 31 0 0 0
SMALL
GASTEIGER

@<TRIPOS>ATOM
      1 C          11.9224   40.2539    9.6059 C.2     1  UNL1        0.2521
      2 N          13.0739   39.5980    9.0664 N.am    1  UNL1       -0.2663
      3 O          12.0141   41.3874   10.1473 O.2     1  UNL1       -0.2726
      4 H          12.9443   38.7123    8.6566 H       1  UNL1        0.1564
      5 C          14.4000   40.1354    9.0788 C.ar    1  UNL1        0.1551
      6 C          14.8425   41.1846    8.3175 C.ar    1  UNL1        0.0504
      7 C          16.1553   41.3267    8.6612 C.ar    1  UNL1        0.0766
      8 C          16.9625   42.3032    8.0853 C.ar    1  UNL1        0.0224
      9 C          16.3737   43.1647    7.1329 C.ar    1  UNL1        0.0729
     10 C          15.0125   42.9935    6.7720 C.ar    1  UNL1        0.0040
     11 C          14.2234   41.9944    7.3715 C.ar    1  UNL1        0.0043
     12 N          16.5013   40.4110    9.5851 N.ar    1  UNL1       -0.2745
     13 N          15.4201   39.6780    9.8419 N.ar    1  UNL1       -0.1574
     14 H          17.3898   40.3032    9.9951 H       1  UNL1        0.1890
     15 C          17.2091   44.2027    6.4419 C.3     1  UNL1        0.4186
     16 F          16.4538   45.3318    6.1760 F       1  UNL1       -0.1659
     17 F          17.7001   43.7092    5.2456 F       1  UNL1       -0.1659
     18 F          18.2704   44.5510    7.2563 F       1  UNL1       -0.1659
     19 C          10.6018   39.5669    9.5620 C.3     1  UNL1        0.2117
     20 C           9.1926   40.5062    7.7187 C.ar    1  UNL1        0.0604
     21 C           9.7593   39.6570    6.6285 C.3     1  UNL1        0.0519
     22 C           8.1840   41.4527    7.6064 C.ar    1  UNL1        0.0631
     23 C           8.0336   41.9350    8.9016 C.ar    1  UNL1        0.0828
     24 C           7.0710   42.9753    9.3597 C.3     1  UNL1        0.0541
     25 N           9.5951   40.4585    9.0039 N.ar    1  UNL1       -0.2457
     26 N           8.8954   41.3144    9.7304 N.ar    1  UNL1       -0.1734
     27 C           7.4279   41.8608    6.4012 C.2     1  UNL1        0.1758
     28 C           7.0403   43.2800    6.1700 C.3     1  UNL1        0.0773
     29 O           7.0973   41.0016    5.5424 O.2     1  UNL1       -0.2912
@<TRIPOS>BOND
     1     1     2   am
     2     5     6   ar
     3     6     7   ar
     4     7    12   ar
     5     8     9   ar
     6    15     9    1
     7    15    16    1
     8    15    17    1
     9    15    18    1
    10    10    11   ar
    11    19     1    1
    12    19    25    1
    13    21    20    1
    14    22    27    1
    15    22    23   ar
    16    28    27    1
    17    24    23    1
    18     2     5    1
    19    12    13   ar
    20    25    20   ar
    21    25    26   ar
    22     1     3    2
    23     5    13   ar
    24     7     8   ar
    25     9    10   ar
    26    11     6   ar
    27    20    22   ar
    28    27    29    2
    29    23    26   ar
    30     2     4    1
    31    12    14    1
@<TRIPOS>MOLECULE
MolPort-051-443-739 2356137063 CSSS09880969218 MCULE-4277650856 PubChem-162637231 QEFWAKVEWCZNOH-UHFFFAOYSA-N
 29 31 0 0 0
SMALL
GASTEIGER

@<TRIPOS>ATOM
      1 C          11.5252   40.1101    7.9930 C.2     1  UNL1        0.2521
      2 N          11.6194   41.5368    7.9399 N.am    1  UNL1       -0.2663
      3 O          12.2904   39.3823    7.3065 O.2     1  UNL1       -0.2726
      4 H          10.9947   42.0563    8.4959 H       1  UNL1        0.1564
      5 C          12.5551   42.2638    7.1378 C.ar    1  UNL1        0.1551
      6 C          13.9072   42.3255    7.3482 C.ar    1  UNL1        0.0504
      7 C          14.3723   43.1305    6.3495 C.ar    1  UNL1        0.0766
      8 C          15.7232   43.4424    6.2282 C.ar    1  UNL1        0.0224
      9 C          16.6139   42.8832    7.1715 C.ar    1  UNL1        0.0729
     10 C          16.1138   42.0628    8.2151 C.ar    1  UNL1        0.0040
     11 C          14.7411   41.7681    8.3115 C.ar    1  UNL1        0.0043
     12 N          13.3578   43.5429    5.5670 N.ar    1  UNL1       -0.2745
     13 N          12.2393   43.0087    6.0526 N.ar    1  UNL1       -0.1574
     14 H          13.4296   44.1309    4.7806 H       1  UNL1        0.1890
     15 C          18.0743   43.2261    7.1200 C.3     1  UNL1        0.4186
     16 F          18.8396   42.1377    7.5016 F       1  UNL1       -0.1659
     17 F          18.3527   44.2810    7.9718 F       1  UNL1       -0.1659
     18 F          18.4135   43.5863    5.8293 F       1  UNL1       -0.1659
     19 C          10.4790   39.4773    8.8432 C.3     1  UNL1        0.2117
     20 C           8.4080   40.8795    8.9461 C.ar    1  UNL1        0.0604
     21 C           8.8098   41.6801   10.1412 C.3     1  UNL1        0.0519
     22 C           7.2401   41.0039    8.2070 C.ar    1  UNL1        0.0631
     23 C           7.3719   40.0432    7.2109 C.ar    1  UNL1        0.0828
     24 C           6.3974   39.7456    6.1243 C.3     1  UNL1        0.0541
     25 N           9.1571   39.8997    8.4030 N.ar    1  UNL1       -0.2457
     26 N           8.5426   39.3911    7.3476 N.ar    1  UNL1       -0.1734
     27 C           6.1114   41.9395    8.4106 C.2     1  UNL1        0.1758
     28 C           4.8817   41.5270    9.1423 C.3     1  UNL1        0.0773
     29 O           6.1761   43.1140    7.9616 O.2     1  UNL1       -0.2912
@<TRIPOS>BOND
     1     1     2   am
     2     5     6   ar
     3     6     7   ar
     4     7    12   ar
     5     8     9   ar
     6    15     9    1
     7    15    16    1
     8    15    17    1
     9    15    18    1
    10    10    11   ar
    11    19     1    1
    12    19    25    1
    13    21    20    1
    14    22    27    1
    15    22    23   ar
    16    28    27    1
    17    24    23    1
    18     2     5    1
    19    12    13   ar
    20    25    20   ar
    21    25    26   ar
    22     1     3    2
    23     5    13   ar
    24     7     8   ar
    25     9    10   ar
    26    11     6   ar
    27    20    22   ar
    28    27    29    2
    29    23    26   ar
    30     2     4    1
    31    12    14    1
