@<TRIPOS>MOLECULE
MolPort-009-690-752 12348320 CSSS03437129077 MCULE-8578784303 PubChem-16911853 ZINC000012348320
 27 29 0 0 0
SMALL
GASTEIGER

@<TRIPOS>ATOM
      1 C          11.0773   41.7933    6.3903 C.2     1  UNL1        0.2320
      2 N          12.3033   41.9805    5.6744 N.am    1  UNL1       -0.2639
      3 O          11.0127   41.9706    7.6355 O.2     1  UNL1       -0.2744
      4 H          12.2937   41.7686    4.7130 H       1  UNL1        0.1567
      5 C          13.5424   42.4463    6.2219 C.ar    1  UNL1        0.1656
      6 C          15.6005   43.5786    6.8558 C.ar    1  UNL1        0.0527
      7 C          15.3806   42.3653    7.4917 C.ar    1  UNL1        0.1230
      8 C          16.3016   41.8780    8.4239 C.ar    1  UNL1        0.1566
      9 C          17.4555   42.6460    8.6845 C.ar    1  UNL1        0.0385
     10 C          17.6656   43.8738    8.0286 C.ar    1  UNL1        0.0037
     11 C          16.7289   44.3552    7.1024 C.ar    1  UNL1        0.0083
     12 N          14.2335   41.7289    7.1393 N.ar    1  UNL1       -0.2209
     13 S          14.3292   43.8940    5.8098 S.2     1  UNL1       -0.0513
     14 O          16.0672   40.6539    9.0627 O.3     1  UNL1       -0.4739
     15 C          14.7668   40.1997    9.4225 C.3     1  UNL1        0.2056
     16 C          14.8162   39.4737   10.7552 C.3     1  UNL1        0.0512
     17 C           9.8486   41.4007    5.6423 C.3     1  UNL1        0.1118
     18 C           8.6405   41.5660    6.4999 C.ar    1  UNL1       -0.0099
     19 C           8.3410   40.6192    7.4833 C.ar    1  UNL1       -0.0005
     20 C           7.1984   40.7695    8.2721 C.ar    1  UNL1        0.0397
     21 C           6.3419   41.8677    8.0843 C.ar    1  UNL1        0.1724
     22 C           6.6384   42.8156    7.0922 C.ar    1  UNL1        0.1721
     23 C           7.7898   42.6571    6.3034 C.ar    1  UNL1        0.0363
     24 C           5.5498   44.8835    7.9093 C.3     1  UNL1        0.2526
     25 O           5.7777   43.9028    6.9062 O.3     1  UNL1       -0.4684
     26 C           4.5533   40.9537    9.5326 C.3     1  UNL1        0.2526
     27 O           5.1938   42.0340    8.8667 O.3     1  UNL1       -0.4684
@<TRIPOS>BOND
     1     5     2    1
     2     5    13   ar
     3    17     1    1
     4    17    18    1
     5    19    20   ar
     6    21    22   ar
     7    21    27    1
     8    22    25    1
     9    24    25    1
    10    23    18   ar
    11    26    27    1
    12     6    13   ar
    13     7     8   ar
    14     7    12   ar
    15     8    14    1
    16     9    10   ar
    17    11     6   ar
    18    15    14    1
    19    15    16    1
    20     2     1   am
    21     5    12   ar
    22     1     3    2
    23    18    19   ar
    24    20    21   ar
    25    22    23   ar
    26     6     7   ar
    27     8     9   ar
    28    10    11   ar
    29     2     4    1
@<TRIPOS>MOLECULE
MolPort-009-690-752 12348320 CSSS03437129077 MCULE-8578784303 PubChem-16911853 ZINC000012348320
 27 29 0 0 0
SMALL
GASTEIGER

@<TRIPOS>ATOM
      1 C          10.7680   41.8119    6.9107 C.2     1  UNL1        0.2320
      2 N          11.9344   41.8928    6.0837 N.am    1  UNL1       -0.2639
      3 O          10.8161   42.0856    8.1390 O.2     1  UNL1       -0.2744
      4 H          11.8353   41.6091    5.1462 H       1  UNL1        0.1567
      5 C          13.2312   42.3466    6.4889 C.ar    1  UNL1        0.1656
      6 C          15.3628   43.4528    6.8793 C.ar    1  UNL1        0.0527
      7 C          15.1897   42.2582    7.5634 C.ar    1  UNL1        0.1230
      8 C          16.1942   41.7740    8.4066 C.ar    1  UNL1        0.1566
      9 C          17.3818   42.5252    8.5280 C.ar    1  UNL1        0.0385
     10 C          17.5432   43.7340    7.8248 C.ar    1  UNL1        0.0037
     11 C          16.5237   44.2128    6.9891 C.ar    1  UNL1        0.0083
     12 N          14.0017   41.6364    7.3468 N.ar    1  UNL1       -0.2209
     13 S          13.9953   43.7695    5.9631 S.2     1  UNL1       -0.0513
     14 O          16.0069   40.5690    9.0954 O.3     1  UNL1       -0.4739
     15 C          14.7418   39.9259    9.2096 C.3     1  UNL1        0.2056
     16 C          14.4254   39.6491   10.6686 C.3     1  UNL1        0.0512
     17 C           9.4669   41.4153    6.2997 C.3     1  UNL1        0.1118
     18 C           8.3354   42.0875    6.9997 C.ar    1  UNL1       -0.0099
     19 C           7.6082   43.0931    6.3570 C.ar    1  UNL1       -0.0005
     20 C           6.5605   43.7319    7.0237 C.ar    1  UNL1        0.0397
     21 C           6.2302   43.3730    8.3416 C.ar    1  UNL1        0.1724
     22 C           6.9645   42.3677    8.9904 C.ar    1  UNL1        0.1721
     23 C           8.0165   41.7300    8.3125 C.ar    1  UNL1        0.0363
     24 C           7.6135   41.7041   11.2855 C.3     1  UNL1        0.2526
     25 O           6.6345   42.0203   10.3049 O.3     1  UNL1       -0.4684
     26 C           3.8949   44.1895    8.4516 C.3     1  UNL1        0.2526
     27 O           5.1827   44.0021    9.0236 O.3     1  UNL1       -0.4684
@<TRIPOS>BOND
     1     5     2    1
     2     5    13   ar
     3    17     1    1
     4    17    18    1
     5    19    20   ar
     6    21    22   ar
     7    21    27    1
     8    22    25    1
     9    24    25    1
    10    23    18   ar
    11    26    27    1
    12     6    13   ar
    13     7     8   ar
    14     7    12   ar
    15     8    14    1
    16     9    10   ar
    17    11     6   ar
    18    15    14    1
    19    15    16    1
    20     2     1   am
    21     5    12   ar
    22     1     3    2
    23    18    19   ar
    24    20    21   ar
    25    22    23   ar
    26     6     7   ar
    27     8     9   ar
    28    10    11   ar
    29     2     4    1
@<TRIPOS>MOLECULE
MolPort-009-690-752 12348320 CSSS03437129077 MCULE-8578784303 PubChem-16911853 ZINC000012348320
 27 29 0 0 0
SMALL
GASTEIGER

@<TRIPOS>ATOM
      1 C          11.3979   41.0687    5.9190 C.2     1  UNL1        0.2320
      2 N          12.1521   42.2726    5.7383 N.am    1  UNL1       -0.2639
      3 O          11.8525   40.1062    6.5920 O.2     1  UNL1       -0.2744
      4 H          11.7591   42.9599    5.1531 H       1  UNL1        0.1567
      5 C          13.4230   42.5734    6.3268 C.ar    1  UNL1        0.1656
      6 C          15.5689   43.4533    7.0620 C.ar    1  UNL1        0.0527
      7 C          15.2345   42.2131    7.5863 C.ar    1  UNL1        0.1230
      8 C          16.0992   41.5631    8.4720 C.ar    1  UNL1        0.1566
      9 C          17.3153   42.1970    8.8017 C.ar    1  UNL1        0.0385
     10 C          17.6413   43.4543    8.2587 C.ar    1  UNL1        0.0037
     11 C          16.7605   44.0993    7.3784 C.ar    1  UNL1        0.0083
     12 N          14.0381   41.7174    7.1770 N.ar    1  UNL1       -0.2209
     13 S          14.3410   43.9748    6.0470 S.2     1  UNL1       -0.0513
     14 O          15.7495   40.3133    8.9983 O.3     1  UNL1       -0.4739
     15 C          14.7137   40.1349    9.9587 C.3     1  UNL1        0.2056
     16 C          15.1660   39.1740   11.0438 C.3     1  UNL1        0.0512
     17 C          10.0388   40.9619    5.3149 C.3     1  UNL1        0.1118
     18 C           8.9890   41.1045    6.3637 C.ar    1  UNL1       -0.0099
     19 C           7.7061   40.5937    6.1490 C.ar    1  UNL1       -0.0005
     20 C           6.7214   40.7455    7.1276 C.ar    1  UNL1        0.0397
     21 C           7.0090   41.4119    8.3309 C.ar    1  UNL1        0.1724
     22 C           8.2956   41.9312    8.5446 C.ar    1  UNL1        0.1721
     23 C           9.2803   41.7738    7.5554 C.ar    1  UNL1        0.0363
     24 C           9.6690   43.4924    9.8883 C.3     1  UNL1        0.2526
     25 O           8.5731   42.5994    9.7421 O.3     1  UNL1       -0.4684
     26 C           4.7086   41.0780    9.1845 C.3     1  UNL1        0.2526
     27 O           6.0345   41.5717    9.3222 O.3     1  UNL1       -0.4684
@<TRIPOS>BOND
     1     5     2    1
     2     5    13   ar
     3    17     1    1
     4    17    18    1
     5    19    20   ar
     6    21    22   ar
     7    21    27    1
     8    22    25    1
     9    24    25    1
    10    23    18   ar
    11    26    27    1
    12     6    13   ar
    13     7     8   ar
    14     7    12   ar
    15     8    14    1
    16     9    10   ar
    17    11     6   ar
    18    15    14    1
    19    15    16    1
    20     2     1   am
    21     5    12   ar
    22     1     3    2
    23    18    19   ar
    24    20    21   ar
    25    22    23   ar
    26     6     7   ar
    27     8     9   ar
    28    10    11   ar
    29     2     4    1
@<TRIPOS>MOLECULE
MolPort-009-690-752 12348320 CSSS03437129077 MCULE-8578784303 PubChem-16911853 ZINC000012348320
 27 29 0 0 0
SMALL
GASTEIGER

@<TRIPOS>ATOM
      1 C          10.1326   41.3234    7.3593 C.2     1  UNL1        0.2320
      2 N           8.9741   41.5834    6.5586 N.am    1  UNL1       -0.2639
      3 O          10.1994   41.7055    8.5575 O.2     1  UNL1       -0.2744
      4 H           9.0146   41.3065    5.6147 H       1  UNL1        0.1567
      5 C           7.7620   42.2074    6.9984 C.ar    1  UNL1        0.1656
      6 C           5.8279   43.6062    7.4700 C.ar    1  UNL1        0.0527
      7 C           5.8998   42.4373    8.2139 C.ar    1  UNL1        0.1230
      8 C           4.9053   42.1306    9.1474 C.ar    1  UNL1        0.1566
      9 C           3.8444   43.0448    9.3153 C.ar    1  UNL1        0.0385
     10 C           3.7874   44.2281    8.5549 C.ar    1  UNL1        0.0037
     11 C           4.7872   44.5190    7.6153 C.ar    1  UNL1        0.0083
     12 N           6.9791   41.6544    7.9550 N.ar    1  UNL1       -0.2209
     13 S           7.1483   43.6897    6.4407 S.2     1  UNL1       -0.0513
     14 O           4.9861   40.9459    9.8898 O.3     1  UNL1       -0.4739
     15 C           5.2308   40.9208   11.2921 C.3     1  UNL1        0.2056
     16 C           6.6413   41.3999   11.5859 C.3     1  UNL1        0.0512
     17 C          11.2733   40.5672    6.7676 C.3     1  UNL1        0.1118
     18 C          12.5390   41.3436    6.9008 C.ar    1  UNL1       -0.0099
     19 C          13.5624   40.8832    7.7336 C.ar    1  UNL1       -0.0005
     20 C          14.7390   41.6234    7.8685 C.ar    1  UNL1        0.0397
     21 C          14.9035   42.8334    7.1731 C.ar    1  UNL1        0.1724
     22 C          13.8732   43.3000    6.3416 C.ar    1  UNL1        0.1721
     23 C          12.6933   42.5492    6.2112 C.ar    1  UNL1        0.0363
     24 C          15.2626   45.2355    5.6689 C.3     1  UNL1        0.2526
     25 O          14.0412   44.5089    5.6576 O.3     1  UNL1       -0.4684
     26 C          17.3223   43.0149    7.6721 C.3     1  UNL1        0.2526
     27 O          16.0763   43.5867    7.2960 O.3     1  UNL1       -0.4684
@<TRIPOS>BOND
     1     5     2    1
     2     5    13   ar
     3    17     1    1
     4    17    18    1
     5    19    20   ar
     6    21    22   ar
     7    21    27    1
     8    22    25    1
     9    24    25    1
    10    23    18   ar
    11    26    27    1
    12     6    13   ar
    13     7     8   ar
    14     7    12   ar
    15     8    14    1
    16     9    10   ar
    17    11     6   ar
    18    15    14    1
    19    15    16    1
    20     2     1   am
    21     5    12   ar
    22     1     3    2
    23    18    19   ar
    24    20    21   ar
    25    22    23   ar
    26     6     7   ar
    27     8     9   ar
    28    10    11   ar
    29     2     4    1
@<TRIPOS>MOLECULE
MolPort-009-690-752 12348320 CSSS03437129077 MCULE-8578784303 PubChem-16911853 ZINC000012348320
 27 29 0 0 0
SMALL
GASTEIGER

@<TRIPOS>ATOM
      1 C          10.1480   41.1962    7.4539 C.2     1  UNL1        0.2320
      2 N           9.0453   41.5489    6.6110 N.am    1  UNL1       -0.2639
      3 O          10.1632   41.5041    8.6750 O.2     1  UNL1       -0.2744
      4 H           9.1272   41.3267    5.6554 H       1  UNL1        0.1567
      5 C           7.8346   42.1937    7.0239 C.ar    1  UNL1        0.1656
      6 C           5.9092   43.6205    7.4440 C.ar    1  UNL1        0.0527
      7 C           5.9619   42.4674    8.2138 C.ar    1  UNL1        0.1230
      8 C           4.9545   42.1904    9.1428 C.ar    1  UNL1        0.1566
      9 C           3.9008   43.1180    9.2794 C.ar    1  UNL1        0.0385
     10 C           3.8633   44.2849    8.4929 C.ar    1  UNL1        0.0037
     11 C           4.8758   44.5460    7.5582 C.ar    1  UNL1        0.0083
     12 N           7.0363   41.6689    7.9837 N.ar    1  UNL1       -0.2209
     13 S           7.2413   43.6692    6.4277 S.2     1  UNL1       -0.0513
     14 O           5.0159   41.0214    9.9115 O.3     1  UNL1       -0.4739
     15 C           5.2131   41.0260   11.3215 C.3     1  UNL1        0.2056
     16 C           6.6560   41.3689   11.6470 C.3     1  UNL1        0.0512
     17 C          11.2910   40.4313    6.8777 C.3     1  UNL1        0.1118
     18 C          12.5483   41.2275    6.9650 C.ar    1  UNL1       -0.0099
     19 C          12.7404   42.3328    6.1318 C.ar    1  UNL1       -0.0005
     20 C          13.9276   43.0646    6.2053 C.ar    1  UNL1        0.0397
     21 C          14.9365   42.6971    7.1119 C.ar    1  UNL1        0.1724
     22 C          14.7472   41.5829    7.9444 C.ar    1  UNL1        0.1721
     23 C          13.5500   40.8525    7.8644 C.ar    1  UNL1        0.0363
     24 C          15.6818   40.0576    9.6559 C.3     1  UNL1        0.2526
     25 O          15.7587   41.2187    8.8398 O.3     1  UNL1       -0.4684
     26 C          16.4482   44.4920    6.3208 C.3     1  UNL1        0.2526
     27 O          16.1314   43.4201    7.1992 O.3     1  UNL1       -0.4684
@<TRIPOS>BOND
     1     5     2    1
     2     5    13   ar
     3    17     1    1
     4    17    18    1
     5    19    20   ar
     6    21    22   ar
     7    21    27    1
     8    22    25    1
     9    24    25    1
    10    23    18   ar
    11    26    27    1
    12     6    13   ar
    13     7     8   ar
    14     7    12   ar
    15     8    14    1
    16     9    10   ar
    17    11     6   ar
    18    15    14    1
    19    15    16    1
    20     2     1   am
    21     5    12   ar
    22     1     3    2
    23    18    19   ar
    24    20    21   ar
    25    22    23   ar
    26     6     7   ar
    27     8     9   ar
    28    10    11   ar
    29     2     4    1
@<TRIPOS>MOLECULE
MolPort-009-690-752 12348320 CSSS03437129077 MCULE-8578784303 PubChem-16911853 ZINC000012348320
 27 29 0 0 0
SMALL
GASTEIGER

@<TRIPOS>ATOM
      1 C          11.2052   41.5957    9.3476 C.2     1  UNL1        0.2320
      2 N          12.3701   41.0814    8.6923 N.am    1  UNL1       -0.2639
      3 O          11.0613   41.5029   10.5953 O.2     1  UNL1       -0.2744
      4 H          12.3888   41.1375    7.7096 H       1  UNL1        0.1567
      5 C          13.5108   40.4933    9.3287 C.ar    1  UNL1        0.1656
      6 C          15.1415   39.2881   10.6732 C.ar    1  UNL1        0.0527
      7 C          15.6828   40.1634    9.7428 C.ar    1  UNL1        0.1230
      8 C          17.0691   40.3002    9.6232 C.ar    1  UNL1        0.1566
      9 C          17.8902   39.5369   10.4789 C.ar    1  UNL1        0.0385
     10 C          17.3254   38.6553   11.4200 C.ar    1  UNL1        0.0037
     11 C          15.9332   38.5210   11.5232 C.ar    1  UNL1        0.0083
     12 N          14.7758   40.8396    8.9912 N.ar    1  UNL1       -0.2209
     13 S          13.4690   39.3393   10.5742 S.2     1  UNL1       -0.0513
     14 O          17.6044   41.1838    8.6776 O.3     1  UNL1       -0.4739
     15 C          17.4502   42.5969    8.7573 C.3     1  UNL1        0.2056
     16 C          17.1449   43.1683    7.3841 C.3     1  UNL1        0.0512
     17 C          10.1520   42.2727    8.5378 C.3     1  UNL1        0.1118
     18 C           9.9157   41.5322    7.2657 C.ar    1  UNL1       -0.0099
     19 C          10.8231   41.6423    6.2086 C.ar    1  UNL1       -0.0005
     20 C          10.5878   40.9605    5.0127 C.ar    1  UNL1        0.0397
     21 C           9.4409   40.1628    4.8607 C.ar    1  UNL1        0.1724
     22 C           8.5255   40.0570    5.9197 C.ar    1  UNL1        0.1721
     23 C           8.7699   40.7457    7.1193 C.ar    1  UNL1        0.0363
     24 C           6.0908   39.6887    6.1752 C.3     1  UNL1        0.2526
     25 O           7.3824   39.2664    5.7590 O.3     1  UNL1       -0.4684
     26 C           9.8350   38.2487    3.3397 C.3     1  UNL1        0.2526
     27 O           9.1907   39.4721    3.6698 O.3     1  UNL1       -0.4684
@<TRIPOS>BOND
     1     5     2    1
     2     5    13   ar
     3    17     1    1
     4    17    18    1
     5    19    20   ar
     6    21    22   ar
     7    21    27    1
     8    22    25    1
     9    24    25    1
    10    23    18   ar
    11    26    27    1
    12     6    13   ar
    13     7     8   ar
    14     7    12   ar
    15     8    14    1
    16     9    10   ar
    17    11     6   ar
    18    15    14    1
    19    15    16    1
    20     2     1   am
    21     5    12   ar
    22     1     3    2
    23    18    19   ar
    24    20    21   ar
    25    22    23   ar
    26     6     7   ar
    27     8     9   ar
    28    10    11   ar
    29     2     4    1
@<TRIPOS>MOLECULE
MolPort-009-690-752 12348320 CSSS03437129077 MCULE-8578784303 PubChem-16911853 ZINC000012348320
 27 29 0 0 0
SMALL
GASTEIGER

@<TRIPOS>ATOM
      1 C          10.2845   40.7536    8.0247 C.2     1  UNL1        0.2320
      2 N          11.3254   41.4050    8.7618 N.am    1  UNL1       -0.2639
      3 O          10.3129   39.5132    7.8088 O.2     1  UNL1       -0.2744
      4 H          11.2671   42.3844    8.8426 H       1  UNL1        0.1567
      5 C          12.4431   40.7690    9.3929 C.ar    1  UNL1        0.1656
      6 C          14.0310   39.5239   10.7523 C.ar    1  UNL1        0.0527
      7 C          14.5988   40.2951    9.7483 C.ar    1  UNL1        0.1230
      8 C          15.9853   40.3147    9.5700 C.ar    1  UNL1        0.1566
      9 C          16.7803   39.5430   10.4428 C.ar    1  UNL1        0.0385
     10 C          16.1891   38.7682   11.4586 C.ar    1  UNL1        0.0037
     11 C          14.7961   38.7506   11.6206 C.ar    1  UNL1        0.0083
     12 N          13.7158   40.9932    8.9882 N.ar    1  UNL1       -0.2209
     13 S          12.3646   39.7005   10.7109 S.2     1  UNL1       -0.0513
     14 O          16.5471   41.0936    8.5506 O.3     1  UNL1       -0.4739
     15 C          17.2743   42.2924    8.7975 C.3     1  UNL1        0.2056
     16 C          17.5323   43.0260    7.4934 C.3     1  UNL1        0.0512
     17 C           9.1344   41.5580    7.5211 C.3     1  UNL1        0.1118
     18 C           8.0017   41.5117    8.4891 C.ar    1  UNL1       -0.0099
     19 C           6.6952   41.3141    8.0343 C.ar    1  UNL1       -0.0005
     20 C           5.6356   41.2891    8.9437 C.ar    1  UNL1        0.0397
     21 C           5.8715   41.4637   10.3180 C.ar    1  UNL1        0.1724
     22 C           7.1828   41.6690   10.7750 C.ar    1  UNL1        0.1721
     23 C           8.2429   41.6923    9.8537 C.ar    1  UNL1        0.0363
     24 C           8.5069   41.2567   12.8259 C.3     1  UNL1        0.2526
     25 O           7.4095   41.8488   12.1439 O.3     1  UNL1       -0.4684
     26 C           4.0024   40.2967   11.4481 C.3     1  UNL1        0.2526
     27 O           4.8215   41.4403   11.2427 O.3     1  UNL1       -0.4684
@<TRIPOS>BOND
     1     5     2    1
     2     5    13   ar
     3    17     1    1
     4    17    18    1
     5    19    20   ar
     6    21    22   ar
     7    21    27    1
     8    22    25    1
     9    24    25    1
    10    23    18   ar
    11    26    27    1
    12     6    13   ar
    13     7     8   ar
    14     7    12   ar
    15     8    14    1
    16     9    10   ar
    17    11     6   ar
    18    15    14    1
    19    15    16    1
    20     2     1   am
    21     5    12   ar
    22     1     3    2
    23    18    19   ar
    24    20    21   ar
    25    22    23   ar
    26     6     7   ar
    27     8     9   ar
    28    10    11   ar
    29     2     4    1
@<TRIPOS>MOLECULE
MolPort-009-690-752 12348320 CSSS03437129077 MCULE-8578784303 PubChem-16911853 ZINC000012348320
 27 29 0 0 0
SMALL
GASTEIGER

@<TRIPOS>ATOM
      1 C          11.5359   41.4272    9.1708 C.2     1  UNL1        0.2320
      2 N          12.7397   41.0785    8.4779 N.am    1  UNL1       -0.2639
      3 O          11.3851   41.1657   10.3935 O.2     1  UNL1       -0.2744
      4 H          12.7651   41.2614    7.5109 H       1  UNL1        0.1567
      5 C          13.9105   40.4893    9.0560 C.ar    1  UNL1        0.1656
      6 C          16.1205   39.8230    9.8251 C.ar    1  UNL1        0.0527
      7 C          15.0910   38.9686   10.1925 C.ar    1  UNL1        0.1230
      8 C          15.3572   37.8266   10.9539 C.ar    1  UNL1        0.1566
      9 C          16.6941   37.5676   11.3214 C.ar    1  UNL1        0.0385
     10 C          17.7279   38.4428   10.9381 C.ar    1  UNL1        0.0037
     11 C          17.4455   39.5898   10.1820 C.ar    1  UNL1        0.0083
     12 N          13.8557   39.3360    9.7637 N.ar    1  UNL1       -0.2209
     13 S          15.4925   41.0946    8.9316 S.2     1  UNL1       -0.0513
     14 O          14.3096   36.9734   11.3225 O.3     1  UNL1       -0.4739
     15 C          13.7480   36.0048   10.4432 C.3     1  UNL1        0.2056
     16 C          12.2318   36.0731   10.4888 C.3     1  UNL1        0.0512
     17 C          10.4483   42.1324    8.4337 C.3     1  UNL1        0.1118
     18 C          10.1309   41.4186    7.1640 C.ar    1  UNL1       -0.0099
     19 C          10.9804   41.5346    6.0604 C.ar    1  UNL1       -0.0005
     20 C          10.6692   40.8780    4.8677 C.ar    1  UNL1        0.0397
     21 C           9.5034   40.1000    4.7656 C.ar    1  UNL1        0.1724
     22 C           8.6461   39.9884    5.8715 C.ar    1  UNL1        0.1721
     23 C           8.9667   40.6517    7.0675 C.ar    1  UNL1        0.0363
     24 C           6.2188   39.6614    6.2330 C.3     1  UNL1        0.2526
     25 O           7.4837   39.2177    5.7606 O.3     1  UNL1       -0.4684
     26 C           9.7662   38.1963    3.2037 C.3     1  UNL1        0.2526
     27 O           9.1773   39.4347    3.5785 O.3     1  UNL1       -0.4684
@<TRIPOS>BOND
     1     5     2    1
     2     5    13   ar
     3    17     1    1
     4    17    18    1
     5    19    20   ar
     6    21    22   ar
     7    21    27    1
     8    22    25    1
     9    24    25    1
    10    23    18   ar
    11    26    27    1
    12     6    13   ar
    13     7     8   ar
    14     7    12   ar
    15     8    14    1
    16     9    10   ar
    17    11     6   ar
    18    15    14    1
    19    15    16    1
    20     2     1   am
    21     5    12   ar
    22     1     3    2
    23    18    19   ar
    24    20    21   ar
    25    22    23   ar
    26     6     7   ar
    27     8     9   ar
    28    10    11   ar
    29     2     4    1
@<TRIPOS>MOLECULE
MolPort-009-690-752 12348320 CSSS03437129077 MCULE-8578784303 PubChem-16911853 ZINC000012348320
 27 29 0 0 0
SMALL
GASTEIGER

@<TRIPOS>ATOM
      1 C          13.4564   40.0173   10.3876 C.2     1  UNL1        0.2320
      2 N          12.4537   40.5999    9.5472 N.am    1  UNL1       -0.2639
      3 O          13.2298   39.7686   11.6011 O.2     1  UNL1       -0.2744
      4 H          12.7192   40.8197    8.6250 H       1  UNL1        0.1567
      5 C          11.1018   40.8936    9.9189 C.ar    1  UNL1        0.1656
      6 C           8.9620   41.3666   10.9757 C.ar    1  UNL1        0.0527
      7 C           8.9200   41.2564    9.5933 C.ar    1  UNL1        0.1230
      8 C           7.7131   41.4202    8.9069 C.ar    1  UNL1        0.1566
      9 C           6.5497   41.6857    9.6589 C.ar    1  UNL1        0.0385
     10 C           6.6084   41.7914   11.0614 C.ar    1  UNL1        0.0037
     11 C           7.8275   41.6338   11.7366 C.ar    1  UNL1        0.0083
     12 N          10.1123   40.9906    8.9994 N.ar    1  UNL1       -0.2209
     13 S          10.5354   41.1292   11.5027 S.2     1  UNL1       -0.0513
     14 O           7.6834   41.3109    7.5110 O.3     1  UNL1       -0.4739
     15 C           7.7862   40.0677    6.8249 C.3     1  UNL1        0.2056
     16 C           6.4520   39.7042    6.1978 C.3     1  UNL1        0.0512
     17 C          14.7881   39.6802    9.8077 C.3     1  UNL1        0.1118
     18 C          15.2874   40.8012    8.9612 C.ar    1  UNL1       -0.0099
     19 C          16.5392   41.3693    9.2129 C.ar    1  UNL1       -0.0005
     20 C          16.9946   42.4309    8.4282 C.ar    1  UNL1        0.0397
     21 C          16.2016   42.9371    7.3843 C.ar    1  UNL1        0.1724
     22 C          14.9412   42.3715    7.1351 C.ar    1  UNL1        0.1721
     23 C          14.4909   41.3037    7.9288 C.ar    1  UNL1        0.0363
     24 C          14.0030   44.2789    5.8660 C.3     1  UNL1        0.2526
     25 O          14.1542   42.8850    6.0985 O.3     1  UNL1       -0.4684
     26 C          17.7133   43.8730    5.6605 C.3     1  UNL1        0.2526
     27 O          16.6432   43.9995    6.5878 O.3     1  UNL1       -0.4684
@<TRIPOS>BOND
     1     5     2    1
     2     5    13   ar
     3    17     1    1
     4    17    18    1
     5    19    20   ar
     6    21    22   ar
     7    21    27    1
     8    22    25    1
     9    24    25    1
    10    23    18   ar
    11    26    27    1
    12     6    13   ar
    13     7     8   ar
    14     7    12   ar
    15     8    14    1
    16     9    10   ar
    17    11     6   ar
    18    15    14    1
    19    15    16    1
    20     2     1   am
    21     5    12   ar
    22     1     3    2
    23    18    19   ar
    24    20    21   ar
    25    22    23   ar
    26     6     7   ar
    27     8     9   ar
    28    10    11   ar
    29     2     4    1
@<TRIPOS>MOLECULE
MolPort-009-690-752 12348320 CSSS03437129077 MCULE-8578784303 PubChem-16911853 ZINC000012348320
 27 29 0 0 0
SMALL
GASTEIGER

@<TRIPOS>ATOM
      1 C          10.3483   40.9591   10.2882 C.2     1  UNL1        0.2320
      2 N           9.2817   40.6288    9.3914 N.am    1  UNL1       -0.2639
      3 O          10.4933   42.1294   10.7301 O.2     1  UNL1       -0.2744
      4 H           9.2638   39.7087    9.0415 H       1  UNL1        0.1567
      5 C           8.2385   41.5078    8.9544 C.ar    1  UNL1        0.1656
      6 C           6.7609   43.1194    7.8872 C.ar    1  UNL1        0.0527
      7 C           6.2618   42.5478    9.0487 C.ar    1  UNL1        0.1230
      8 C           4.9954   42.9018    9.5237 C.ar    1  UNL1        0.1566
      9 C           4.2551   43.8583    8.7982 C.ar    1  UNL1        0.0385
     10 C           4.7769   44.4314    7.6230 C.ar    1  UNL1        0.0037
     11 C           6.0450   44.0604    7.1527 C.ar    1  UNL1        0.0083
     12 N           7.0843   41.6488    9.6487 N.ar    1  UNL1       -0.2209
     13 S           8.2846   42.4954    7.5733 S.2     1  UNL1       -0.0513
     14 O           4.5001   42.3152   10.6950 O.3     1  UNL1       -0.4739
     15 C           5.0229   41.1100   11.2437 C.3     1  UNL1        0.2056
     16 C           3.9050   40.1056   11.4605 C.3     1  UNL1        0.0512
     17 C          11.2931   39.8904   10.7227 C.3     1  UNL1        0.1118
     18 C          12.6520   40.1355   10.1607 C.ar    1  UNL1       -0.0099
     19 C          13.7845   39.6548   10.8234 C.ar    1  UNL1       -0.0005
     20 C          15.0562   39.9024   10.3020 C.ar    1  UNL1        0.0397
     21 C          15.2087   40.6355    9.1128 C.ar    1  UNL1        0.1724
     22 C          14.0719   41.1245    8.4501 C.ar    1  UNL1        0.1721
     23 C          12.7965   40.8707    8.9811 C.ar    1  UNL1        0.0363
     24 C          13.1424   42.1992    6.4227 C.3     1  UNL1        0.2526
     25 O          14.2315   41.8595    7.2703 O.3     1  UNL1       -0.4684
     26 C          17.1529   42.1278    8.7587 C.3     1  UNL1        0.2526
     27 O          16.4753   40.8915    8.5761 O.3     1  UNL1       -0.4684
@<TRIPOS>BOND
     1     5     2    1
     2     5    13   ar
     3    17     1    1
     4    17    18    1
     5    19    20   ar
     6    21    22   ar
     7    21    27    1
     8    22    25    1
     9    24    25    1
    10    23    18   ar
    11    26    27    1
    12     6    13   ar
    13     7     8   ar
    14     7    12   ar
    15     8    14    1
    16     9    10   ar
    17    11     6   ar
    18    15    14    1
    19    15    16    1
    20     2     1   am
    21     5    12   ar
    22     1     3    2
    23    18    19   ar
    24    20    21   ar
    25    22    23   ar
    26     6     7   ar
    27     8     9   ar
    28    10    11   ar
    29     2     4    1
