@<TRIPOS>MOLECULE
MolPort-028-722-939 44203134 CSC047754199 CSSS00047754199 MCULE-8381017728 PubChem-72845750 ZINC000044203134 ZINC44203134
 30 32 0 0 0
SMALL
GASTEIGER

@<TRIPOS>ATOM
      1 C          12.2446   42.5392    7.2918 C.2     1  UNL1        0.3047
      2 N          13.0920   42.3624    6.1551 N.am    1  UNL1       -0.2846
      3 N          11.1673   41.6185    7.5043 N.am    1  UNL1       -0.2682
      4 O          12.4448   43.4970    8.0870 O.2     1  UNL1       -0.2525
      5 H          12.8914   41.6303    5.5282 H       1  UNL1        0.1513
      6 H          11.0594   40.9045    6.8351 H       1  UNL1        0.1564
      7 C          10.2298   41.6281    8.5896 C.ar    1  UNL1        0.0546
      8 C           8.8776   41.8516    8.3082 C.ar    1  UNL1        0.0516
      9 C           7.9267   41.8689    9.3339 C.ar    1  UNL1        0.1396
     10 C           8.3386   41.6568   10.6591 C.ar    1  UNL1        0.0370
     11 C           9.6862   41.4321   10.9493 C.ar    1  UNL1        0.0044
     12 C          10.6285   41.4176    9.9182 C.ar    1  UNL1        0.0149
     13 O           6.5846   42.0931    9.0087 O.3     1  UNL1       -0.4791
     14 C           5.8877   43.2861    9.3522 C.3     1  UNL1        0.1659
     15 C           6.2981   44.4204    8.4246 C.3     1  UNL1        0.0435
     16 C           5.0922   44.7334    7.5657 C.3     1  UNL1        0.0038
     17 C           3.9014   44.2641    8.3651 C.3     1  UNL1        0.0038
     18 C           4.3988   43.0724    9.1515 C.3     1  UNL1        0.0435
     19 C          14.2398   43.2175    5.8823 C.3     1  UNL1        0.1177
     20 C          16.2622   41.6236    8.6756 C.ar    1  UNL1        0.0533
     21 C          15.2514   41.8639    7.7320 C.ar    1  UNL1        0.0019
     22 C          15.3236   42.9681    6.8759 C.ar    1  UNL1       -0.0024
     23 C          16.4042   43.8498    6.9666 C.ar    1  UNL1       -0.0026
     24 C          17.4104   43.6269    7.9092 C.ar    1  UNL1       -0.0001
     25 C          17.3370   42.5214    8.7613 C.ar    1  UNL1        0.0045
     26 C          17.1693   38.9532   11.3106 C.3     1  UNL1        0.1152
     27 C          18.5821   39.7776    9.4401 C.3     1  UNL1        0.1152
     28 C          16.1510   40.4635    9.5915 C.2     1  UNL1        0.2491
     29 N          17.3063   39.8004   10.1376 N.am    1  UNL1       -0.2726
     30 O          15.0011   40.0522    9.9099 O.2     1  UNL1       -0.2699
@<TRIPOS>BOND
     1    26    29    1
     2    27    29    1
     3    28    20    1
     4    21    22   ar
     5    19    22    1
     6    19     2    1
     7     1     3   am
     8     8     9   ar
     9     9    13    1
    10    14    13    1
    11    14    15    1
    12    15    16    1
    13    16    17    1
    14    17    18    1
    15    18    14    1
    16    10    11   ar
    17    12     7   ar
    18    23    24   ar
    19    25    20   ar
    20    29    28   am
    21     2     1   am
    22     3     7    1
    23    28    30    2
    24    20    21   ar
    25    22    23   ar
    26     1     4    2
    27     7     8   ar
    28     9    10   ar
    29    11    12   ar
    30    24    25   ar
    31     2     5    1
    32     3     6    1
@<TRIPOS>MOLECULE
MolPort-028-722-939 44203134 CSC047754199 CSSS00047754199 MCULE-8381017728 PubChem-72845750 ZINC000044203134 ZINC44203134
 30 32 0 0 0
SMALL
GASTEIGER

@<TRIPOS>ATOM
      1 C          12.5112   42.2100    6.2819 C.2     1  UNL1        0.3047
      2 N          13.6104   42.8725    5.6538 N.am    1  UNL1       -0.2846
      3 N          11.8414   41.1568    5.5779 N.am    1  UNL1       -0.2682
      4 O          12.1389   42.5575    7.4354 O.2     1  UNL1       -0.2525
      5 H          13.8570   42.6091    4.7378 H       1  UNL1        0.1513
      6 H          12.1743   40.9490    4.6751 H       1  UNL1        0.1564
      7 C          10.7368   40.3737    6.0508 C.ar    1  UNL1        0.0546
      8 C          10.9632   39.4331    7.0616 C.ar    1  UNL1        0.0516
      9 C           9.9166   38.6472    7.5551 C.ar    1  UNL1        0.1396
     10 C           8.6255   38.8096    7.0286 C.ar    1  UNL1        0.0370
     11 C           8.3899   39.7467    6.0200 C.ar    1  UNL1        0.0044
     12 C           9.4419   40.5261    5.5329 C.ar    1  UNL1        0.0149
     13 O          10.1859   37.7205    8.5680 O.3     1  UNL1       -0.4791
     14 C          11.2566   37.8671    9.4948 C.3     1  UNL1        0.1659
     15 C          11.3452   36.6425   10.3938 C.3     1  UNL1        0.0435
     16 C          12.6243   35.9251   10.0209 C.3     1  UNL1        0.0038
     17 C          13.5125   36.9839    9.4148 C.3     1  UNL1        0.0038
     18 C          12.5683   37.9503    8.7364 C.3     1  UNL1        0.0435
     19 C          14.3825   43.9204    6.3084 C.3     1  UNL1        0.1177
     20 C          16.3610   41.6703    8.6440 C.ar    1  UNL1        0.0533
     21 C          15.3021   42.2293    7.9121 C.ar    1  UNL1        0.0019
     22 C          15.5169   43.3301    7.0757 C.ar    1  UNL1       -0.0024
     23 C          16.7939   43.8893    6.9751 C.ar    1  UNL1       -0.0026
     24 C          17.8530   43.3482    7.7074 C.ar    1  UNL1       -0.0001
     25 C          17.6359   42.2468    8.5401 C.ar    1  UNL1        0.0045
     26 C          16.9007   38.9281   11.3062 C.3     1  UNL1        0.1152
     27 C          18.4742   39.6340    9.5173 C.3     1  UNL1        0.1152
     28 C          16.1048   40.5219    9.5457 C.2     1  UNL1        0.2491
     29 N          17.1700   39.7630   10.1473 N.am    1  UNL1       -0.2726
     30 O          14.9092   40.2083    9.8009 O.2     1  UNL1       -0.2699
@<TRIPOS>BOND
     1    26    29    1
     2    27    29    1
     3    28    20    1
     4    21    22   ar
     5    19    22    1
     6    19     2    1
     7     1     3   am
     8     8     9   ar
     9     9    13    1
    10    14    13    1
    11    14    15    1
    12    15    16    1
    13    16    17    1
    14    17    18    1
    15    18    14    1
    16    10    11   ar
    17    12     7   ar
    18    23    24   ar
    19    25    20   ar
    20    29    28   am
    21     2     1   am
    22     3     7    1
    23    28    30    2
    24    20    21   ar
    25    22    23   ar
    26     1     4    2
    27     7     8   ar
    28     9    10   ar
    29    11    12   ar
    30    24    25   ar
    31     2     5    1
    32     3     6    1
@<TRIPOS>MOLECULE
MolPort-028-722-939 44203134 CSC047754199 CSSS00047754199 MCULE-8381017728 PubChem-72845750 ZINC000044203134 ZINC44203134
 30 32 0 0 0
SMALL
GASTEIGER

@<TRIPOS>ATOM
      1 C           9.8818   40.9068   10.9205 C.2     1  UNL1        0.3047
      2 N           8.4636   40.7331   10.9206 N.am    1  UNL1       -0.2846
      3 N          10.6722   40.1626    9.9851 N.am    1  UNL1       -0.2682
      4 O          10.4219   41.6999   11.7385 O.2     1  UNL1       -0.2525
      5 H           8.0698   40.0794   10.2987 H       1  UNL1        0.1513
      6 H          10.1864   39.5496    9.3872 H       1  UNL1        0.1564
      7 C          12.0968   40.2170    9.8287 C.ar    1  UNL1        0.0546
      8 C          12.6255   40.8498    8.6984 C.ar    1  UNL1        0.0516
      9 C          14.0084   40.9283    8.5035 C.ar    1  UNL1        0.1396
     10 C          14.8717   40.3661    9.4572 C.ar    1  UNL1        0.0370
     11 C          14.3529   39.7332   10.5890 C.ar    1  UNL1        0.0044
     12 C          12.9703   39.6590   10.7742 C.ar    1  UNL1        0.0149
     13 O          14.4952   41.5723    7.3609 O.3     1  UNL1       -0.4791
     14 C          14.5902   42.9880    7.2443 C.3     1  UNL1        0.1659
     15 C          16.0501   43.4160    7.2106 C.3     1  UNL1        0.0435
     16 C          16.3164   43.9321    5.8132 C.3     1  UNL1        0.0038
     17 C          14.9702   44.3636    5.2850 C.3     1  UNL1        0.0038
     18 C          13.9745   43.4251    5.9281 C.3     1  UNL1        0.0435
     19 C           7.5742   41.4802   11.8002 C.3     1  UNL1        0.1177
     20 C           4.5204   42.5434    9.8060 C.ar    1  UNL1        0.0533
     21 C           5.8210   42.5038   10.3321 C.ar    1  UNL1        0.0019
     22 C           6.1915   41.5079   11.2422 C.ar    1  UNL1       -0.0024
     23 C           5.2571   40.5493   11.6439 C.ar    1  UNL1       -0.0026
     24 C           3.9567   40.5854   11.1355 C.ar    1  UNL1       -0.0001
     25 C           3.5902   41.5799   10.2243 C.ar    1  UNL1        0.0045
     26 C           4.6986   45.0964    6.9167 C.3     1  UNL1        0.1152
     27 C           6.4839   44.5280    8.5489 C.3     1  UNL1        0.1152
     28 C           4.1416   43.6241    8.8649 C.2     1  UNL1        0.2491
     29 N           5.1162   44.3465    8.0897 N.am    1  UNL1       -0.2726
     30 O           2.9195   43.9110    8.7336 O.2     1  UNL1       -0.2699
@<TRIPOS>BOND
     1    26    29    1
     2    27    29    1
     3    28    20    1
     4    21    22   ar
     5    19    22    1
     6    19     2    1
     7     1     3   am
     8     8     9   ar
     9     9    13    1
    10    14    13    1
    11    14    15    1
    12    15    16    1
    13    16    17    1
    14    17    18    1
    15    18    14    1
    16    10    11   ar
    17    12     7   ar
    18    23    24   ar
    19    25    20   ar
    20    29    28   am
    21     2     1   am
    22     3     7    1
    23    28    30    2
    24    20    21   ar
    25    22    23   ar
    26     1     4    2
    27     7     8   ar
    28     9    10   ar
    29    11    12   ar
    30    24    25   ar
    31     2     5    1
    32     3     6    1
@<TRIPOS>MOLECULE
MolPort-028-722-939 44203134 CSC047754199 CSSS00047754199 MCULE-8381017728 PubChem-72845750 ZINC000044203134 ZINC44203134
 30 32 0 0 0
SMALL
GASTEIGER

@<TRIPOS>ATOM
      1 C          12.5258   42.2719    6.2961 C.2     1  UNL1        0.3047
      2 N          13.6928   42.8521    5.7104 N.am    1  UNL1       -0.2846
      3 N          11.7765   41.3099    5.5434 N.am    1  UNL1       -0.2682
      4 O          12.1643   42.6117    7.4553 O.2     1  UNL1       -0.2525
      5 H          13.9321   42.5993    4.7895 H       1  UNL1        0.1513
      6 H          12.1066   41.1040    4.6391 H       1  UNL1        0.1564
      7 C          10.5961   40.6155    5.9695 C.ar    1  UNL1        0.0546
      8 C           9.7394   41.2423    6.8810 C.ar    1  UNL1        0.0516
      9 C           8.5762   40.6045    7.3244 C.ar    1  UNL1        0.1396
     10 C           8.2679   39.3217    6.8446 C.ar    1  UNL1        0.0370
     11 C           9.1169   38.6887    5.9339 C.ar    1  UNL1        0.0044
     12 C          10.2769   39.3334    5.4978 C.ar    1  UNL1        0.0149
     13 O           7.7456   41.2678    8.2341 O.3     1  UNL1       -0.4791
     14 C           6.5099   41.8711    7.8654 C.3     1  UNL1        0.1659
     15 C           5.9940   42.7470    8.9978 C.3     1  UNL1        0.0435
     16 C           6.0929   44.1781    8.5159 C.3     1  UNL1        0.0038
     17 C           6.0605   44.0940    7.0095 C.3     1  UNL1        0.0038
     18 C           6.7330   42.7824    6.6728 C.3     1  UNL1        0.0435
     19 C          14.5444   43.8013    6.4153 C.3     1  UNL1        0.1177
     20 C          16.0973   41.2755    8.7906 C.ar    1  UNL1        0.0533
     21 C          15.1645   41.9569    7.9937 C.ar    1  UNL1        0.0019
     22 C          15.5461   43.0808    7.2529 C.ar    1  UNL1       -0.0024
     23 C          16.8647   43.5401    7.3143 C.ar    1  UNL1       -0.0026
     24 C          17.7990   42.8766    8.1127 C.ar    1  UNL1       -0.0001
     25 C          17.4155   41.7525    8.8495 C.ar    1  UNL1        0.0045
     26 C          16.0217   38.5392   11.5117 C.3     1  UNL1        0.1152
     27 C          17.9928   39.3552   10.2376 C.3     1  UNL1        0.1152
     28 C          15.6643   40.1042    9.5891 C.2     1  UNL1        0.2491
     29 N          16.5584   39.4013   10.4718 N.am    1  UNL1       -0.2726
     30 O          14.4659   39.7190    9.4971 O.2     1  UNL1       -0.2699
@<TRIPOS>BOND
     1    26    29    1
     2    27    29    1
     3    28    20    1
     4    21    22   ar
     5    19    22    1
     6    19     2    1
     7     1     3   am
     8     8     9   ar
     9     9    13    1
    10    14    13    1
    11    14    15    1
    12    15    16    1
    13    16    17    1
    14    17    18    1
    15    18    14    1
    16    10    11   ar
    17    12     7   ar
    18    23    24   ar
    19    25    20   ar
    20    29    28   am
    21     2     1   am
    22     3     7    1
    23    28    30    2
    24    20    21   ar
    25    22    23   ar
    26     1     4    2
    27     7     8   ar
    28     9    10   ar
    29    11    12   ar
    30    24    25   ar
    31     2     5    1
    32     3     6    1
@<TRIPOS>MOLECULE
MolPort-028-722-939 44203134 CSC047754199 CSSS00047754199 MCULE-8381017728 PubChem-72845750 ZINC000044203134 ZINC44203134
 30 32 0 0 0
SMALL
GASTEIGER

@<TRIPOS>ATOM
      1 C          12.6360   42.2860    7.1788 C.2     1  UNL1        0.3047
      2 N          11.4367   42.1174    6.4207 N.am    1  UNL1       -0.2846
      3 N          13.8465   42.6329    6.4949 N.am    1  UNL1       -0.2682
      4 O          12.6218   42.1238    8.4292 O.2     1  UNL1       -0.2525
      5 H          11.4820   42.2114    5.4418 H       1  UNL1        0.1513
      6 H          13.7883   42.7275    5.5167 H       1  UNL1        0.1564
      7 C          15.1339   42.8567    7.0860 C.ar    1  UNL1        0.0546
      8 C          15.7244   41.8239    7.8224 C.ar    1  UNL1        0.0516
      9 C          16.9791   41.9956    8.4165 C.ar    1  UNL1        0.1396
     10 C          17.6506   43.2193    8.2671 C.ar    1  UNL1        0.0370
     11 C          17.0692   44.2555    7.5330 C.ar    1  UNL1        0.0044
     12 C          15.8153   44.0748    6.9444 C.ar    1  UNL1        0.0149
     13 O          17.5348   40.9363    9.1420 O.3     1  UNL1       -0.4791
     14 C          16.8197   40.2138   10.1388 C.3     1  UNL1        0.1659
     15 C          15.8870   39.2029    9.4878 C.3     1  UNL1        0.0435
     16 C          16.4406   37.8327    9.8136 C.3     1  UNL1        0.0038
     17 C          17.2483   38.0192   11.0746 C.3     1  UNL1        0.0038
     18 C          17.8002   39.4239   10.9858 C.3     1  UNL1        0.0435
     19 C          10.1496   41.8124    7.0319 C.3     1  UNL1        0.1177
     20 C          11.0698   38.8235    9.1888 C.ar    1  UNL1        0.0533
     21 C          11.0472   40.1159    8.6423 C.ar    1  UNL1        0.0019
     22 C          10.1596   40.4377    7.6098 C.ar    1  UNL1       -0.0024
     23 C           9.2945   39.4622    7.1062 C.ar    1  UNL1       -0.0026
     24 C           9.3159   38.1696    7.6347 C.ar    1  UNL1       -0.0001
     25 C          10.2019   37.8518    8.6680 C.ar    1  UNL1        0.0045
     26 C          13.5712   36.8582   11.3747 C.3     1  UNL1        0.1152
     27 C          11.4140   36.0513   10.4421 C.3     1  UNL1        0.1152
     28 C          12.0380   38.4971   10.2627 C.2     1  UNL1        0.2491
     29 N          12.3599   37.1409   10.6228 N.am    1  UNL1       -0.2726
     30 O          12.6060   39.4444   10.8735 O.2     1  UNL1       -0.2699
@<TRIPOS>BOND
     1    26    29    1
     2    27    29    1
     3    28    20    1
     4    21    22   ar
     5    19    22    1
     6    19     2    1
     7     1     3   am
     8     8     9   ar
     9     9    13    1
    10    14    13    1
    11    14    15    1
    12    15    16    1
    13    16    17    1
    14    17    18    1
    15    18    14    1
    16    10    11   ar
    17    12     7   ar
    18    23    24   ar
    19    25    20   ar
    20    29    28   am
    21     2     1   am
    22     3     7    1
    23    28    30    2
    24    20    21   ar
    25    22    23   ar
    26     1     4    2
    27     7     8   ar
    28     9    10   ar
    29    11    12   ar
    30    24    25   ar
    31     2     5    1
    32     3     6    1
@<TRIPOS>MOLECULE
MolPort-028-722-939 44203134 CSC047754199 CSSS00047754199 MCULE-8381017728 PubChem-72845750 ZINC000044203134 ZINC44203134
 30 32 0 0 0
SMALL
GASTEIGER

@<TRIPOS>ATOM
      1 C          11.5833   41.9756    8.1800 C.2     1  UNL1        0.3047
      2 N          12.3707   41.6365    7.0370 N.am    1  UNL1       -0.2846
      3 N          10.6217   41.0305    8.6655 N.am    1  UNL1       -0.2682
      4 O          11.7342   43.0937    8.7428 O.2     1  UNL1       -0.2525
      5 H          12.2070   40.7736    6.5922 H       1  UNL1        0.1513
      6 H          10.5454   40.1844    8.1680 H       1  UNL1        0.1564
      7 C           9.7587   41.1881    9.8002 C.ar    1  UNL1        0.0546
      8 C           8.4263   41.5570    9.5855 C.ar    1  UNL1        0.0516
      9 C           7.5473   41.7217   10.6611 C.ar    1  UNL1        0.1396
     10 C           8.0117   41.5110   11.9690 C.ar    1  UNL1        0.0370
     11 C           9.3400   41.1417   12.1927 C.ar    1  UNL1        0.0044
     12 C          10.2105   40.9807   11.1121 C.ar    1  UNL1        0.0149
     13 O           6.2223   42.0886   10.4021 O.3     1  UNL1       -0.4791
     14 C           5.1320   41.1761   10.4748 C.3     1  UNL1        0.1659
     15 C           4.1177   41.6499   11.5055 C.3     1  UNL1        0.0435
     16 C           2.8805   42.0601   10.7367 C.3     1  UNL1        0.0038
     17 C           2.9417   41.2870    9.4421 C.3     1  UNL1        0.0038
     18 C           4.4156   41.1433    9.1374 C.3     1  UNL1        0.0435
     19 C          13.4053   42.5110    6.5003 C.3     1  UNL1        0.1177
     20 C          16.0345   41.0926    8.8472 C.ar    1  UNL1        0.0533
     21 C          14.8476   41.2503    8.1151 C.ar    1  UNL1        0.0019
     22 C          14.6738   42.3499    7.2677 C.ar    1  UNL1       -0.0024
     23 C          15.6840   43.3094    7.1562 C.ar    1  UNL1       -0.0026
     24 C          16.8649   43.1686    7.8885 C.ar    1  UNL1       -0.0001
     25 C          17.0368   42.0676    8.7322 C.ar    1  UNL1        0.0045
     26 C          15.2087   37.9278   10.8967 C.3     1  UNL1        0.1152
     27 C          13.7990   39.9528   10.6016 C.3     1  UNL1        0.1152
     28 C          16.1856   39.9348    9.7605 C.2     1  UNL1        0.2491
     29 N          15.0547   39.2647   10.3475 N.am    1  UNL1       -0.2726
     30 O          17.3480   39.5182   10.0219 O.2     1  UNL1       -0.2699
@<TRIPOS>BOND
     1    26    29    1
     2    27    29    1
     3    28    20    1
     4    21    22   ar
     5    19    22    1
     6    19     2    1
     7     1     3   am
     8     8     9   ar
     9     9    13    1
    10    14    13    1
    11    14    15    1
    12    15    16    1
    13    16    17    1
    14    17    18    1
    15    18    14    1
    16    10    11   ar
    17    12     7   ar
    18    23    24   ar
    19    25    20   ar
    20    29    28   am
    21     2     1   am
    22     3     7    1
    23    28    30    2
    24    20    21   ar
    25    22    23   ar
    26     1     4    2
    27     7     8   ar
    28     9    10   ar
    29    11    12   ar
    30    24    25   ar
    31     2     5    1
    32     3     6    1
@<TRIPOS>MOLECULE
MolPort-028-722-939 44203134 CSC047754199 CSSS00047754199 MCULE-8381017728 PubChem-72845750 ZINC000044203134 ZINC44203134
 30 32 0 0 0
SMALL
GASTEIGER

@<TRIPOS>ATOM
      1 C          11.2399   40.5172   10.3754 C.2     1  UNL1        0.3047
      2 N           9.8754   40.5130    9.9516 N.am    1  UNL1       -0.2846
      3 N          12.2203   39.8569    9.5654 N.am    1  UNL1       -0.2682
      4 O          11.5665   41.0898   11.4503 O.2     1  UNL1       -0.2525
      5 H           9.6399   40.0261    9.1290 H       1  UNL1        0.1513
      6 H          11.8925   39.4165    8.7481 H       1  UNL1        0.1564
      7 C          13.6290   39.7703    9.8203 C.ar    1  UNL1        0.0546
      8 C          14.4983   40.5718    9.0722 C.ar    1  UNL1        0.0516
      9 C          15.8797   40.5222    9.2861 C.ar    1  UNL1        0.1396
     10 C          16.3948   39.6585   10.2656 C.ar    1  UNL1        0.0370
     11 C          15.5345   38.8554   11.0178 C.ar    1  UNL1        0.0044
     12 C          14.1565   38.9112   10.7960 C.ar    1  UNL1        0.0149
     13 O          16.7132   41.3424    8.5181 O.3     1  UNL1       -0.4791
     14 C          16.5227   42.7476    8.3913 C.3     1  UNL1        0.1659
     15 C          17.8660   43.4505    8.2600 C.3     1  UNL1        0.0435
     16 C          17.9364   43.9863    6.8466 C.3     1  UNL1        0.0038
     17 C          16.5009   44.1397    6.4070 C.3     1  UNL1        0.0038
     18 C          15.7505   43.0360    7.1173 C.3     1  UNL1        0.0435
     19 C           8.8169   41.1973   10.6826 C.3     1  UNL1        0.1177
     20 C           5.4110   42.2565    9.3745 C.ar    1  UNL1        0.0533
     21 C           6.4426   41.8649   10.2417 C.ar    1  UNL1        0.0019
     22 C           7.7304   41.6202    9.7527 C.ar    1  UNL1       -0.0024
     23 C           7.9932   41.7535    8.3864 C.ar    1  UNL1       -0.0026
     24 C           6.9717   42.1320    7.5123 C.ar    1  UNL1       -0.0001
     25 C           5.6868   42.3784    8.0042 C.ar    1  UNL1        0.0045
     26 C           2.3622   42.1961   11.7406 C.3     1  UNL1        0.1152
     27 C           3.9302   40.3342   11.2416 C.3     1  UNL1        0.1152
     28 C           4.0476   42.4829    9.9102 C.2     1  UNL1        0.2491
     29 N           3.5063   41.7027   10.9922 N.am    1  UNL1       -0.2726
     30 O           3.3434   43.4000    9.4042 O.2     1  UNL1       -0.2699
@<TRIPOS>BOND
     1    26    29    1
     2    27    29    1
     3    28    20    1
     4    21    22   ar
     5    19    22    1
     6    19     2    1
     7     1     3   am
     8     8     9   ar
     9     9    13    1
    10    14    13    1
    11    14    15    1
    12    15    16    1
    13    16    17    1
    14    17    18    1
    15    18    14    1
    16    10    11   ar
    17    12     7   ar
    18    23    24   ar
    19    25    20   ar
    20    29    28   am
    21     2     1   am
    22     3     7    1
    23    28    30    2
    24    20    21   ar
    25    22    23   ar
    26     1     4    2
    27     7     8   ar
    28     9    10   ar
    29    11    12   ar
    30    24    25   ar
    31     2     5    1
    32     3     6    1
@<TRIPOS>MOLECULE
MolPort-028-722-939 44203134 CSC047754199 CSSS00047754199 MCULE-8381017728 PubChem-72845750 ZINC000044203134 ZINC44203134
 30 32 0 0 0
SMALL
GASTEIGER

@<TRIPOS>ATOM
      1 C          12.5318   41.9725    6.3982 C.2     1  UNL1        0.3047
      2 N          11.3294   42.2951    5.6971 N.am    1  UNL1       -0.2846
      3 N          13.5952   42.9325    6.4307 N.am    1  UNL1       -0.2682
      4 O          12.6495   40.8555    6.9712 O.2     1  UNL1       -0.2525
      5 H          11.2770   43.1577    5.2254 H       1  UNL1        0.1513
      6 H          13.4415   43.7769    5.9483 H       1  UNL1        0.1564
      7 C          14.8600   42.7923    7.0923 C.ar    1  UNL1        0.0546
      8 C          15.0445   41.7179    7.9695 C.ar    1  UNL1        0.0516
      9 C          16.2609   41.5398    8.6366 C.ar    1  UNL1        0.1396
     10 C          17.3064   42.4509    8.4185 C.ar    1  UNL1        0.0370
     11 C          17.1314   43.5259    7.5440 C.ar    1  UNL1        0.0044
     12 C          15.9126   43.6959    6.8831 C.ar    1  UNL1        0.0149
     13 O          16.4043   40.4507    9.5029 O.3     1  UNL1       -0.4791
     14 C          15.4015   39.4552    9.6769 C.3     1  UNL1        0.1659
     15 C          15.8470   38.4361   10.7156 C.3     1  UNL1        0.0435
     16 C          14.9503   38.6268   11.9195 C.3     1  UNL1        0.0038
     17 C          13.6889   39.2562   11.3808 C.3     1  UNL1        0.0038
     18 C          14.1386   40.1039   10.2125 C.3     1  UNL1        0.0435
     19 C          10.1773   41.4045    5.6491 C.3     1  UNL1        0.1177
     20 C           7.3518   42.3766    7.9953 C.ar    1  UNL1        0.0533
     21 C           8.1312   42.2279    6.8377 C.ar    1  UNL1        0.0019
     22 C           9.3541   41.5498    6.8842 C.ar    1  UNL1       -0.0024
     23 C           9.8137   41.0253    8.0954 C.ar    1  UNL1       -0.0026
     24 C           9.0518   41.1768    9.2561 C.ar    1  UNL1       -0.0001
     25 C           7.8291   41.8523    9.2061 C.ar    1  UNL1        0.0045
     26 C           3.8353   43.6819    8.9055 C.3     1  UNL1        0.1152
     27 C           4.6753   41.3491    9.0699 C.3     1  UNL1        0.1152
     28 C           6.0730   43.1232    7.9287 C.2     1  UNL1        0.2491
     29 N           4.9125   42.7312    8.6851 N.am    1  UNL1       -0.2726
     30 O           6.0064   44.1442    7.1897 O.2     1  UNL1       -0.2699
@<TRIPOS>BOND
     1    26    29    1
     2    27    29    1
     3    28    20    1
     4    21    22   ar
     5    19    22    1
     6    19     2    1
     7     1     3   am
     8     8     9   ar
     9     9    13    1
    10    14    13    1
    11    14    15    1
    12    15    16    1
    13    16    17    1
    14    17    18    1
    15    18    14    1
    16    10    11   ar
    17    12     7   ar
    18    23    24   ar
    19    25    20   ar
    20    29    28   am
    21     2     1   am
    22     3     7    1
    23    28    30    2
    24    20    21   ar
    25    22    23   ar
    26     1     4    2
    27     7     8   ar
    28     9    10   ar
    29    11    12   ar
    30    24    25   ar
    31     2     5    1
    32     3     6    1
@<TRIPOS>MOLECULE
MolPort-028-722-939 44203134 CSC047754199 CSSS00047754199 MCULE-8381017728 PubChem-72845750 ZINC000044203134 ZINC44203134
 30 32 0 0 0
SMALL
GASTEIGER

@<TRIPOS>ATOM
      1 C          12.5051   42.3248    6.2062 C.2     1  UNL1        0.3047
      2 N          13.7139   42.8530    5.6574 N.am    1  UNL1       -0.2846
      3 N          11.7513   41.3766    5.4405 N.am    1  UNL1       -0.2682
      4 O          12.1115   42.6977    7.3446 O.2     1  UNL1       -0.2525
      5 H          13.9794   42.5756    4.7509 H       1  UNL1        0.1513
      6 H          12.1085   41.1432    4.5533 H       1  UNL1        0.1564
      7 C          10.5311   40.7321    5.8312 C.ar    1  UNL1        0.0546
      8 C           9.9894   41.0230    7.0880 C.ar    1  UNL1        0.0516
      9 C           8.8009   40.4195    7.5119 C.ar    1  UNL1        0.1396
     10 C           8.1465   39.5139    6.6619 C.ar    1  UNL1        0.0370
     11 C           8.6795   39.2181    5.4052 C.ar    1  UNL1        0.0044
     12 C           9.8676   39.8251    4.9913 C.ar    1  UNL1        0.0149
     13 O           8.2922   40.7404    8.7750 O.3     1  UNL1       -0.4791
     14 C           8.9485   41.6232    9.6789 C.3     1  UNL1        0.1659
     15 C           7.9608   42.1496   10.7100 C.3     1  UNL1        0.0435
     16 C           8.3554   41.5384   12.0369 C.3     1  UNL1        0.0038
     17 C           9.8209   41.2047   11.9014 C.3     1  UNL1        0.0038
     18 C          10.0136   40.8582   10.4424 C.3     1  UNL1        0.0435
     19 C          14.5712   43.7838    6.3796 C.3     1  UNL1        0.1177
     20 C          16.0233   41.2310    8.7894 C.ar    1  UNL1        0.0533
     21 C          15.1203   41.9320    7.9754 C.ar    1  UNL1        0.0019
     22 C          15.5416   43.0422    7.2355 C.ar    1  UNL1       -0.0024
     23 C          16.8703   43.4682    7.3149 C.ar    1  UNL1       -0.0026
     24 C          17.7753   42.7850    8.1303 C.ar    1  UNL1       -0.0001
     25 C          17.3522   41.6746    8.8662 C.ar    1  UNL1        0.0045
     26 C          15.8104   38.5406   11.5489 C.3     1  UNL1        0.1152
     27 C          17.8415   39.3271   10.3527 C.3     1  UNL1        0.1152
     28 C          15.5486   40.0749    9.5865 C.2     1  UNL1        0.2491
     29 N          16.3981   39.3831   10.5205 N.am    1  UNL1       -0.2726
     30 O          14.3538   39.6933    9.4463 O.2     1  UNL1       -0.2699
@<TRIPOS>BOND
     1    26    29    1
     2    27    29    1
     3    28    20    1
     4    21    22   ar
     5    19    22    1
     6    19     2    1
     7     1     3   am
     8     8     9   ar
     9     9    13    1
    10    14    13    1
    11    14    15    1
    12    15    16    1
    13    16    17    1
    14    17    18    1
    15    18    14    1
    16    10    11   ar
    17    12     7   ar
    18    23    24   ar
    19    25    20   ar
    20    29    28   am
    21     2     1   am
    22     3     7    1
    23    28    30    2
    24    20    21   ar
    25    22    23   ar
    26     1     4    2
    27     7     8   ar
    28     9    10   ar
    29    11    12   ar
    30    24    25   ar
    31     2     5    1
    32     3     6    1
@<TRIPOS>MOLECULE
MolPort-028-722-939 44203134 CSC047754199 CSSS00047754199 MCULE-8381017728 PubChem-72845750 ZINC000044203134 ZINC44203134
 30 32 0 0 0
SMALL
GASTEIGER

@<TRIPOS>ATOM
      1 C           9.1453   41.5356    9.8586 C.2     1  UNL1        0.3047
      2 N          10.0272   40.4696   10.2157 N.am    1  UNL1       -0.2846
      3 N           8.0619   41.2685    8.9596 N.am    1  UNL1       -0.2682
      4 O           9.3288   42.6919   10.3269 O.2     1  UNL1       -0.2525
      5 H           9.8859   39.5853    9.8066 H       1  UNL1        0.1513
      6 H           7.9880   40.3474    8.6198 H       1  UNL1        0.1564
      7 C           7.0737   42.2023    8.5029 C.ar    1  UNL1        0.0546
      8 C           5.9888   42.4947    9.3365 C.ar    1  UNL1        0.0516
      9 C           5.0009   43.3997    8.9342 C.ar    1  UNL1        0.1396
     10 C           5.1051   44.0208    7.6796 C.ar    1  UNL1        0.0370
     11 C           6.1852   43.7356    6.8412 C.ar    1  UNL1        0.0044
     12 C           7.1661   42.8296    7.2514 C.ar    1  UNL1        0.0149
     13 O           3.9343   43.6658    9.7995 O.3     1  UNL1       -0.4791
     14 C           3.1462   42.6451   10.4029 C.3     1  UNL1        0.1659
     15 C           2.9018   41.5153    9.4132 C.3     1  UNL1        0.0435
     16 C           3.6758   40.3194    9.9237 C.3     1  UNL1        0.0038
     17 C           3.8266   40.5468   11.4079 C.3     1  UNL1        0.0038
     18 C           3.9087   42.0476   11.5710 C.3     1  UNL1        0.0435
     19 C          11.1261   40.6329   11.1584 C.3     1  UNL1        0.1177
     20 C          14.0804   40.9728    8.7941 C.ar    1  UNL1        0.0533
     21 C          12.8561   41.2064    9.4392 C.ar    1  UNL1        0.0019
     22 C          12.4325   40.3794   10.4852 C.ar    1  UNL1       -0.0024
     23 C          13.2270   39.3016   10.8859 C.ar    1  UNL1       -0.0026
     24 C          14.4421   39.0528   10.2438 C.ar    1  UNL1       -0.0001
     25 C          14.8640   39.8823    9.2010 C.ar    1  UNL1        0.0045
     26 C          13.9098   43.4598    5.8473 C.3     1  UNL1        0.1152
     27 C          12.3689   41.5703    6.3267 C.3     1  UNL1        0.1152
     28 C          14.4960   41.8446    7.6697 C.2     1  UNL1        0.2491
     29 N          13.5659   42.3176    6.6779 N.am    1  UNL1       -0.2726
     30 O          15.7070   42.1908    7.5883 O.2     1  UNL1       -0.2699
@<TRIPOS>BOND
     1    26    29    1
     2    27    29    1
     3    28    20    1
     4    21    22   ar
     5    19    22    1
     6    19     2    1
     7     1     3   am
     8     8     9   ar
     9     9    13    1
    10    14    13    1
    11    14    15    1
    12    15    16    1
    13    16    17    1
    14    17    18    1
    15    18    14    1
    16    10    11   ar
    17    12     7   ar
    18    23    24   ar
    19    25    20   ar
    20    29    28   am
    21     2     1   am
    22     3     7    1
    23    28    30    2
    24    20    21   ar
    25    22    23   ar
    26     1     4    2
    27     7     8   ar
    28     9    10   ar
    29    11    12   ar
    30    24    25   ar
    31     2     5    1
    32     3     6    1
