@<TRIPOS>MOLECULE
MolPort-007-723-444 6818296 ChemDiv-E157-5470 MCULE-6617565337 PubChem-22518008 ZINC000006818296 ZINC06818296
 24 25 0 0 0
SMALL
GASTEIGER

@<TRIPOS>ATOM
      1 C          14.1526   42.2321    6.9872 C.ar    1  UNL1        0.1893
      2 C          11.9562   41.4515    7.5024 C.ar    1  UNL1        0.2593
      3 N          13.2907   42.3608    5.9539 N.ar    1  UNL1       -0.1239
      4 N          12.0662   41.9244    6.2421 N.ar    1  UNL1       -0.1187
      5 S          13.4150   41.5532    8.3383 S.2     1  UNL1       -0.0102
      6 C          16.0001   43.9468    6.6870 C.2     1  UNL1        0.2276
      7 O          15.1940   44.8966    6.5014 O.2     1  UNL1       -0.2747
      8 N          15.5291   42.6185    6.9413 N.am    1  UNL1       -0.2627
      9 H          16.2037   41.9183    7.0963 H       1  UNL1        0.1568
     10 C          17.4667   44.2167    6.6546 C.3     1  UNL1        0.0854
     11 C          18.1556   42.1525    7.8332 C.3     1  UNL1        0.0005
     12 C          18.1525   43.6650    7.8948 C.3     1  UNL1        0.0091
     13 C          17.4172   44.1097    9.1453 C.3     1  UNL1        0.0005
     14 O          10.0211   41.6617    9.3037 O.2     1  UNL1       -0.1477
     15 O           9.4061   40.7688    7.1105 O.2     1  UNL1       -0.1477
     16 S          10.4758   40.7908    8.1661 S.O2    1  UNL1        0.1010
     17 C           9.8328   38.1289    8.3033 C.3     1  UNL1        0.1392
     18 N          10.7585   39.1700    8.7288 N.pl3   1  UNL1       -0.1870
     19 C          11.8582   38.8568    9.6075 C.ar    1  UNL1        0.0689
     20 C          12.7155   37.7786    9.3310 C.ar    1  UNL1        0.0161
     21 C          13.7829   37.4795   10.1818 C.ar    1  UNL1        0.0013
     22 C          14.0062   38.2555   11.3211 C.ar    1  UNL1        0.0001
     23 C          13.1621   39.3301   11.6097 C.ar    1  UNL1        0.0013
     24 C          12.0948   39.6288   10.7581 C.ar    1  UNL1        0.0161
@<TRIPOS>BOND
     1    11    12    1
     2    12    13    1
     3    12    10    1
     4    10     6    1
     5     6     8   am
     6     1     5   ar
     7     2     5   ar
     8    17    18    1
     9    20    21   ar
    10    22    23   ar
    11    24    19   ar
    12     8     1    1
    13     3     4   ar
    14    18    19    1
    15    16     2    1
    16    16    18    1
    17     6     7    2
    18     1     3   ar
    19     2     4   ar
    20    19    20   ar
    21    21    22   ar
    22    23    24   ar
    23    16    14    2
    24    16    15    2
    25     8     9    1
@<TRIPOS>MOLECULE
MolPort-007-723-444 6818296 ChemDiv-E157-5470 MCULE-6617565337 PubChem-22518008 ZINC000006818296 ZINC06818296
 24 25 0 0 0
SMALL
GASTEIGER

@<TRIPOS>ATOM
      1 C          12.6870   41.5820    6.8075 C.ar    1  UNL1        0.1893
      2 C          10.7074   40.2674    6.5798 C.ar    1  UNL1        0.2593
      3 N          11.9798   41.8810    5.6951 N.ar    1  UNL1       -0.1239
      4 N          10.8763   41.1467    5.5686 N.ar    1  UNL1       -0.1187
      5 S          11.9563   40.3617    7.7060 S.2     1  UNL1       -0.0102
      6 C          14.3582   43.4890    6.6899 C.2     1  UNL1        0.2276
      7 O          13.6552   44.1580    5.8871 O.2     1  UNL1       -0.2747
      8 N          13.9134   42.2183    7.1781 N.am    1  UNL1       -0.2627
      9 H          14.4956   41.7471    7.8170 H       1  UNL1        0.1568
     10 C          15.6671   44.0388    7.1475 C.3     1  UNL1        0.0854
     11 C          17.6436   42.8117    7.9914 C.3     1  UNL1        0.0005
     12 C          16.8131   43.1161    6.7630 C.3     1  UNL1        0.0091
     13 C          17.6940   43.7767    5.7191 C.3     1  UNL1        0.0005
     14 O           9.3183   38.3245    5.4269 O.2     1  UNL1       -0.1477
     15 O           9.5407   38.2381    7.8617 O.2     1  UNL1       -0.1477
     16 S           9.3611   39.1513    6.6816 S.O2    1  UNL1        0.1010
     17 C           6.6802   39.5053    6.2286 C.3     1  UNL1        0.1392
     18 N           7.8771   40.0388    6.8647 N.pl3   1  UNL1       -0.1870
     19 C           7.8239   41.2771    7.6019 C.ar    1  UNL1        0.0689
     20 C           8.1318   41.3124    8.9722 C.ar    1  UNL1        0.0161
     21 C           8.0835   42.5142    9.6835 C.ar    1  UNL1        0.0013
     22 C           7.7258   43.6968    9.0327 C.ar    1  UNL1        0.0001
     23 C           7.4161   43.6775    7.6710 C.ar    1  UNL1        0.0013
     24 C           7.4650   42.4750    6.9601 C.ar    1  UNL1        0.0161
@<TRIPOS>BOND
     1    11    12    1
     2    12    13    1
     3    12    10    1
     4    10     6    1
     5     6     8   am
     6     1     5   ar
     7     2     5   ar
     8    17    18    1
     9    20    21   ar
    10    22    23   ar
    11    24    19   ar
    12     8     1    1
    13     3     4   ar
    14    18    19    1
    15    16     2    1
    16    16    18    1
    17     6     7    2
    18     1     3   ar
    19     2     4   ar
    20    19    20   ar
    21    21    22   ar
    22    23    24   ar
    23    16    14    2
    24    16    15    2
    25     8     9    1
@<TRIPOS>MOLECULE
MolPort-007-723-444 6818296 ChemDiv-E157-5470 MCULE-6617565337 PubChem-22518008 ZINC000006818296 ZINC06818296
 24 25 0 0 0
SMALL
GASTEIGER

@<TRIPOS>ATOM
      1 C          12.1941   42.4416    7.4400 C.ar    1  UNL1        0.1893
      2 C           9.9796   41.6082    7.7572 C.ar    1  UNL1        0.2593
      3 N          11.6807   41.8700    6.3278 N.ar    1  UNL1       -0.1239
      4 N          10.4460   41.4049    6.5060 N.ar    1  UNL1       -0.1187
      5 S          11.1114   42.3931    8.7268 S.2     1  UNL1       -0.0102
      6 C          14.0971   43.8466    6.5191 C.2     1  UNL1        0.2276
      7 O          13.4672   44.1525    5.4722 O.2     1  UNL1       -0.2747
      8 N          13.5024   43.0142    7.5213 N.am    1  UNL1       -0.2627
      9 H          14.0342   42.8215    8.3271 H       1  UNL1        0.1568
     10 C          15.4781   44.3730    6.7206 C.3     1  UNL1        0.0854
     11 C          16.1016   42.2088    7.7462 C.3     1  UNL1        0.0005
     12 C          16.4993   43.2462    6.7182 C.3     1  UNL1        0.0091
     13 C          17.8766   43.7826    7.0610 C.3     1  UNL1        0.0005
     14 O           8.0942   39.7439    7.7024 O.2     1  UNL1       -0.1477
     15 O           8.3822   40.9723    9.7984 O.2     1  UNL1       -0.1477
     16 S           8.3970   41.0895    8.3001 S.O2    1  UNL1        0.1010
     17 C           7.5694   43.2177    6.7823 C.3     1  UNL1        0.1392
     18 N           7.1989   42.2481    7.8043 N.pl3   1  UNL1       -0.1870
     19 C           5.8833   42.2734    8.3943 C.ar    1  UNL1        0.0689
     20 C           5.1884   43.4843    8.5512 C.ar    1  UNL1        0.0161
     21 C           3.9119   43.5059    9.1194 C.ar    1  UNL1        0.0013
     22 C           3.3143   42.3155    9.5388 C.ar    1  UNL1        0.0001
     23 C           3.9930   41.1040    9.3903 C.ar    1  UNL1        0.0013
     24 C           5.2696   41.0832    8.8215 C.ar    1  UNL1        0.0161
@<TRIPOS>BOND
     1    11    12    1
     2    12    13    1
     3    12    10    1
     4    10     6    1
     5     6     8   am
     6     1     5   ar
     7     2     5   ar
     8    17    18    1
     9    20    21   ar
    10    22    23   ar
    11    24    19   ar
    12     8     1    1
    13     3     4   ar
    14    18    19    1
    15    16     2    1
    16    16    18    1
    17     6     7    2
    18     1     3   ar
    19     2     4   ar
    20    19    20   ar
    21    21    22   ar
    22    23    24   ar
    23    16    14    2
    24    16    15    2
    25     8     9    1
@<TRIPOS>MOLECULE
MolPort-007-723-444 6818296 ChemDiv-E157-5470 MCULE-6617565337 PubChem-22518008 ZINC000006818296 ZINC06818296
 24 25 0 0 0
SMALL
GASTEIGER

@<TRIPOS>ATOM
      1 C          12.7518   42.2109    6.7928 C.ar    1  UNL1        0.1893
      2 C          10.5228   41.3572    6.8284 C.ar    1  UNL1        0.2593
      3 N          12.4982   41.3549    5.7780 N.ar    1  UNL1       -0.1239
      4 N          11.2550   40.8787    5.7992 N.ar    1  UNL1       -0.1187
      5 S          11.4110   42.4196    7.7872 S.2     1  UNL1       -0.0102
      6 C          14.4726   44.0063    6.2837 C.2     1  UNL1        0.2276
      7 O          13.7602   44.5463    5.3964 O.2     1  UNL1       -0.2747
      8 N          14.0092   42.8592    7.0051 N.am    1  UNL1       -0.2627
      9 H          14.6007   42.4889    7.6995 H       1  UNL1        0.1568
     10 C          15.8130   44.5821    6.5945 C.3     1  UNL1        0.0854
     11 C          17.4370   43.6943    8.2373 C.3     1  UNL1        0.0005
     12 C          16.8306   43.4851    6.8662 C.3     1  UNL1        0.0091
     13 C          17.9334   43.5198    5.8248 C.3     1  UNL1        0.0005
     14 O           8.0958   40.9516    5.8391 O.2     1  UNL1       -0.1477
     15 O           8.8048   39.4987    7.6753 O.2     1  UNL1       -0.1477
     16 S           8.8596   40.8992    7.1326 S.O2    1  UNL1        0.1010
     17 C           7.5321   43.2073    7.7872 C.3     1  UNL1        0.1392
     18 N           8.1541   41.9895    8.2890 N.pl3   1  UNL1       -0.1870
     19 C           8.1964   41.7193    9.7050 C.ar    1  UNL1        0.0689
     20 C           7.0173   41.6968   10.4686 C.ar    1  UNL1        0.0161
     21 C           7.0603   41.4307   11.8397 C.ar    1  UNL1        0.0013
     22 C           8.2844   41.1841   12.4650 C.ar    1  UNL1        0.0001
     23 C           9.4651   41.2039   11.7193 C.ar    1  UNL1        0.0013
     24 C           9.4213   41.4698   10.3478 C.ar    1  UNL1        0.0161
@<TRIPOS>BOND
     1    11    12    1
     2    12    13    1
     3    12    10    1
     4    10     6    1
     5     6     8   am
     6     1     5   ar
     7     2     5   ar
     8    17    18    1
     9    20    21   ar
    10    22    23   ar
    11    24    19   ar
    12     8     1    1
    13     3     4   ar
    14    18    19    1
    15    16     2    1
    16    16    18    1
    17     6     7    2
    18     1     3   ar
    19     2     4   ar
    20    19    20   ar
    21    21    22   ar
    22    23    24   ar
    23    16    14    2
    24    16    15    2
    25     8     9    1
@<TRIPOS>MOLECULE
MolPort-007-723-444 6818296 ChemDiv-E157-5470 MCULE-6617565337 PubChem-22518008 ZINC000006818296 ZINC06818296
 24 25 0 0 0
SMALL
GASTEIGER

@<TRIPOS>ATOM
      1 C          13.9646   42.0072    7.6294 C.ar    1  UNL1        0.1893
      2 C          11.8222   41.1485    8.2387 C.ar    1  UNL1        0.2593
      3 N          12.9609   42.8838    7.4037 N.ar    1  UNL1       -0.1239
      4 N          11.7663   42.4037    7.7431 N.ar    1  UNL1       -0.1187
      5 S          13.4001   40.5602    8.2759 S.2     1  UNL1       -0.0102
      6 C          15.8500   43.4944    6.8064 C.2     1  UNL1        0.2276
      7 O          15.0818   44.4602    6.5548 O.2     1  UNL1       -0.2747
      8 N          15.3424   42.2697    7.3481 N.am    1  UNL1       -0.2627
      9 H          15.9907   41.5544    7.5415 H       1  UNL1        0.1568
     10 C          17.3121   43.6376    6.5480 C.3     1  UNL1        0.0854
     11 C          18.2221   41.9092    8.0674 C.3     1  UNL1        0.0005
     12 C          18.1181   43.3981    7.8150 C.3     1  UNL1        0.0091
     13 C          17.4414   44.0570    9.0025 C.3     1  UNL1        0.0005
     14 O          10.8350   38.8447    9.1056 O.2     1  UNL1       -0.1477
     15 O           9.8029   40.8898    9.9645 O.2     1  UNL1       -0.1477
     16 S          10.4130   40.2435    8.7524 S.O2    1  UNL1        0.1010
     17 C           7.8734   40.6050    7.7842 C.3     1  UNL1        0.1392
     18 N           9.2395   40.2091    7.4698 N.pl3   1  UNL1       -0.1870
     19 C           9.5895   39.7828    6.1373 C.ar    1  UNL1        0.0689
     20 C          10.2740   40.6435    5.2631 C.ar    1  UNL1        0.0161
     21 C          10.6157   40.2267    3.9738 C.ar    1  UNL1        0.0013
     22 C          10.2763   38.9427    3.5422 C.ar    1  UNL1        0.0001
     23 C           9.5950   38.0760    4.3996 C.ar    1  UNL1        0.0013
     24 C           9.2539   38.4934    5.6891 C.ar    1  UNL1        0.0161
@<TRIPOS>BOND
     1    11    12    1
     2    12    13    1
     3    12    10    1
     4    10     6    1
     5     6     8   am
     6     1     5   ar
     7     2     5   ar
     8    17    18    1
     9    20    21   ar
    10    22    23   ar
    11    24    19   ar
    12     8     1    1
    13     3     4   ar
    14    18    19    1
    15    16     2    1
    16    16    18    1
    17     6     7    2
    18     1     3   ar
    19     2     4   ar
    20    19    20   ar
    21    21    22   ar
    22    23    24   ar
    23    16    14    2
    24    16    15    2
    25     8     9    1
@<TRIPOS>MOLECULE
MolPort-007-723-444 6818296 ChemDiv-E157-5470 MCULE-6617565337 PubChem-22518008 ZINC000006818296 ZINC06818296
 24 25 0 0 0
SMALL
GASTEIGER

@<TRIPOS>ATOM
      1 C           7.4426   41.5894    9.5427 C.ar    1  UNL1        0.1893
      2 C           9.7621   41.9699    9.1257 C.ar    1  UNL1        0.2593
      3 N           7.6904   42.0089    8.2819 N.ar    1  UNL1       -0.1239
      4 N           8.9842   42.2215    8.0506 N.ar    1  UNL1       -0.1187
      5 S           8.8537   41.4614   10.4498 S.2     1  UNL1       -0.0102
      6 C           5.0148   40.9065    9.2547 C.2     1  UNL1        0.2276
      7 O           5.1192   40.7761    8.0063 O.2     1  UNL1       -0.2747
      8 N           6.1388   41.2950   10.0525 N.am    1  UNL1       -0.2627
      9 H           6.0041   41.3646   11.0253 H       1  UNL1        0.1568
     10 C           3.7020   40.6375    9.9099 C.3     1  UNL1        0.0854
     11 C           3.5839   43.0420    9.3369 C.3     1  UNL1        0.0005
     12 C           2.9144   41.9234   10.1062 C.3     1  UNL1        0.0091
     13 C           2.8656   42.2921   11.5772 C.3     1  UNL1        0.0005
     14 O          11.8196   43.6065    9.4747 O.2     1  UNL1       -0.1477
     15 O          12.1182   41.2808   10.1729 O.2     1  UNL1       -0.1477
     16 S          11.5015   42.1770    9.1358 S.O2    1  UNL1        0.1010
     17 C          11.4530   40.7641    6.7865 C.3     1  UNL1        0.1392
     18 N          12.1484   41.7740    7.5729 N.pl3   1  UNL1       -0.1870
     19 C          13.3476   42.3964    7.0687 C.ar    1  UNL1        0.0689
     20 C          14.5935   42.1489    7.6687 C.ar    1  UNL1        0.0161
     21 C          15.7547   42.7499    7.1758 C.ar    1  UNL1        0.0013
     22 C          15.6842   43.6074    6.0758 C.ar    1  UNL1        0.0001
     23 C          14.4526   43.8639    5.4692 C.ar    1  UNL1        0.0013
     24 C          13.2916   43.2620    5.9626 C.ar    1  UNL1        0.0161
@<TRIPOS>BOND
     1    11    12    1
     2    12    13    1
     3    12    10    1
     4    10     6    1
     5     6     8   am
     6     1     5   ar
     7     2     5   ar
     8    17    18    1
     9    20    21   ar
    10    22    23   ar
    11    24    19   ar
    12     8     1    1
    13     3     4   ar
    14    18    19    1
    15    16     2    1
    16    16    18    1
    17     6     7    2
    18     1     3   ar
    19     2     4   ar
    20    19    20   ar
    21    21    22   ar
    22    23    24   ar
    23    16    14    2
    24    16    15    2
    25     8     9    1
@<TRIPOS>MOLECULE
MolPort-007-723-444 6818296 ChemDiv-E157-5470 MCULE-6617565337 PubChem-22518008 ZINC000006818296 ZINC06818296
 24 25 0 0 0
SMALL
GASTEIGER

@<TRIPOS>ATOM
      1 C          11.4305   41.6034    6.6914 C.ar    1  UNL1        0.1893
      2 C           9.0490   41.6229    6.5263 C.ar    1  UNL1        0.2593
      3 N          10.9889   41.5125    5.4172 N.ar    1  UNL1       -0.1239
      4 N           9.6606   41.5227    5.3262 N.ar    1  UNL1       -0.1187
      5 S          10.1600   41.7021    7.7899 S.2     1  UNL1       -0.0102
      6 C          13.7326   42.6684    6.7892 C.2     1  UNL1        0.2276
      7 O          13.3605   43.7112    6.1888 O.2     1  UNL1       -0.2747
      8 N          12.8106   41.6086    7.0677 N.am    1  UNL1       -0.2627
      9 H          13.1523   40.8244    7.5550 H       1  UNL1        0.1568
     10 C          15.1531   42.5455    7.2274 C.3     1  UNL1        0.0854
     11 C          16.5295   43.9449    5.7203 C.3     1  UNL1        0.0005
     12 C          15.8856   43.8709    7.0883 C.3     1  UNL1        0.0091
     13 C          16.9617   43.9923    8.1510 C.3     1  UNL1        0.0005
     14 O           6.6694   42.0256    5.4270 O.2     1  UNL1       -0.1477
     15 O           6.8263   40.2736    7.1272 O.2     1  UNL1       -0.1477
     16 S           7.3095   41.6406    6.7314 S.O2    1  UNL1        0.1010
     17 C           7.3384   44.1556    7.8230 C.3     1  UNL1        0.1392
     18 N           6.8774   42.7817    7.9702 N.pl3   1  UNL1       -0.1870
     19 C           6.1061   42.3883    9.1234 C.ar    1  UNL1        0.0689
     20 C           6.7082   41.7034   10.1921 C.ar    1  UNL1        0.0161
     21 C           5.9598   41.3268   11.3104 C.ar    1  UNL1        0.0013
     22 C           4.5981   41.6303   11.3736 C.ar    1  UNL1        0.0001
     23 C           3.9852   42.3100   10.3187 C.ar    1  UNL1        0.0013
     24 C           4.7346   42.6867    9.2006 C.ar    1  UNL1        0.0161
@<TRIPOS>BOND
     1    11    12    1
     2    12    13    1
     3    12    10    1
     4    10     6    1
     5     6     8   am
     6     1     5   ar
     7     2     5   ar
     8    17    18    1
     9    20    21   ar
    10    22    23   ar
    11    24    19   ar
    12     8     1    1
    13     3     4   ar
    14    18    19    1
    15    16     2    1
    16    16    18    1
    17     6     7    2
    18     1     3   ar
    19     2     4   ar
    20    19    20   ar
    21    21    22   ar
    22    23    24   ar
    23    16    14    2
    24    16    15    2
    25     8     9    1
@<TRIPOS>MOLECULE
MolPort-007-723-444 6818296 ChemDiv-E157-5470 MCULE-6617565337 PubChem-22518008 ZINC000006818296 ZINC06818296
 24 25 0 0 0
SMALL
GASTEIGER

@<TRIPOS>ATOM
      1 C          13.7651   41.9321    7.3393 C.ar    1  UNL1        0.1893
      2 C          11.6632   41.2347    8.2307 C.ar    1  UNL1        0.2593
      3 N          12.7259   42.2125    6.5218 N.ar    1  UNL1       -0.1239
      4 N          11.5542   41.8225    7.0195 N.ar    1  UNL1       -0.1187
      5 S          13.2636   41.1675    8.7516 S.2     1  UNL1       -0.0102
      6 C          15.6153   43.5318    6.6601 C.2     1  UNL1        0.2276
      7 O          14.8377   44.5194    6.5805 O.2     1  UNL1       -0.2747
      8 N          15.1302   42.2397    7.0421 N.am    1  UNL1       -0.2627
      9 H          15.7856   41.5077    7.1048 H       1  UNL1        0.1568
     10 C          17.0655   43.7185    6.3650 C.3     1  UNL1        0.0854
     11 C          18.2056   42.0788    7.8264 C.3     1  UNL1        0.0005
     12 C          17.9061   43.5483    7.6207 C.3     1  UNL1        0.0091
     13 C          17.1589   44.0770    8.8307 C.3     1  UNL1        0.0005
     14 O           9.5796   39.5945    8.2736 O.2     1  UNL1       -0.1477
     15 O          10.7814   39.9204   10.3795 O.2     1  UNL1       -0.1477
     16 S          10.2996   40.5997    9.1284 S.O2    1  UNL1        0.1010
     17 C           9.7961   43.2281    9.7247 C.3     1  UNL1        0.1392
     18 N           9.2260   41.8980    9.5588 N.pl3   1  UNL1       -0.1870
     19 C           7.8170   41.6743    9.7696 C.ar    1  UNL1        0.0689
     20 C           6.9412   41.5269    8.6810 C.ar    1  UNL1        0.0161
     21 C           5.5770   41.3061    8.8877 C.ar    1  UNL1        0.0013
     22 C           5.0710   41.2304   10.1871 C.ar    1  UNL1        0.0001
     23 C           5.9291   41.3758   11.2794 C.ar    1  UNL1        0.0013
     24 C           7.2936   41.5963   11.0718 C.ar    1  UNL1        0.0161
@<TRIPOS>BOND
     1    11    12    1
     2    12    13    1
     3    12    10    1
     4    10     6    1
     5     6     8   am
     6     1     5   ar
     7     2     5   ar
     8    17    18    1
     9    20    21   ar
    10    22    23   ar
    11    24    19   ar
    12     8     1    1
    13     3     4   ar
    14    18    19    1
    15    16     2    1
    16    16    18    1
    17     6     7    2
    18     1     3   ar
    19     2     4   ar
    20    19    20   ar
    21    21    22   ar
    22    23    24   ar
    23    16    14    2
    24    16    15    2
    25     8     9    1
@<TRIPOS>MOLECULE
MolPort-007-723-444 6818296 ChemDiv-E157-5470 MCULE-6617565337 PubChem-22518008 ZINC000006818296 ZINC06818296
 24 25 0 0 0
SMALL
GASTEIGER

@<TRIPOS>ATOM
      1 C          10.8232   41.0211   10.3916 C.ar    1  UNL1        0.1893
      2 C           9.0973   41.9737    9.0451 C.ar    1  UNL1        0.2593
      3 N          10.3968   42.2191   10.8498 N.ar    1  UNL1       -0.1239
      4 N           9.4348   42.7498   10.0977 N.ar    1  UNL1       -0.1187
      5 S          10.0053   40.5558    8.9969 S.2     1  UNL1       -0.0102
      6 C          13.2023   40.1494   10.5451 C.2     1  UNL1        0.2276
      7 O          13.5859   40.7944    9.5336 O.2     1  UNL1       -0.2747
      8 N          11.8508   40.2411   11.0097 N.am    1  UNL1       -0.2627
      9 H          11.6107   39.7286   11.8152 H       1  UNL1        0.1568
     10 C          14.1775   39.2891   11.2756 C.3     1  UNL1        0.0854
     11 C          15.2847   37.6370    9.8029 C.3     1  UNL1        0.0005
     12 C          15.4072   39.0115   10.4252 C.3     1  UNL1        0.0091
     13 C          16.6604   39.0602   11.2791 C.3     1  UNL1        0.0005
     14 O           7.4283   43.8217    8.1328 O.2     1  UNL1       -0.1477
     15 O           8.4578   42.3405    6.4802 O.2     1  UNL1       -0.1477
     16 S           7.8792   42.4130    7.8654 S.O2    1  UNL1        0.1010
     17 C           6.3450   40.3513    6.9098 C.3     1  UNL1        0.1392
     18 N           6.5312   41.3207    7.9809 N.pl3   1  UNL1       -0.1870
     19 C           5.6063   41.3769    9.0860 C.ar    1  UNL1        0.0689
     20 C           4.2204   41.4298    8.8622 C.ar    1  UNL1        0.0161
     21 C           3.3259   41.4800    9.9346 C.ar    1  UNL1        0.0013
     22 C           3.8070   41.4786   11.2456 C.ar    1  UNL1        0.0001
     23 C           5.1821   41.4272   11.4840 C.ar    1  UNL1        0.0013
     24 C           6.0762   41.3766   10.4108 C.ar    1  UNL1        0.0161
@<TRIPOS>BOND
     1    11    12    1
     2    12    13    1
     3    12    10    1
     4    10     6    1
     5     6     8   am
     6     1     5   ar
     7     2     5   ar
     8    17    18    1
     9    20    21   ar
    10    22    23   ar
    11    24    19   ar
    12     8     1    1
    13     3     4   ar
    14    18    19    1
    15    16     2    1
    16    16    18    1
    17     6     7    2
    18     1     3   ar
    19     2     4   ar
    20    19    20   ar
    21    21    22   ar
    22    23    24   ar
    23    16    14    2
    24    16    15    2
    25     8     9    1
@<TRIPOS>MOLECULE
MolPort-007-723-444 6818296 ChemDiv-E157-5470 MCULE-6617565337 PubChem-22518008 ZINC000006818296 ZINC06818296
 24 25 0 0 0
SMALL
GASTEIGER

@<TRIPOS>ATOM
      1 C           6.3728   40.3138    6.9915 C.ar    1  UNL1        0.1893
      2 C           8.5756   40.0963    6.0974 C.ar    1  UNL1        0.2593
      3 N           6.4669   39.3503    6.0482 N.ar    1  UNL1       -0.1239
      4 N           7.6956   39.2304    5.5497 N.ar    1  UNL1       -0.1187
      5 S           7.8474   41.0797    7.2549 S.2     1  UNL1       -0.0102
      6 C           5.1026   41.2001    9.0026 C.2     1  UNL1        0.2276
      7 O           6.1521   41.4474    9.6535 O.2     1  UNL1       -0.2747
      8 N           5.1659   40.6511    7.6814 N.am    1  UNL1       -0.2627
      9 H           4.3146   40.4941    7.2126 H       1  UNL1        0.1568
     10 C           3.7758   41.4982    9.6155 C.3     1  UNL1        0.0854
     11 C           3.8990   40.0753   11.6366 C.3     1  UNL1        0.0005
     12 C           3.8626   41.5027   11.1337 C.3     1  UNL1        0.0091
     13 C           2.6581   42.2082   11.7283 C.3     1  UNL1        0.0005
     14 O          10.6504   38.9134    4.9445 O.2     1  UNL1       -0.1477
     15 O          10.4664   41.3388    4.6819 O.2     1  UNL1       -0.1477
     16 S          10.2616   40.1923    5.6320 S.O2    1  UNL1        0.1010
     17 C          11.7107   41.7872    7.3272 C.3     1  UNL1        0.1392
     18 N          11.2461   40.4360    7.0444 N.pl3   1  UNL1       -0.1870
     19 C          11.6167   39.3397    7.9049 C.ar    1  UNL1        0.0689
     20 C          12.9676   39.0256    8.1285 C.ar    1  UNL1        0.0161
     21 C          13.3244   37.9654    8.9660 C.ar    1  UNL1        0.0013
     22 C          12.3334   37.2049    9.5903 C.ar    1  UNL1        0.0001
     23 C          10.9861   37.5045    9.3770 C.ar    1  UNL1        0.0013
     24 C          10.6300   38.5653    8.5396 C.ar    1  UNL1        0.0161
@<TRIPOS>BOND
     1    11    12    1
     2    12    13    1
     3    12    10    1
     4    10     6    1
     5     6     8   am
     6     1     5   ar
     7     2     5   ar
     8    17    18    1
     9    20    21   ar
    10    22    23   ar
    11    24    19   ar
    12     8     1    1
    13     3     4   ar
    14    18    19    1
    15    16     2    1
    16    16    18    1
    17     6     7    2
    18     1     3   ar
    19     2     4   ar
    20    19    20   ar
    21    21    22   ar
    22    23    24   ar
    23    16    14    2
    24    16    15    2
    25     8     9    1
