@<TRIPOS>MOLECULE
Molport-046-956-512 MCULE-7113646903
 29 32 0 0 0
SMALL
GASTEIGER

@<TRIPOS>ATOM
      1 N          10.6952   42.1674    7.6640 N.ar    1  UNL1       -0.2159
      2 N          10.5493   40.1713    8.9012 N.ar    1  UNL1       -0.2348
      3 C          11.6593   39.6830    8.2831 C.ar    1  UNL1        0.0644
      4 C          12.3145   40.4549    7.3240 C.ar    1  UNL1        0.0492
      5 C          11.8079   41.7186    7.0218 C.ar    1  UNL1        0.1357
      6 C          10.0678   41.4040    8.5963 C.ar    1  UNL1        0.1406
      7 C           8.8547   41.9181    9.2830 C.3     1  UNL1        0.0737
      8 N          14.1826   37.1248    9.4664 N.am    1  UNL1       -0.2744
      9 C          13.2795   35.9759    9.5511 C.3     1  UNL1        0.0938
     10 C          11.9754   36.3678   10.2505 C.3     1  UNL1        0.0220
     11 C          11.4263   37.7329    9.8087 C.3     1  UNL1        0.0094
     12 C          12.1866   38.3286    8.6232 C.3     1  UNL1        0.0603
     13 C          13.6833   38.3958    8.9296 C.3     1  UNL1        0.0996
     14 C          15.5771   36.9425    9.7773 C.2     1  UNL1        0.2685
     15 O          16.0336   35.7733    9.9052 O.2     1  UNL1       -0.2682
     16 N          17.2985   40.0824    9.9043 N.ar    1  UNL1       -0.2742
     17 N          16.2782   39.3315    9.5296 N.ar    1  UNL1       -0.1680
     18 C          16.4999   38.0817    9.9690 C.ar    1  UNL1        0.1555
     19 C          17.6966   38.0242   10.6576 C.ar    1  UNL1        0.0454
     20 C          18.1744   39.3214   10.5885 C.ar    1  UNL1        0.0925
     21 H          17.4020   41.0428    9.7141 H       1  UNL1        0.1890
     22 N          12.4736   42.5193    6.0380 N.pl3   1  UNL1       -0.2833
     23 H          12.0233   42.6212    5.1684 H       1  UNL1        0.1550
     24 N          13.9623   44.4064    5.6356 N.ar    1  UNL1       -0.2290
     25 C          13.7314   43.1863    6.1976 C.ar    1  UNL1        0.1332
     26 C          14.7375   42.5687    6.9456 C.ar    1  UNL1        0.0345
     27 C          15.9662   43.2114    7.1064 C.ar    1  UNL1        0.0045
     28 C          16.1793   44.4604    6.5213 C.ar    1  UNL1        0.0208
     29 C          15.1524   45.0489    5.7806 C.ar    1  UNL1        0.1003
@<TRIPOS>BOND
     1     8    14   am
     2    22    25    1
     3    16    17   ar
     4     9     8    1
     5     9    10    1
     6    10    11    1
     7    11    12    1
     8    12    13    1
     9    12     3    1
    10    13     8    1
    11     3     2   ar
    12     4     5   ar
    13     5    22    1
    14    25    24   ar
    15    26    27   ar
    16    28    29   ar
    17     6     1   ar
    18     7     6    1
    19    14    18    1
    20    18    19   ar
    21    20    16   ar
    22     3     4   ar
    23     5     1   ar
    24    25    26   ar
    25    27    28   ar
    26    29    24   ar
    27     6     2   ar
    28    14    15    2
    29    18    17   ar
    30    19    20   ar
    31    22    23    1
    32    16    21    1
@<TRIPOS>MOLECULE
Molport-046-956-512 MCULE-7113646903
 29 32 0 0 0
SMALL
GASTEIGER

@<TRIPOS>ATOM
      1 N           8.1130   41.7533   12.3306 N.ar    1  UNL1       -0.2159
      2 N          10.3966   41.1869   12.3041 N.ar    1  UNL1       -0.2348
      3 C          10.4768   41.4874   10.9791 C.ar    1  UNL1        0.0644
      4 C           9.3441   41.9363   10.3005 C.ar    1  UNL1        0.0492
      5 C           8.1483   42.0652   11.0064 C.ar    1  UNL1        0.1357
      6 C           9.2248   41.3175   12.9782 C.ar    1  UNL1        0.1406
      7 C           9.1590   40.9841   14.4246 C.3     1  UNL1        0.0737
      8 N          13.4289   39.6883    9.4429 N.am    1  UNL1       -0.2744
      9 C          13.9911   40.8196    8.7033 C.3     1  UNL1        0.0938
     10 C          12.8886   41.5746    7.9564 C.3     1  UNL1        0.0220
     11 C          11.6081   41.7699    8.7825 C.3     1  UNL1        0.0094
     12 C          11.7674   41.3448   10.2427 C.3     1  UNL1        0.0603
     13 C          12.2774   39.9055   10.3259 C.3     1  UNL1        0.0996
     14 C          14.1060   38.4179    9.3984 C.2     1  UNL1        0.2685
     15 O          15.2676   38.3539    8.9099 O.2     1  UNL1       -0.2682
     16 N          12.2130   35.8438   11.0197 N.ar    1  UNL1       -0.2742
     17 N          12.5558   37.1100   10.8636 N.ar    1  UNL1       -0.1680
     18 C          13.4825   37.1718    9.8931 C.ar    1  UNL1        0.1555
     19 C          13.7404   35.9071    9.3995 C.ar    1  UNL1        0.0454
     20 C          12.9119   35.0902   10.1491 C.ar    1  UNL1        0.0925
     21 H          11.5534   35.5057   11.6677 H       1  UNL1        0.1890
     22 N           6.9790   42.5254   10.3186 N.pl3   1  UNL1       -0.2833
     23 H           7.0602   43.3699    9.8191 H       1  UNL1        0.1550
     24 N           4.8204   42.0955    9.2723 N.ar    1  UNL1       -0.2290
     25 C           5.7028   41.8752   10.2875 C.ar    1  UNL1        0.1332
     26 C           5.3618   40.9987   11.3212 C.ar    1  UNL1        0.0345
     27 C           4.1204   40.3607   11.2989 C.ar    1  UNL1        0.0045
     28 C           3.2334   40.6021   10.2489 C.ar    1  UNL1        0.0208
     29 C           3.6061   41.4836    9.2324 C.ar    1  UNL1        0.1003
@<TRIPOS>BOND
     1     8    14   am
     2    22    25    1
     3    16    17   ar
     4     9     8    1
     5     9    10    1
     6    10    11    1
     7    11    12    1
     8    12    13    1
     9    12     3    1
    10    13     8    1
    11     3     2   ar
    12     4     5   ar
    13     5    22    1
    14    25    24   ar
    15    26    27   ar
    16    28    29   ar
    17     6     1   ar
    18     7     6    1
    19    14    18    1
    20    18    19   ar
    21    20    16   ar
    22     3     4   ar
    23     5     1   ar
    24    25    26   ar
    25    27    28   ar
    26    29    24   ar
    27     6     2   ar
    28    14    15    2
    29    18    17   ar
    30    19    20   ar
    31    22    23    1
    32    16    21    1
@<TRIPOS>MOLECULE
Molport-046-956-512 MCULE-7113646903
 29 32 0 0 0
SMALL
GASTEIGER

@<TRIPOS>ATOM
      1 N          15.4112   42.6178    7.1325 N.ar    1  UNL1       -0.2159
      2 N          13.2513   43.3286    6.5275 N.ar    1  UNL1       -0.2348
      3 C          12.6927   42.3713    7.3176 C.ar    1  UNL1        0.0644
      4 C          13.5121   41.5059    8.0420 C.ar    1  UNL1        0.0492
      5 C          14.8953   41.6469    7.9345 C.ar    1  UNL1        0.1357
      6 C          14.6003   43.4537    6.4330 C.ar    1  UNL1        0.1406
      7 C          15.1896   44.5056    5.5648 C.3     1  UNL1        0.0737
      8 N           9.2501   41.0382    6.4913 N.am    1  UNL1       -0.2744
      9 C           8.5262   41.6437    7.6101 C.3     1  UNL1        0.0938
     10 C           9.2956   41.4453    8.9186 C.3     1  UNL1        0.0220
     11 C          10.8090   41.6723    8.7830 C.3     1  UNL1        0.0094
     12 C          11.2095   42.2390    7.4204 C.3     1  UNL1        0.0603
     13 C          10.6696   41.3543    6.2959 C.3     1  UNL1        0.0996
     14 C           8.5192   40.2596    5.5248 C.2     1  UNL1        0.2685
     15 O           7.2579   40.2895    5.5342 O.2     1  UNL1       -0.2682
     16 N           9.7843   38.5901    2.6178 N.ar    1  UNL1       -0.2742
     17 N           8.9970   39.4795    3.1959 N.ar    1  UNL1       -0.1680
     18 C           9.1942   39.4073    4.5226 C.ar    1  UNL1        0.1555
     19 C          10.1456   38.4476    4.8112 C.ar    1  UNL1        0.0454
     20 C          10.4922   37.9487    3.5676 C.ar    1  UNL1        0.0925
     21 H           9.8440   38.4230    1.6494 H       1  UNL1        0.1890
     22 N          15.7456   40.7628    8.6745 N.pl3   1  UNL1       -0.2833
     23 H          16.6795   40.6874    8.3723 H       1  UNL1        0.1550
     24 N          16.2643   39.1671   10.4419 N.ar    1  UNL1       -0.2290
     25 C          15.3679   39.9778    9.8118 C.ar    1  UNL1        0.1332
     26 C          14.0529   40.0492   10.2798 C.ar    1  UNL1        0.0345
     27 C          13.6762   39.2878   11.3875 C.ar    1  UNL1        0.0045
     28 C          14.6117   38.4649   12.0162 C.ar    1  UNL1        0.0208
     29 C          15.9169   38.4176   11.5226 C.ar    1  UNL1        0.1003
@<TRIPOS>BOND
     1     8    14   am
     2    22    25    1
     3    16    17   ar
     4     9     8    1
     5     9    10    1
     6    10    11    1
     7    11    12    1
     8    12    13    1
     9    12     3    1
    10    13     8    1
    11     3     2   ar
    12     4     5   ar
    13     5    22    1
    14    25    24   ar
    15    26    27   ar
    16    28    29   ar
    17     6     1   ar
    18     7     6    1
    19    14    18    1
    20    18    19   ar
    21    20    16   ar
    22     3     4   ar
    23     5     1   ar
    24    25    26   ar
    25    27    28   ar
    26    29    24   ar
    27     6     2   ar
    28    14    15    2
    29    18    17   ar
    30    19    20   ar
    31    22    23    1
    32    16    21    1
@<TRIPOS>MOLECULE
Molport-046-956-512 MCULE-7113646903
 29 32 0 0 0
SMALL
GASTEIGER

@<TRIPOS>ATOM
      1 N          12.3803   41.1532    9.2148 N.ar    1  UNL1       -0.2159
      2 N          13.4263   39.7774   10.8115 N.ar    1  UNL1       -0.2348
      3 C          14.5349   39.6764   10.0283 C.ar    1  UNL1        0.0644
      4 C          14.5762   40.3318    8.7979 C.ar    1  UNL1        0.0492
      5 C          13.4681   41.0795    8.4004 C.ar    1  UNL1        0.1357
      6 C          12.3548   40.5094   10.4108 C.ar    1  UNL1        0.1406
      7 C          11.1545   40.6067   11.2811 C.3     1  UNL1        0.0737
      8 N          17.1669   36.9646    9.8537 N.am    1  UNL1       -0.2744
      9 C          18.0030   37.4243   10.9637 C.3     1  UNL1        0.0938
     10 C          18.2362   38.9344   10.8714 C.3     1  UNL1        0.0220
     11 C          16.9779   39.7292   10.4904 C.3     1  UNL1        0.0094
     12 C          15.7112   38.8728   10.4738 C.3     1  UNL1        0.0603
     13 C          15.9036   37.6547    9.5693 C.3     1  UNL1        0.0996
     14 C          17.5315   35.7582    9.1564 C.2     1  UNL1        0.2685
     15 O          18.4257   35.0114    9.6405 O.2     1  UNL1       -0.2682
     16 N          15.4689   34.5772    6.4752 N.ar    1  UNL1       -0.2742
     17 N          15.7177   34.7457    7.7616 N.ar    1  UNL1       -0.1680
     18 C          16.9044   35.3644    7.8766 C.ar    1  UNL1        0.1555
     19 C          17.4356   35.6123    6.6252 C.ar    1  UNL1        0.0454
     20 C          16.4890   35.0903    5.7608 C.ar    1  UNL1        0.0925
     21 H          14.6674   34.1462    6.0994 H       1  UNL1        0.1890
     22 N          13.5005   41.7565    7.1384 N.pl3   1  UNL1       -0.2833
     23 H          12.8839   41.4312    6.4432 H       1  UNL1        0.1550
     24 N          13.8804   43.8938    6.0307 N.ar    1  UNL1       -0.2290
     25 C          14.3437   42.8613    6.7904 C.ar    1  UNL1        0.1332
     26 C          15.6662   42.8748    7.2418 C.ar    1  UNL1        0.0345
     27 C          16.4948   43.9473    6.9076 C.ar    1  UNL1        0.0045
     28 C          15.9980   44.9932    6.1285 C.ar    1  UNL1        0.0208
     29 C          14.6718   44.9478    5.6944 C.ar    1  UNL1        0.1003
@<TRIPOS>BOND
     1     8    14   am
     2    22    25    1
     3    16    17   ar
     4     9     8    1
     5     9    10    1
     6    10    11    1
     7    11    12    1
     8    12    13    1
     9    12     3    1
    10    13     8    1
    11     3     2   ar
    12     4     5   ar
    13     5    22    1
    14    25    24   ar
    15    26    27   ar
    16    28    29   ar
    17     6     1   ar
    18     7     6    1
    19    14    18    1
    20    18    19   ar
    21    20    16   ar
    22     3     4   ar
    23     5     1   ar
    24    25    26   ar
    25    27    28   ar
    26    29    24   ar
    27     6     2   ar
    28    14    15    2
    29    18    17   ar
    30    19    20   ar
    31    22    23    1
    32    16    21    1
@<TRIPOS>MOLECULE
Molport-046-956-512 MCULE-7113646903
 29 32 0 0 0
SMALL
GASTEIGER

@<TRIPOS>ATOM
      1 N          17.4938   40.2428    9.4890 N.ar    1  UNL1       -0.2159
      2 N          16.0173   38.4911   10.0253 N.ar    1  UNL1       -0.2348
      3 C          14.9474   39.2631    9.6910 C.ar    1  UNL1        0.0644
      4 C          15.1480   40.5675    9.2399 C.ar    1  UNL1        0.0492
      5 C          16.4532   41.0491    9.1440 C.ar    1  UNL1        0.1357
      6 C          17.2827   38.9742    9.9265 C.ar    1  UNL1        0.1406
      7 C          18.4367   38.1145   10.2965 C.3     1  UNL1        0.0737
      8 N          11.3756   38.6085    8.6301 N.am    1  UNL1       -0.2744
      9 C          11.0358   37.6280    9.6626 C.3     1  UNL1        0.0938
     10 C          12.1528   36.5915    9.8080 C.3     1  UNL1        0.0220
     11 C          13.5637   37.1983    9.7737 C.3     1  UNL1        0.0094
     12 C          13.5584   38.7273    9.7988 C.3     1  UNL1        0.0603
     13 C          12.6818   39.2754    8.6718 C.3     1  UNL1        0.0996
     14 C          10.3669   39.0017    7.6801 C.2     1  UNL1        0.2685
     15 O           9.1670   38.6665    7.8791 O.2     1  UNL1       -0.2682
     16 N          11.3112   41.4054    5.1964 N.ar    1  UNL1       -0.2742
     17 N          11.0964   41.0561    6.4522 N.ar    1  UNL1       -0.1680
     18 C          10.6871   39.7768    6.4623 C.ar    1  UNL1        0.1555
     19 C          10.6447   39.2801    5.1736 C.ar    1  UNL1        0.0454
     20 C          11.0468   40.3534    4.3977 C.ar    1  UNL1        0.0925
     21 H          11.6153   42.2913    4.8932 H       1  UNL1        0.1890
     22 N          16.6700   42.3876    8.6818 N.pl3   1  UNL1       -0.2833
     23 H          17.3702   42.9079    9.1382 H       1  UNL1        0.1550
     24 N          16.3918   44.2358    7.1178 N.ar    1  UNL1       -0.2290
     25 C          15.9660   43.0422    7.6195 C.ar    1  UNL1        0.1332
     26 C          14.8209   42.4398    7.0914 C.ar    1  UNL1        0.0345
     27 C          14.1288   43.0704    6.0560 C.ar    1  UNL1        0.0045
     28 C          14.5839   44.2923    5.5587 C.ar    1  UNL1        0.0208
     29 C          15.7315   44.8661    6.1093 C.ar    1  UNL1        0.1003
@<TRIPOS>BOND
     1     8    14   am
     2    22    25    1
     3    16    17   ar
     4     9     8    1
     5     9    10    1
     6    10    11    1
     7    11    12    1
     8    12    13    1
     9    12     3    1
    10    13     8    1
    11     3     2   ar
    12     4     5   ar
    13     5    22    1
    14    25    24   ar
    15    26    27   ar
    16    28    29   ar
    17     6     1   ar
    18     7     6    1
    19    14    18    1
    20    18    19   ar
    21    20    16   ar
    22     3     4   ar
    23     5     1   ar
    24    25    26   ar
    25    27    28   ar
    26    29    24   ar
    27     6     2   ar
    28    14    15    2
    29    18    17   ar
    30    19    20   ar
    31    22    23    1
    32    16    21    1
@<TRIPOS>MOLECULE
Molport-046-956-512 MCULE-7113646903
 29 32 0 0 0
SMALL
GASTEIGER

@<TRIPOS>ATOM
      1 N          12.9223   42.3758    6.1479 N.ar    1  UNL1       -0.2159
      2 N          14.9315   42.2931    7.3697 N.ar    1  UNL1       -0.2348
      3 C          14.4093   41.3529    8.2040 C.ar    1  UNL1        0.0644
      4 C          13.1031   40.9039    8.0111 C.ar    1  UNL1        0.0492
      5 C          12.3607   41.4373    6.9579 C.ar    1  UNL1        0.1357
      6 C          14.1961   42.8032    6.3481 C.ar    1  UNL1        0.1406
      7 C          14.7853   43.8287    5.4488 C.3     1  UNL1        0.0737
      8 N          15.6158   38.7476   10.6674 N.am    1  UNL1       -0.2744
      9 C          16.7751   39.4785   11.1814 C.3     1  UNL1        0.0938
     10 C          17.5770   40.0921   10.0307 C.3     1  UNL1        0.0220
     11 C          16.7011   40.7292    8.9413 C.3     1  UNL1        0.0094
     12 C          15.2220   40.7932    9.3240 C.3     1  UNL1        0.0603
     13 C          14.7127   39.4056    9.7164 C.3     1  UNL1        0.0996
     14 C          15.3072   37.4516   11.2149 C.2     1  UNL1        0.2685
     15 O          15.8997   37.0656   12.2598 O.2     1  UNL1       -0.2682
     16 N          13.5091   34.9658    9.3639 N.ar    1  UNL1       -0.2742
     17 N          14.6255   35.5983    9.6782 N.ar    1  UNL1       -0.1680
     18 C          14.3259   36.5412   10.5868 C.ar    1  UNL1        0.1555
     19 C          12.9750   36.5115   10.8763 C.ar    1  UNL1        0.0454
     20 C          12.4920   35.4946   10.0713 C.ar    1  UNL1        0.0925
     21 H          13.4329   34.2274    8.7173 H       1  UNL1        0.1890
     22 N          11.0180   40.9828    6.7513 N.pl3   1  UNL1       -0.2833
     23 H          10.9068   40.1104    6.3088 H       1  UNL1        0.1550
     24 N           9.6810   42.2265    8.3651 N.ar    1  UNL1       -0.2290
     25 C           9.8214   41.6755    7.1264 C.ar    1  UNL1        0.1332
     26 C           8.7813   41.7853    6.1995 C.ar    1  UNL1        0.0345
     27 C           7.6118   42.4586    6.5564 C.ar    1  UNL1        0.0045
     28 C           7.4910   43.0146    7.8308 C.ar    1  UNL1        0.0208
     29 C           8.5495   42.8865    8.7321 C.ar    1  UNL1        0.1003
@<TRIPOS>BOND
     1     8    14   am
     2    22    25    1
     3    16    17   ar
     4     9     8    1
     5     9    10    1
     6    10    11    1
     7    11    12    1
     8    12    13    1
     9    12     3    1
    10    13     8    1
    11     3     2   ar
    12     4     5   ar
    13     5    22    1
    14    25    24   ar
    15    26    27   ar
    16    28    29   ar
    17     6     1   ar
    18     7     6    1
    19    14    18    1
    20    18    19   ar
    21    20    16   ar
    22     3     4   ar
    23     5     1   ar
    24    25    26   ar
    25    27    28   ar
    26    29    24   ar
    27     6     2   ar
    28    14    15    2
    29    18    17   ar
    30    19    20   ar
    31    22    23    1
    32    16    21    1
@<TRIPOS>MOLECULE
Molport-046-956-512 MCULE-7113646903
 29 32 0 0 0
SMALL
GASTEIGER

@<TRIPOS>ATOM
      1 N          13.3084   42.6423    6.2993 N.ar    1  UNL1       -0.2159
      2 N          15.3357   42.3413    7.4550 N.ar    1  UNL1       -0.2348
      3 C          14.7395   41.4720    8.3160 C.ar    1  UNL1        0.0644
      4 C          13.3851   41.1723    8.1710 C.ar    1  UNL1        0.0492
      5 C          12.6724   41.7789    7.1372 C.ar    1  UNL1        0.1357
      6 C          14.6283   42.9243    6.4529 C.ar    1  UNL1        0.1406
      7 C          15.2986   43.8704    5.5237 C.3     1  UNL1        0.0737
      8 N          15.7772   38.7367   10.7146 N.am    1  UNL1       -0.2744
      9 C          16.9939   39.3692   11.2265 C.3     1  UNL1        0.0938
     10 C          17.8257   39.9437   10.0769 C.3     1  UNL1        0.0220
     11 C          16.9868   40.6653    9.0111 C.3     1  UNL1        0.0094
     12 C          15.5213   40.8317    9.4146 C.3     1  UNL1        0.0603
     13 C          14.9146   39.4785    9.7880 C.3     1  UNL1        0.0996
     14 C          15.3793   37.4569   11.2420 C.2     1  UNL1        0.2685
     15 O          15.9537   37.0077   12.2717 O.2     1  UNL1       -0.2682
     16 N          13.3818   35.0914    9.4385 N.ar    1  UNL1       -0.2742
     17 N          14.5511   35.5999    9.7839 N.ar    1  UNL1       -0.1680
     18 C          14.3253   36.6344   10.6104 C.ar    1  UNL1        0.1555
     19 C          12.9679   36.7943   10.8135 C.ar    1  UNL1        0.0454
     20 C          12.4035   35.7916   10.0443 C.ar    1  UNL1        0.0925
     21 H          13.2472   34.3246    8.8359 H       1  UNL1        0.1890
     22 N          11.2807   41.4777    6.9797 N.pl3   1  UNL1       -0.2833
     23 H          10.6522   41.9612    7.5632 H       1  UNL1        0.1550
     24 N          11.0610   40.5511    4.7365 N.ar    1  UNL1       -0.2290
     25 C          10.7155   40.5408    6.0550 C.ar    1  UNL1        0.1332
     26 C           9.7924   39.6002    6.5201 C.ar    1  UNL1        0.0345
     27 C           9.2368   38.6834    5.6260 C.ar    1  UNL1        0.0045
     28 C           9.6059   38.7133    4.2804 C.ar    1  UNL1        0.0208
     29 C          10.5309   39.6663    3.8496 C.ar    1  UNL1        0.1003
@<TRIPOS>BOND
     1     8    14   am
     2    22    25    1
     3    16    17   ar
     4     9     8    1
     5     9    10    1
     6    10    11    1
     7    11    12    1
     8    12    13    1
     9    12     3    1
    10    13     8    1
    11     3     2   ar
    12     4     5   ar
    13     5    22    1
    14    25    24   ar
    15    26    27   ar
    16    28    29   ar
    17     6     1   ar
    18     7     6    1
    19    14    18    1
    20    18    19   ar
    21    20    16   ar
    22     3     4   ar
    23     5     1   ar
    24    25    26   ar
    25    27    28   ar
    26    29    24   ar
    27     6     2   ar
    28    14    15    2
    29    18    17   ar
    30    19    20   ar
    31    22    23    1
    32    16    21    1
@<TRIPOS>MOLECULE
Molport-046-956-512 MCULE-7113646903
 29 32 0 0 0
SMALL
GASTEIGER

@<TRIPOS>ATOM
      1 N          16.9725   42.7250    7.7730 N.ar    1  UNL1       -0.2159
      2 N          14.7928   42.7969    6.8897 N.ar    1  UNL1       -0.2348
      3 C          14.3908   41.8199    7.7479 C.ar    1  UNL1        0.0644
      4 C          15.3020   41.2728    8.6510 C.ar    1  UNL1        0.0492
      5 C          16.6135   41.7469    8.6485 C.ar    1  UNL1        0.1357
      6 C          16.0736   43.2485    6.8992 C.ar    1  UNL1        0.1406
      7 C          16.4917   44.3159    5.9541 C.3     1  UNL1        0.0737
      8 N          11.5296   39.4334    8.4032 N.am    1  UNL1       -0.2744
      9 C          10.4312   40.3358    8.0542 C.3     1  UNL1        0.0938
     10 C          10.6417   41.7109    8.6930 C.3     1  UNL1        0.0220
     11 C          12.0912   42.2130    8.6092 C.3     1  UNL1        0.0094
     12 C          12.9815   41.3283    7.7357 C.3     1  UNL1        0.0603
     13 C          12.9150   39.8751    8.2072 C.3     1  UNL1        0.0996
     14 C          11.2259   38.0812    8.7957 C.2     1  UNL1        0.2685
     15 O          10.0570   37.6372    8.6278 O.2     1  UNL1       -0.2682
     16 N          14.1082   36.1867    9.7660 N.ar    1  UNL1       -0.2742
     17 N          13.4931   37.0359    8.9624 N.ar    1  UNL1       -0.1680
     18 C          12.2349   37.1898    9.4070 C.ar    1  UNL1        0.1555
     19 C          12.0326   36.4236   10.5390 C.ar    1  UNL1        0.0454
     20 C          13.2520   35.7973   10.7301 C.ar    1  UNL1        0.0925
     21 H          15.0415   35.8870    9.6749 H       1  UNL1        0.1890
     22 N          17.5571   41.1914    9.5722 N.pl3   1  UNL1       -0.2833
     23 H          18.2045   41.8142    9.9752 H       1  UNL1        0.1550
     24 N          18.6400   39.0097    9.4915 N.ar    1  UNL1       -0.2290
     25 C          17.6496   39.8171    9.9659 C.ar    1  UNL1        0.1332
     26 C          16.7028   39.3000   10.8544 C.ar    1  UNL1        0.0345
     27 C          16.7854   37.9620   11.2435 C.ar    1  UNL1        0.0045
     28 C          17.8085   37.1546   10.7443 C.ar    1  UNL1        0.0208
     29 C          18.7376   37.7035    9.8585 C.ar    1  UNL1        0.1003
@<TRIPOS>BOND
     1     8    14   am
     2    22    25    1
     3    16    17   ar
     4     9     8    1
     5     9    10    1
     6    10    11    1
     7    11    12    1
     8    12    13    1
     9    12     3    1
    10    13     8    1
    11     3     2   ar
    12     4     5   ar
    13     5    22    1
    14    25    24   ar
    15    26    27   ar
    16    28    29   ar
    17     6     1   ar
    18     7     6    1
    19    14    18    1
    20    18    19   ar
    21    20    16   ar
    22     3     4   ar
    23     5     1   ar
    24    25    26   ar
    25    27    28   ar
    26    29    24   ar
    27     6     2   ar
    28    14    15    2
    29    18    17   ar
    30    19    20   ar
    31    22    23    1
    32    16    21    1
@<TRIPOS>MOLECULE
Molport-046-956-512 MCULE-7113646903
 29 32 0 0 0
SMALL
GASTEIGER

@<TRIPOS>ATOM
      1 N          11.0296   40.6594   10.9792 N.ar    1  UNL1       -0.2159
      2 N           8.9979   41.8428   11.0684 N.ar    1  UNL1       -0.2348
      3 C           8.9991   41.9875    9.7150 C.ar    1  UNL1        0.0644
      4 C          10.0447   41.4538    8.9620 C.ar    1  UNL1        0.0492
      5 C          11.0707   40.7805    9.6243 C.ar    1  UNL1        0.1357
      6 C          10.0043   41.1844   11.6993 C.ar    1  UNL1        0.1406
      7 C           9.9835   41.0375   13.1777 C.3     1  UNL1        0.0737
      8 N           5.4504   43.1447    9.0989 N.am    1  UNL1       -0.2744
      9 C           5.7417   44.1505    8.0761 C.3     1  UNL1        0.0938
     10 C           6.9283   45.0200    8.4998 C.3     1  UNL1        0.0220
     11 C           8.0810   44.2234    9.1298 C.3     1  UNL1        0.0094
     12 C           7.8897   42.7098    9.0254 C.3     1  UNL1        0.0603
     13 C           6.5371   42.3022    9.6111 C.3     1  UNL1        0.0996
     14 C           4.0808   42.9068    9.4756 C.2     1  UNL1        0.2685
     15 O           3.1535   43.4031    8.7788 O.2     1  UNL1       -0.2682
     16 N           2.7901   41.5485   12.5297 N.ar    1  UNL1       -0.2742
     17 N           2.9097   42.5309   11.6546 N.ar    1  UNL1       -0.1680
     18 C           3.7152   42.1092   10.6658 C.ar    1  UNL1        0.1555
     19 C           4.1219   40.8102   10.9040 C.ar    1  UNL1        0.0454
     20 C           3.5116   40.4933   12.1052 C.ar    1  UNL1        0.0925
     21 H           2.2594   41.5823   13.3583 H       1  UNL1        0.1890
     22 N          12.1493   40.2287    8.8599 N.pl3   1  UNL1       -0.2833
     23 H          12.0567   39.2919    8.5719 H       1  UNL1        0.1550
     24 N          14.5341   40.6674    9.1044 N.ar    1  UNL1       -0.2290
     25 C          13.3498   40.9089    8.4742 C.ar    1  UNL1        0.1332
     26 C          13.2992   41.8369    7.4306 C.ar    1  UNL1        0.0345
     27 C          14.4642   42.5042    7.0481 C.ar    1  UNL1        0.0045
     28 C          15.6651   42.2403    7.7082 C.ar    1  UNL1        0.0208
     29 C          15.6800   41.3071    8.7466 C.ar    1  UNL1        0.1003
@<TRIPOS>BOND
     1     8    14   am
     2    22    25    1
     3    16    17   ar
     4     9     8    1
     5     9    10    1
     6    10    11    1
     7    11    12    1
     8    12    13    1
     9    12     3    1
    10    13     8    1
    11     3     2   ar
    12     4     5   ar
    13     5    22    1
    14    25    24   ar
    15    26    27   ar
    16    28    29   ar
    17     6     1   ar
    18     7     6    1
    19    14    18    1
    20    18    19   ar
    21    20    16   ar
    22     3     4   ar
    23     5     1   ar
    24    25    26   ar
    25    27    28   ar
    26    29    24   ar
    27     6     2   ar
    28    14    15    2
    29    18    17   ar
    30    19    20   ar
    31    22    23    1
    32    16    21    1
@<TRIPOS>MOLECULE
Molport-046-956-512 MCULE-7113646903
 29 32 0 0 0
SMALL
GASTEIGER

@<TRIPOS>ATOM
      1 N          12.1766   41.7827    8.9685 N.ar    1  UNL1       -0.2159
      2 N          11.7175   39.6701    9.8974 N.ar    1  UNL1       -0.2348
      3 C          12.6092   39.0825    9.0535 C.ar    1  UNL1        0.0644
      4 C          13.3116   39.8624    8.1350 C.ar    1  UNL1        0.0492
      5 C          13.0773   41.2368    8.1066 C.ar    1  UNL1        0.1357
      6 C          11.5000   41.0102    9.8578 C.ar    1  UNL1        0.1406
      7 C          10.5223   41.6316   10.7881 C.3     1  UNL1        0.0737
      8 N          14.6229   35.8831    9.1942 N.am    1  UNL1       -0.2744
      9 C          13.5164   34.9603    9.4525 C.3     1  UNL1        0.0938
     10 C          12.5987   35.5140   10.5456 C.3     1  UNL1        0.0220
     11 C          12.3156   37.0177   10.4081 C.3     1  UNL1        0.0094
     12 C          12.8468   37.6097    9.1020 C.3     1  UNL1        0.0603
     13 C          14.3360   37.3000    8.9436 C.3     1  UNL1        0.0996
     14 C          15.9550   35.3546    9.0501 C.2     1  UNL1        0.2685
     15 O          16.1159   34.1086    8.9344 O.2     1  UNL1       -0.2682
     16 N          18.4501   37.8957    9.4443 N.ar    1  UNL1       -0.2742
     17 N          17.2267   37.4313    9.6252 N.ar    1  UNL1       -0.1680
     18 C          17.1533   36.2209    9.0474 C.ar    1  UNL1        0.1555
     19 C          18.3699   35.8878    8.4831 C.ar    1  UNL1        0.0454
     20 C          19.1668   36.9859    8.7565 C.ar    1  UNL1        0.0925
     21 H          18.7841   38.7660    9.7611 H       1  UNL1        0.1890
     22 N          13.7937   42.0466    7.1668 N.pl3   1  UNL1       -0.2833
     23 H          13.3406   42.2472    6.3161 H       1  UNL1        0.1550
     24 N          16.0030   42.0168    8.1950 N.ar    1  UNL1       -0.2290
     25 C          15.1060   42.5929    7.3457 C.ar    1  UNL1        0.1332
     26 C          15.4675   43.7390    6.6324 C.ar    1  UNL1        0.0345
     27 C          16.7442   44.2780    6.8005 C.ar    1  UNL1        0.0045
     28 C          17.6456   43.6706    7.6758 C.ar    1  UNL1        0.0208
     29 C          17.2516   42.5266    8.3725 C.ar    1  UNL1        0.1003
@<TRIPOS>BOND
     1     8    14   am
     2    22    25    1
     3    16    17   ar
     4     9     8    1
     5     9    10    1
     6    10    11    1
     7    11    12    1
     8    12    13    1
     9    12     3    1
    10    13     8    1
    11     3     2   ar
    12     4     5   ar
    13     5    22    1
    14    25    24   ar
    15    26    27   ar
    16    28    29   ar
    17     6     1   ar
    18     7     6    1
    19    14    18    1
    20    18    19   ar
    21    20    16   ar
    22     3     4   ar
    23     5     1   ar
    24    25    26   ar
    25    27    28   ar
    26    29    24   ar
    27     6     2   ar
    28    14    15    2
    29    18    17   ar
    30    19    20   ar
    31    22    23    1
    32    16    21    1
