@<TRIPOS>MOLECULE
MolPort-007-723-506 6818331 ChemDiv-E157-6073 MCULE-1441973407 PubChem-22518052 ZINC000006818331 ZINC06818331
 27 29 0 0 0
SMALL
GASTEIGER

@<TRIPOS>ATOM
      1 C          10.0686   40.3951    6.0181 C.ar    1  UNL1        0.2593
      2 C          12.2114   41.3304    6.5000 C.ar    1  UNL1        0.1896
      3 N          10.1784   41.6866    5.6385 N.ar    1  UNL1       -0.1187
      4 N          11.3728   42.2096    5.9080 N.ar    1  UNL1       -0.1239
      5 S          11.4899   39.8267    6.7207 S.2     1  UNL1       -0.0102
      6 C          14.1811   42.9162    6.7549 C.2     1  UNL1        0.2509
      7 N          13.5541   41.6341    6.8897 N.am    1  UNL1       -0.2592
      8 O          13.5451   43.8889    6.2644 O.2     1  UNL1       -0.2698
      9 H          14.0890   40.9059    7.2808 H       1  UNL1        0.1571
     10 C          15.5766   43.0989    7.1918 C.ar    1  UNL1        0.0537
     11 C          16.3734   44.1004    6.6179 C.ar    1  UNL1        0.0045
     12 C          17.6974   44.2747    7.0320 C.ar    1  UNL1        0.0001
     13 C          18.2342   43.4487    8.0231 C.ar    1  UNL1        0.0000
     14 C          17.4475   42.4483    8.6003 C.ar    1  UNL1        0.0001
     15 C          16.1235   42.2739    8.1863 C.ar    1  UNL1        0.0045
     16 S           8.6283   39.4291    5.7709 S.O2    1  UNL1        0.1010
     17 O           8.4475   39.1937    4.2974 O.2     1  UNL1       -0.1477
     18 O           8.7763   38.1031    6.4627 O.2     1  UNL1       -0.1477
     19 C           5.9237   39.8194    5.9973 C.3     1  UNL1        0.1392
     20 N           7.2459   40.2614    6.4189 N.pl3   1  UNL1       -0.1870
     21 C           7.3912   41.3678    7.3321 C.ar    1  UNL1        0.0686
     22 C           7.8995   41.1694    8.6265 C.ar    1  UNL1        0.0119
     23 C           8.0459   42.2433    9.5082 C.ar    1  UNL1       -0.0206
     24 C           8.5884   42.0144   10.8723 C.3     1  UNL1        0.0311
     25 C           7.6836   43.5308    9.1065 C.ar    1  UNL1       -0.0042
     26 C           7.1752   43.7439    7.8231 C.ar    1  UNL1        0.0010
     27 C           7.0302   42.6688    6.9415 C.ar    1  UNL1        0.0161
@<TRIPOS>BOND
     1    19    20    1
     2    22    23   ar
     3    24    23    1
     4    25    26   ar
     5    27    21   ar
     6     1     5   ar
     7     2     7    1
     8     2     5   ar
     9     6    10    1
    10    11    12   ar
    11    13    14   ar
    12    15    10   ar
    13    20    21    1
    14     3     4   ar
    15     7     6   am
    16    16    20    1
    17    16     1    1
    18    21    22   ar
    19    23    25   ar
    20    26    27   ar
    21     1     3   ar
    22     2     4   ar
    23     6     8    2
    24    10    11   ar
    25    12    13   ar
    26    14    15   ar
    27    16    17    2
    28    16    18    2
    29     7     9    1
@<TRIPOS>MOLECULE
MolPort-007-723-506 6818331 ChemDiv-E157-6073 MCULE-1441973407 PubChem-22518052 ZINC000006818331 ZINC06818331
 27 29 0 0 0
SMALL
GASTEIGER

@<TRIPOS>ATOM
      1 C           9.4178   41.1327    6.2695 C.ar    1  UNL1        0.2593
      2 C          11.7830   41.4326    6.3917 C.ar    1  UNL1        0.1896
      3 N          10.0482   40.8352    5.1126 N.ar    1  UNL1       -0.1187
      4 N          11.3673   41.0033    5.1794 N.ar    1  UNL1       -0.1239
      5 S          10.4996   41.6272    7.4620 S.2     1  UNL1       -0.0102
      6 C          13.8405   42.9209    6.4962 C.2     1  UNL1        0.2509
      7 N          13.1490   41.6874    6.7320 N.am    1  UNL1       -0.2592
      8 O          13.2459   43.8916    5.9526 O.2     1  UNL1       -0.2698
      9 H          13.6534   40.9592    7.1615 H       1  UNL1        0.1571
     10 C          15.2539   43.0556    6.8909 C.ar    1  UNL1        0.0537
     11 C          16.0660   44.0317    6.2951 C.ar    1  UNL1        0.0045
     12 C          17.4070   44.1604    6.6691 C.ar    1  UNL1        0.0001
     13 C          17.9456   43.3140    7.6418 C.ar    1  UNL1        0.0000
     14 C          17.1437   42.3387    8.2406 C.ar    1  UNL1        0.0001
     15 C          15.8027   42.2098    7.8666 C.ar    1  UNL1        0.0045
     16 S           7.6876   40.9833    6.4991 S.O2    1  UNL1        0.1010
     17 O           6.9859   41.8265    5.4715 O.2     1  UNL1       -0.1477
     18 O           7.2697   39.5504    6.3229 O.2     1  UNL1       -0.1477
     19 C           8.1520   41.1554    9.1960 C.3     1  UNL1        0.1392
     20 N           7.2610   41.5111    8.1001 N.pl3   1  UNL1       -0.1870
     21 C           6.0562   42.2626    8.3507 C.ar    1  UNL1        0.0686
     22 C           5.0034   41.7055    9.0954 C.ar    1  UNL1        0.0119
     23 C           3.8391   42.4370    9.3430 C.ar    1  UNL1       -0.0206
     24 C           2.7375   41.8321   10.1356 C.3     1  UNL1        0.0311
     25 C           3.7121   43.7362    8.8468 C.ar    1  UNL1       -0.0042
     26 C           4.7496   44.3034    8.1032 C.ar    1  UNL1        0.0010
     27 C           5.9145   43.5709    7.8571 C.ar    1  UNL1        0.0161
@<TRIPOS>BOND
     1    19    20    1
     2    22    23   ar
     3    24    23    1
     4    25    26   ar
     5    27    21   ar
     6     1     5   ar
     7     2     7    1
     8     2     5   ar
     9     6    10    1
    10    11    12   ar
    11    13    14   ar
    12    15    10   ar
    13    20    21    1
    14     3     4   ar
    15     7     6   am
    16    16    20    1
    17    16     1    1
    18    21    22   ar
    19    23    25   ar
    20    26    27   ar
    21     1     3   ar
    22     2     4   ar
    23     6     8    2
    24    10    11   ar
    25    12    13   ar
    26    14    15   ar
    27    16    17    2
    28    16    18    2
    29     7     9    1
@<TRIPOS>MOLECULE
MolPort-007-723-506 6818331 ChemDiv-E157-6073 MCULE-1441973407 PubChem-22518052 ZINC000006818331 ZINC06818331
 27 29 0 0 0
SMALL
GASTEIGER

@<TRIPOS>ATOM
      1 C           9.0363   41.5829    6.5156 C.ar    1  UNL1        0.2593
      2 C          11.4170   41.5978    6.6920 C.ar    1  UNL1        0.1896
      3 N           9.6546   41.3685    5.3341 N.ar    1  UNL1       -0.1187
      4 N          10.9825   41.3779    5.4312 N.ar    1  UNL1       -0.1239
      5 S          10.1403   41.7950    7.7698 S.2     1  UNL1       -0.0102
      6 C          13.6901   42.7316    6.7737 C.2     1  UNL1        0.2509
      7 N          12.7952   41.6520    7.0720 N.am    1  UNL1       -0.2592
      8 O          13.2833   43.7385    6.1320 O.2     1  UNL1       -0.2698
      9 H          13.1572   40.8888    7.5776 H       1  UNL1        0.1571
     10 C          15.0933   42.6644    7.2190 C.ar    1  UNL1        0.0537
     11 C          15.4756   41.7620    8.2224 C.ar    1  UNL1        0.0045
     12 C          16.8067   41.6972    8.6454 C.ar    1  UNL1        0.0001
     13 C          17.7650   42.5343    8.0680 C.ar    1  UNL1        0.0000
     14 C          17.3929   43.4363    7.0676 C.ar    1  UNL1        0.0001
     15 C          16.0619   43.5013    6.6446 C.ar    1  UNL1        0.0045
     16 S           7.2957   41.5997    6.7120 S.O2    1  UNL1        0.1010
     17 O           6.6685   42.1165    5.4476 O.2     1  UNL1       -0.1477
     18 O           6.7962   40.2059    6.9706 O.2     1  UNL1       -0.1477
     19 C           7.8120   43.6522    8.4553 C.3     1  UNL1        0.1392
     20 N           6.8670   42.6193    8.0538 N.pl3   1  UNL1       -0.1870
     21 C           5.6255   42.4459    8.7665 C.ar    1  UNL1        0.0686
     22 C           5.4759   41.4158    9.7097 C.ar    1  UNL1        0.0119
     23 C           4.2747   41.2529   10.4043 C.ar    1  UNL1       -0.0206
     24 C           4.1364   40.1595   11.4007 C.3     1  UNL1        0.0311
     25 C           3.2056   42.1184   10.1627 C.ar    1  UNL1       -0.0042
     26 C           3.3384   43.1465    9.2266 C.ar    1  UNL1        0.0010
     27 C           4.5411   43.3092    8.5331 C.ar    1  UNL1        0.0161
@<TRIPOS>BOND
     1    19    20    1
     2    22    23   ar
     3    24    23    1
     4    25    26   ar
     5    27    21   ar
     6     1     5   ar
     7     2     7    1
     8     2     5   ar
     9     6    10    1
    10    11    12   ar
    11    13    14   ar
    12    15    10   ar
    13    20    21    1
    14     3     4   ar
    15     7     6   am
    16    16    20    1
    17    16     1    1
    18    21    22   ar
    19    23    25   ar
    20    26    27   ar
    21     1     3   ar
    22     2     4   ar
    23     6     8    2
    24    10    11   ar
    25    12    13   ar
    26    14    15   ar
    27    16    17    2
    28    16    18    2
    29     7     9    1
@<TRIPOS>MOLECULE
MolPort-007-723-506 6818331 ChemDiv-E157-6073 MCULE-1441973407 PubChem-22518052 ZINC000006818331 ZINC06818331
 27 29 0 0 0
SMALL
GASTEIGER

@<TRIPOS>ATOM
      1 C          13.0101   38.4592   10.5014 C.ar    1  UNL1        0.2593
      2 C          11.0406   39.5639    9.7272 C.ar    1  UNL1        0.1896
      3 N          12.3124   37.7281    9.6054 N.ar    1  UNL1       -0.1187
      4 N          11.2130   38.3429    9.1739 N.ar    1  UNL1       -0.1239
      5 S          12.2763   39.9448   10.8035 S.2     1  UNL1       -0.0102
      6 C          10.0637   41.8191    9.0799 C.2     1  UNL1        0.2509
      7 N           9.9443   40.4348    9.4332 N.am    1  UNL1       -0.2592
      8 O          11.1997   42.3624    9.0042 O.2     1  UNL1       -0.2698
      9 H           9.0375   40.0540    9.4768 H       1  UNL1        0.1571
     10 C           8.8525   42.6119    8.8040 C.ar    1  UNL1        0.0537
     11 C           7.8013   42.0623    8.0556 C.ar    1  UNL1        0.0045
     12 C           6.6516   42.8135    7.7936 C.ar    1  UNL1        0.0001
     13 C           6.5448   44.1198    8.2781 C.ar    1  UNL1        0.0000
     14 C           7.5873   44.6753    9.0247 C.ar    1  UNL1        0.0001
     15 C           8.7371   43.9243    9.2867 C.ar    1  UNL1        0.0045
     16 S          14.5142   37.9294   11.2265 S.O2    1  UNL1        0.1010
     17 O          14.7451   38.7078   12.4914 O.2     1  UNL1       -0.1477
     18 O          14.4336   36.4664   11.5614 O.2     1  UNL1       -0.1477
     19 C          16.1608   39.5641    9.7654 C.3     1  UNL1        0.1392
     20 N          15.8252   38.1905   10.1143 N.pl3   1  UNL1       -0.1870
     21 C          16.5534   37.0891    9.5348 C.ar    1  UNL1        0.0686
     22 C          15.9944   36.3242    8.4976 C.ar    1  UNL1        0.0119
     23 C          16.7036   35.2614    7.9325 C.ar    1  UNL1       -0.0206
     24 C          16.0971   34.4657    6.8340 C.3     1  UNL1        0.0311
     25 C          17.9821   34.9485    8.3993 C.ar    1  UNL1       -0.0042
     26 C          18.5508   35.6989    9.4311 C.ar    1  UNL1        0.0010
     27 C          17.8407   36.7627    9.9950 C.ar    1  UNL1        0.0161
@<TRIPOS>BOND
     1    19    20    1
     2    22    23   ar
     3    24    23    1
     4    25    26   ar
     5    27    21   ar
     6     1     5   ar
     7     2     7    1
     8     2     5   ar
     9     6    10    1
    10    11    12   ar
    11    13    14   ar
    12    15    10   ar
    13    20    21    1
    14     3     4   ar
    15     7     6   am
    16    16    20    1
    17    16     1    1
    18    21    22   ar
    19    23    25   ar
    20    26    27   ar
    21     1     3   ar
    22     2     4   ar
    23     6     8    2
    24    10    11   ar
    25    12    13   ar
    26    14    15   ar
    27    16    17    2
    28    16    18    2
    29     7     9    1
@<TRIPOS>MOLECULE
MolPort-007-723-506 6818331 ChemDiv-E157-6073 MCULE-1441973407 PubChem-22518052 ZINC000006818331 ZINC06818331
 27 29 0 0 0
SMALL
GASTEIGER

@<TRIPOS>ATOM
      1 C          11.1555   42.1799    8.2198 C.ar    1  UNL1        0.2593
      2 C           9.0952   42.4068    9.4041 C.ar    1  UNL1        0.1896
      3 N          11.3040   42.7575    9.4317 N.ar    1  UNL1       -0.1187
      4 N          10.1551   42.8856   10.0925 N.ar    1  UNL1       -0.1239
      5 S           9.5478   41.7870    7.9069 S.2     1  UNL1       -0.0102
      6 C           6.6793   41.6186    9.3640 C.2     1  UNL1        0.2509
      7 N           7.7485   42.4177    9.8870 N.am    1  UNL1       -0.2592
      8 O           6.8862   40.8243    8.4061 O.2     1  UNL1       -0.2698
      9 H           7.5399   43.0207   10.6367 H       1  UNL1        0.1571
     10 C           5.3308   41.7259    9.9487 C.ar    1  UNL1        0.0537
     11 C           5.0674   41.2023   11.2229 C.ar    1  UNL1        0.0045
     12 C           3.7885   41.3040   11.7786 C.ar    1  UNL1        0.0001
     13 C           2.7637   41.9300   11.0641 C.ar    1  UNL1        0.0000
     14 C           3.0174   42.4546    9.7939 C.ar    1  UNL1        0.0001
     15 C           4.2962   42.3530    9.2381 C.ar    1  UNL1        0.0045
     16 S          12.4875   41.8520    7.1304 S.O2    1  UNL1        0.1010
     17 O          11.9806   41.0371    5.9736 O.2     1  UNL1       -0.1477
     18 O          13.0514   43.1436    6.6080 O.2     1  UNL1       -0.1477
     19 C          13.3894   39.6994    8.5696 C.3     1  UNL1        0.1392
     20 N          13.7350   40.9831    7.9746 N.pl3   1  UNL1       -0.1870
     21 C          15.0692   41.5144    8.1039 C.ar    1  UNL1        0.0686
     22 C          15.4894   42.6008    7.3188 C.ar    1  UNL1        0.0119
     23 C          16.7803   43.1189    7.4496 C.ar    1  UNL1       -0.0206
     24 C          17.2056   44.2706    6.6127 C.3     1  UNL1        0.0311
     25 C          17.6692   42.5552    8.3673 C.ar    1  UNL1       -0.0042
     26 C          17.2666   41.4734    9.1540 C.ar    1  UNL1        0.0010
     27 C          15.9744   40.9567    9.0231 C.ar    1  UNL1        0.0161
@<TRIPOS>BOND
     1    19    20    1
     2    22    23   ar
     3    24    23    1
     4    25    26   ar
     5    27    21   ar
     6     1     5   ar
     7     2     7    1
     8     2     5   ar
     9     6    10    1
    10    11    12   ar
    11    13    14   ar
    12    15    10   ar
    13    20    21    1
    14     3     4   ar
    15     7     6   am
    16    16    20    1
    17    16     1    1
    18    21    22   ar
    19    23    25   ar
    20    26    27   ar
    21     1     3   ar
    22     2     4   ar
    23     6     8    2
    24    10    11   ar
    25    12    13   ar
    26    14    15   ar
    27    16    17    2
    28    16    18    2
    29     7     9    1
@<TRIPOS>MOLECULE
MolPort-007-723-506 6818331 ChemDiv-E157-6073 MCULE-1441973407 PubChem-22518052 ZINC000006818331 ZINC06818331
 27 29 0 0 0
SMALL
GASTEIGER

@<TRIPOS>ATOM
      1 C          10.0747   40.3658    6.2444 C.ar    1  UNL1        0.2593
      2 C          12.0656   41.6825    6.2062 C.ar    1  UNL1        0.1896
      3 N           9.9518   41.4873    5.5019 N.ar    1  UNL1       -0.1187
      4 N          11.0614   42.2231    5.4809 N.ar    1  UNL1       -0.1239
      5 S          11.6100   40.2305    6.9235 S.2     1  UNL1       -0.0102
      6 C          14.3045   41.9460    7.3799 C.2     1  UNL1        0.2509
      7 N          13.3640   42.2668    6.3465 N.am    1  UNL1       -0.2592
      8 O          14.0189   41.0864    8.2578 O.2     1  UNL1       -0.2698
      9 H          13.6324   42.9416    5.6818 H       1  UNL1        0.1571
     10 C          15.6122   42.6244    7.4167 C.ar    1  UNL1        0.0537
     11 C          16.6085   42.1946    8.3054 C.ar    1  UNL1        0.0045
     12 C          17.8496   42.8374    8.3408 C.ar    1  UNL1        0.0001
     13 C          18.1034   43.9146    7.4877 C.ar    1  UNL1        0.0000
     14 C          17.1165   44.3494    6.5990 C.ar    1  UNL1        0.0001
     15 C          15.8753   43.7067    6.5635 C.ar    1  UNL1        0.0045
     16 S           8.7954   39.1851    6.4394 S.O2    1  UNL1        0.1010
     17 O           8.5390   38.5224    5.1149 O.2     1  UNL1       -0.1477
     18 O           9.2113   38.1398    7.4361 O.2     1  UNL1       -0.1477
     19 C           6.1598   39.8927    6.1720 C.3     1  UNL1        0.1392
     20 N           7.3519   39.9727    7.0049 N.pl3   1  UNL1       -0.1870
     21 C           7.3280   40.7008    8.2494 C.ar    1  UNL1        0.0686
     22 C           6.1119   40.9852    8.8924 C.ar    1  UNL1        0.0119
     23 C           6.0904   41.6851   10.1014 C.ar    1  UNL1       -0.0206
     24 C           4.7945   41.9737   10.7684 C.3     1  UNL1        0.0311
     25 C           7.2865   42.1116   10.6826 C.ar    1  UNL1       -0.0042
     26 C           8.5036   41.8378   10.0544 C.ar    1  UNL1        0.0010
     27 C           8.5239   41.1365    8.8454 C.ar    1  UNL1        0.0161
@<TRIPOS>BOND
     1    19    20    1
     2    22    23   ar
     3    24    23    1
     4    25    26   ar
     5    27    21   ar
     6     1     5   ar
     7     2     7    1
     8     2     5   ar
     9     6    10    1
    10    11    12   ar
    11    13    14   ar
    12    15    10   ar
    13    20    21    1
    14     3     4   ar
    15     7     6   am
    16    16    20    1
    17    16     1    1
    18    21    22   ar
    19    23    25   ar
    20    26    27   ar
    21     1     3   ar
    22     2     4   ar
    23     6     8    2
    24    10    11   ar
    25    12    13   ar
    26    14    15   ar
    27    16    17    2
    28    16    18    2
    29     7     9    1
@<TRIPOS>MOLECULE
MolPort-007-723-506 6818331 ChemDiv-E157-6073 MCULE-1441973407 PubChem-22518052 ZINC000006818331 ZINC06818331
 27 29 0 0 0
SMALL
GASTEIGER

@<TRIPOS>ATOM
      1 C           9.1867   41.3976    6.2218 C.ar    1  UNL1        0.2593
      2 C          11.5563   41.4441    6.5075 C.ar    1  UNL1        0.1896
      3 N           9.8600   41.0409    5.1066 N.ar    1  UNL1       -0.1187
      4 N          11.1818   41.0677    5.2646 N.ar    1  UNL1       -0.1239
      5 S          10.2303   41.7682    7.4909 S.2     1  UNL1       -0.0102
      6 C          13.7723   42.6738    6.6993 C.2     1  UNL1        0.2509
      7 N          12.9150   41.5508    6.9426 N.am    1  UNL1       -0.2592
      8 O          13.3465   43.6745    6.0601 O.2     1  UNL1       -0.2698
      9 H          13.2905   40.7942    7.4484 H       1  UNL1        0.1571
     10 C          15.1587   42.6589    7.1985 C.ar    1  UNL1        0.0537
     11 C          16.1053   43.5592    6.6879 C.ar    1  UNL1        0.0045
     12 C          17.4208   43.5461    7.1612 C.ar    1  UNL1        0.0001
     13 C          17.7992   42.6326    8.1487 C.ar    1  UNL1        0.0000
     14 C          16.8626   41.7322    8.6631 C.ar    1  UNL1        0.0001
     15 C          15.5471   41.7451    8.1899 C.ar    1  UNL1        0.0045
     16 S           7.4387   41.4314    6.3320 S.O2    1  UNL1        0.1010
     17 O           6.9266   42.6241    5.5740 O.2     1  UNL1       -0.1477
     18 O           6.8633   40.1829    5.7246 O.2     1  UNL1       -0.1477
     19 C           5.7203   40.8717    8.3941 C.3     1  UNL1        0.1392
     20 N           6.9583   41.5301    8.0003 N.pl3   1  UNL1       -0.1870
     21 C           7.7432   42.2534    8.9699 C.ar    1  UNL1        0.0686
     22 C           8.3545   41.5842   10.0431 C.ar    1  UNL1        0.0119
     23 C           9.1201   42.2851   10.9782 C.ar    1  UNL1       -0.0206
     24 C           9.7618   41.5596   12.1049 C.3     1  UNL1        0.0311
     25 C           9.2829   43.6665   10.8526 C.ar    1  UNL1       -0.0042
     26 C           8.6800   44.3462    9.7918 C.ar    1  UNL1        0.0010
     27 C           7.9151   43.6437    8.8562 C.ar    1  UNL1        0.0161
@<TRIPOS>BOND
     1    19    20    1
     2    22    23   ar
     3    24    23    1
     4    25    26   ar
     5    27    21   ar
     6     1     5   ar
     7     2     7    1
     8     2     5   ar
     9     6    10    1
    10    11    12   ar
    11    13    14   ar
    12    15    10   ar
    13    20    21    1
    14     3     4   ar
    15     7     6   am
    16    16    20    1
    17    16     1    1
    18    21    22   ar
    19    23    25   ar
    20    26    27   ar
    21     1     3   ar
    22     2     4   ar
    23     6     8    2
    24    10    11   ar
    25    12    13   ar
    26    14    15   ar
    27    16    17    2
    28    16    18    2
    29     7     9    1
@<TRIPOS>MOLECULE
MolPort-007-723-506 6818331 ChemDiv-E157-6073 MCULE-1441973407 PubChem-22518052 ZINC000006818331 ZINC06818331
 27 29 0 0 0
SMALL
GASTEIGER

@<TRIPOS>ATOM
      1 C           9.7439   41.2411    7.5921 C.ar    1  UNL1        0.2593
      2 C          11.6422   39.8481    7.9855 C.ar    1  UNL1        0.1896
      3 N          10.6107   41.7694    8.4829 N.ar    1  UNL1       -0.1187
      4 N          11.6693   40.9926    8.7040 N.ar    1  UNL1       -0.1239
      5 S          10.2688   39.7468    7.0192 S.2     1  UNL1       -0.0102
      6 C          12.8354   37.8988    9.0972 C.2     1  UNL1        0.2509
      7 N          12.6586   38.8424    8.0325 N.am    1  UNL1       -0.2592
      8 O          12.0612   37.9085   10.0932 O.2     1  UNL1       -0.2698
      9 H          13.2852   38.7945    7.2747 H       1  UNL1        0.1571
     10 C          13.9277   36.9121    9.0279 C.ar    1  UNL1        0.0537
     11 C          15.2472   37.3307    8.8017 C.ar    1  UNL1        0.0045
     12 C          16.2843   36.3954    8.7361 C.ar    1  UNL1        0.0001
     13 C          16.0095   35.0347    8.8963 C.ar    1  UNL1        0.0000
     14 C          14.6978   34.6089    9.1221 C.ar    1  UNL1        0.0001
     15 C          13.6606   35.5440    9.1877 C.ar    1  UNL1        0.0045
     16 S           8.2730   42.0409    7.0766 S.O2    1  UNL1        0.1010
     17 O           8.2164   43.4060    7.7030 O.2     1  UNL1       -0.1477
     18 O           8.2682   42.1892    5.5810 O.2     1  UNL1       -0.1477
     19 C           6.2905   40.2135    6.5774 C.3     1  UNL1        0.1392
     20 N           6.8933   41.1007    7.5628 N.pl3   1  UNL1       -0.1870
     21 C           6.3427   41.2007    8.8917 C.ar    1  UNL1        0.0686
     22 C           7.1799   41.3841   10.0046 C.ar    1  UNL1        0.0119
     23 C           6.6447   41.4874   11.2910 C.ar    1  UNL1       -0.0206
     24 C           7.5459   41.6846   12.4558 C.3     1  UNL1        0.0311
     25 C           5.2635   41.4066   11.4812 C.ar    1  UNL1       -0.0042
     26 C           4.4181   41.2227   10.3846 C.ar    1  UNL1        0.0010
     27 C           4.9547   41.1207    9.0979 C.ar    1  UNL1        0.0161
@<TRIPOS>BOND
     1    19    20    1
     2    22    23   ar
     3    24    23    1
     4    25    26   ar
     5    27    21   ar
     6     1     5   ar
     7     2     7    1
     8     2     5   ar
     9     6    10    1
    10    11    12   ar
    11    13    14   ar
    12    15    10   ar
    13    20    21    1
    14     3     4   ar
    15     7     6   am
    16    16    20    1
    17    16     1    1
    18    21    22   ar
    19    23    25   ar
    20    26    27   ar
    21     1     3   ar
    22     2     4   ar
    23     6     8    2
    24    10    11   ar
    25    12    13   ar
    26    14    15   ar
    27    16    17    2
    28    16    18    2
    29     7     9    1
@<TRIPOS>MOLECULE
MolPort-007-723-506 6818331 ChemDiv-E157-6073 MCULE-1441973407 PubChem-22518052 ZINC000006818331 ZINC06818331
 27 29 0 0 0
SMALL
GASTEIGER

@<TRIPOS>ATOM
      1 C           9.8150   40.2620    6.6903 C.ar    1  UNL1        0.2593
      2 C          12.0735   41.0334    6.7429 C.ar    1  UNL1        0.1896
      3 N          10.6775   39.3379    7.1660 N.ar    1  UNL1       -0.1187
      4 N          11.9377   39.7667    7.1945 N.ar    1  UNL1       -0.1239
      5 S          10.5984   41.6944    6.2765 S.2     1  UNL1       -0.0102
      6 C          14.3162   41.7479    7.7016 C.2     1  UNL1        0.2509
      7 N          13.3182   41.7352    6.6724 N.am    1  UNL1       -0.2592
      8 O          14.1369   41.1050    8.7720 O.2     1  UNL1       -0.2698
      9 H          13.5039   42.2493    5.8536 H       1  UNL1        0.1571
     10 C          15.5586   42.5166    7.5079 C.ar    1  UNL1        0.0537
     11 C          15.6192   43.5341    6.5445 C.ar    1  UNL1        0.0045
     12 C          16.7972   44.2642    6.3603 C.ar    1  UNL1        0.0001
     13 C          17.9232   43.9820    7.1382 C.ar    1  UNL1        0.0000
     14 C          17.8717   42.9699    8.1003 C.ar    1  UNL1        0.0001
     15 C          16.6937   42.2397    8.2847 C.ar    1  UNL1        0.0045
     16 S           8.0877   40.0016    6.5588 S.O2    1  UNL1        0.1010
     17 O           7.6207   40.5024    5.2208 O.2     1  UNL1       -0.1477
     18 O           7.7817   38.5339    6.6648 O.2     1  UNL1       -0.1477
     19 C           5.8287   40.6677    7.9630 C.3     1  UNL1        0.1392
     20 N           7.2680   40.8507    7.8360 N.pl3   1  UNL1       -0.1870
     21 C           7.9770   41.7256    8.7365 C.ar    1  UNL1        0.0686
     22 C           7.8038   43.1181    8.6709 C.ar    1  UNL1        0.0119
     23 C           8.4864   43.9643    9.5483 C.ar    1  UNL1       -0.0206
     24 C           8.2879   45.4345    9.4659 C.3     1  UNL1        0.0311
     25 C           9.3536   43.4281   10.5026 C.ar    1  UNL1       -0.0042
     26 C           9.5376   42.0456   10.5792 C.ar    1  UNL1        0.0010
     27 C           8.8532   41.1998    9.7016 C.ar    1  UNL1        0.0161
@<TRIPOS>BOND
     1    19    20    1
     2    22    23   ar
     3    24    23    1
     4    25    26   ar
     5    27    21   ar
     6     1     5   ar
     7     2     7    1
     8     2     5   ar
     9     6    10    1
    10    11    12   ar
    11    13    14   ar
    12    15    10   ar
    13    20    21    1
    14     3     4   ar
    15     7     6   am
    16    16    20    1
    17    16     1    1
    18    21    22   ar
    19    23    25   ar
    20    26    27   ar
    21     1     3   ar
    22     2     4   ar
    23     6     8    2
    24    10    11   ar
    25    12    13   ar
    26    14    15   ar
    27    16    17    2
    28    16    18    2
    29     7     9    1
@<TRIPOS>MOLECULE
MolPort-007-723-506 6818331 ChemDiv-E157-6073 MCULE-1441973407 PubChem-22518052 ZINC000006818331 ZINC06818331
 27 29 0 0 0
SMALL
GASTEIGER

@<TRIPOS>ATOM
      1 C           9.2699   41.3085    6.3767 C.ar    1  UNL1        0.2593
      2 C          11.6357   41.5341    6.6026 C.ar    1  UNL1        0.1896
      3 N           9.9347   41.0768    5.2241 N.ar    1  UNL1       -0.1187
      4 N          11.2543   41.2036    5.3487 N.ar    1  UNL1       -0.1239
      5 S          10.3191   41.6871    7.6387 S.2     1  UNL1       -0.0102
      6 C          13.7997   42.8650    6.6749 C.2     1  UNL1        0.2509
      7 N          12.9942   41.7267    7.0077 N.am    1  UNL1       -0.2592
      8 O          13.3235   43.8009    5.9759 O.2     1  UNL1       -0.2698
      9 H          13.4080   41.0229    7.5578 H       1  UNL1        0.1571
     10 C          15.1919   42.9419    7.1519 C.ar    1  UNL1        0.0537
     11 C          15.6954   41.9692    8.0279 C.ar    1  UNL1        0.0045
     12 C          17.0162   42.0411    8.4808 C.ar    1  UNL1        0.0001
     13 C          17.8431   43.0864    8.0609 C.ar    1  UNL1        0.0000
     14 C          17.3496   44.0599    7.1881 C.ar    1  UNL1        0.0001
     15 C          16.0289   43.9881    6.7352 C.ar    1  UNL1        0.0045
     16 S           7.5292   41.1905    6.5345 S.O2    1  UNL1        0.1010
     17 O           6.8997   41.4681    5.1982 O.2     1  UNL1       -0.1477
     18 O           7.1480   39.8051    6.9755 O.2     1  UNL1       -0.1477
     19 C           6.9299   43.7453    7.3295 C.3     1  UNL1        0.1392
     20 N           6.9681   42.3405    7.7119 N.pl3   1  UNL1       -0.1870
     21 C           6.5673   41.9309    9.0351 C.ar    1  UNL1        0.0686
     22 C           7.5054   41.8501   10.0775 C.ar    1  UNL1        0.0119
     23 C           7.1147   41.4594   11.3607 C.ar    1  UNL1       -0.0206
     24 C           8.1207   41.3829   12.4514 C.3     1  UNL1        0.0311
     25 C           5.7791   41.1423   11.6176 C.ar    1  UNL1       -0.0042
     26 C           4.8348   41.2163   10.5910 C.ar    1  UNL1        0.0010
     27 C           5.2267   41.6085    9.3079 C.ar    1  UNL1        0.0161
@<TRIPOS>BOND
     1    19    20    1
     2    22    23   ar
     3    24    23    1
     4    25    26   ar
     5    27    21   ar
     6     1     5   ar
     7     2     7    1
     8     2     5   ar
     9     6    10    1
    10    11    12   ar
    11    13    14   ar
    12    15    10   ar
    13    20    21    1
    14     3     4   ar
    15     7     6   am
    16    16    20    1
    17    16     1    1
    18    21    22   ar
    19    23    25   ar
    20    26    27   ar
    21     1     3   ar
    22     2     4   ar
    23     6     8    2
    24    10    11   ar
    25    12    13   ar
    26    14    15   ar
    27    16    17    2
    28    16    18    2
    29     7     9    1
