@<TRIPOS>MOLECULE
MolPort-002-455-707 ChemDiv-D039-0040 MCULE-7305721499 PubChem-959516 ZINC000000568499 ZINC00568499
 26 27 0 0 0
SMALL
GASTEIGER

@<TRIPOS>ATOM
      1 C           9.7236   34.0506   13.8626 C.ar    1  UNL1        0.0857
      2 C          10.8423   33.2284   13.9311 C.ar    1  UNL1        0.0408
      3 C          11.1182   32.2062   14.9793 C.3     1  UNL1        0.0500
      4 C          11.1049   34.4386   12.1821 C.ar    1  UNL1        0.1085
      5 C           9.9025   34.8267   12.7318 C.ar    1  UNL1        0.0153
      6 C           8.9915   35.8791   12.1962 C.3     1  UNL1        0.0342
      7 N          11.6879   33.4624   12.9069 N.ar    1  UNL1       -0.3451
      8 H          12.5467   33.0161   12.7270 H       1  UNL1        0.1668
      9 C          12.3946   36.2309   10.9250 C.2     1  UNL1        0.3092
     10 O          12.5866   36.9159   11.9659 O.2     1  UNL1       -0.2521
     11 N          11.6671   35.0004   10.9904 N.am    1  UNL1       -0.2551
     12 N          12.8991   36.6676    9.6566 N.am    1  UNL1       -0.2680
     13 H          11.5432   34.5012   10.1510 H       1  UNL1        0.1578
     14 H          12.7136   36.0852    8.8848 H       1  UNL1        0.1564
     15 C          13.6458   37.8635    9.3931 C.ar    1  UNL1        0.0516
     16 C          15.0268   37.9459    9.6300 C.ar    1  UNL1        0.0156
     17 C          15.7210   39.1289    9.3609 C.ar    1  UNL1        0.0127
     18 C          15.0393   40.2378    8.8531 C.ar    1  UNL1        0.0578
     19 C          13.6644   40.1633    8.6147 C.ar    1  UNL1        0.0127
     20 C          12.9714   38.9793    8.8844 C.ar    1  UNL1        0.0156
     21 CL         15.9070   41.7196    8.5156 Cl      1  UNL1       -0.0822
     22 C           8.5807   34.0927   14.7976 C.2     1  UNL1        0.3421
     23 O           8.5253   34.9842   15.6883 O.2     1  UNL1       -0.2449
     24 O           7.5614   33.1439   14.6927 O.3     1  UNL1       -0.4454
     25 C           5.3384   32.2708   14.4918 C.3     1  UNL1        0.0513
     26 C           6.1944   33.5155   14.5984 C.3     1  UNL1        0.2089
@<TRIPOS>BOND
     1    25    26    1
     2    26    24    1
     3    22    24    1
     4    22     1    1
     5     2     7   ar
     6     3     2    1
     7     4    11    1
     8     9    12   am
     9    16    17   ar
    10    18    21    1
    11    18    19   ar
    12    20    15   ar
    13     5     1   ar
    14     6     5    1
    15     7     4   ar
    16    11     9   am
    17    12    15    1
    18    22    23    2
    19     1     2   ar
    20     4     5   ar
    21     9    10    2
    22    15    16   ar
    23    17    18   ar
    24    19    20   ar
    25     7     8    1
    26    11    13    1
    27    12    14    1
@<TRIPOS>MOLECULE
MolPort-002-455-707 ChemDiv-D039-0040 MCULE-7305721499 PubChem-959516 ZINC000000568499 ZINC00568499
 26 27 0 0 0
SMALL
GASTEIGER

@<TRIPOS>ATOM
      1 C          11.7800   41.3945    7.6629 C.ar    1  UNL1        0.0857
      2 C          11.7543   40.8375    8.9361 C.ar    1  UNL1        0.0408
      3 C          12.9305   40.6240    9.8253 C.3     1  UNL1        0.0500
      4 C           9.7240   40.8370    8.2502 C.ar    1  UNL1        0.1085
      5 C          10.4665   41.3897    7.2294 C.ar    1  UNL1        0.0153
      6 C           9.9366   41.8780    5.9236 C.3     1  UNL1        0.0342
      7 N          10.5009   40.4959    9.2981 N.ar    1  UNL1       -0.3451
      8 H          10.2145   40.0854   10.1459 H       1  UNL1        0.1668
      9 C           7.3812   41.1145    9.1937 C.2     1  UNL1        0.3092
     10 O           7.7916   41.7482   10.2034 O.2     1  UNL1       -0.2521
     11 N           8.3049   40.6474    8.2056 N.am    1  UNL1       -0.2551
     12 N           5.9845   40.8485    9.0130 N.am    1  UNL1       -0.2680
     13 H           7.9363   40.1576    7.4352 H       1  UNL1        0.1578
     14 H           5.7326   40.3490    8.2028 H       1  UNL1        0.1564
     15 C           4.9151   41.2331    9.8879 C.ar    1  UNL1        0.0516
     16 C           4.7031   40.6046   11.1250 C.ar    1  UNL1        0.0156
     17 C           3.6500   41.0069   11.9512 C.ar    1  UNL1        0.0127
     18 C           2.8012   42.0403   11.5464 C.ar    1  UNL1        0.0578
     19 C           3.0058   42.6707   10.3162 C.ar    1  UNL1        0.0127
     20 C           4.0598   42.2672    9.4909 C.ar    1  UNL1        0.0156
     21 CL          1.4820   42.5451   12.5797 Cl      1  UNL1       -0.0822
     22 C          12.9583   41.8890    6.9219 C.2     1  UNL1        0.3421
     23 O          12.9270   41.9654    5.6631 O.2     1  UNL1       -0.2449
     24 O          14.1067   42.2722    7.6180 O.3     1  UNL1       -0.4454
     25 C          16.3427   43.1072    7.4004 C.3     1  UNL1        0.0513
     26 C          14.8674   43.4115    7.2450 C.3     1  UNL1        0.2089
@<TRIPOS>BOND
     1    25    26    1
     2    26    24    1
     3    22    24    1
     4    22     1    1
     5     2     7   ar
     6     3     2    1
     7     4    11    1
     8     9    12   am
     9    16    17   ar
    10    18    21    1
    11    18    19   ar
    12    20    15   ar
    13     5     1   ar
    14     6     5    1
    15     7     4   ar
    16    11     9   am
    17    12    15    1
    18    22    23    2
    19     1     2   ar
    20     4     5   ar
    21     9    10    2
    22    15    16   ar
    23    17    18   ar
    24    19    20   ar
    25     7     8    1
    26    11    13    1
    27    12    14    1
@<TRIPOS>MOLECULE
MolPort-002-455-707 ChemDiv-D039-0040 MCULE-7305721499 PubChem-959516 ZINC000000568499 ZINC00568499
 26 27 0 0 0
SMALL
GASTEIGER

@<TRIPOS>ATOM
      1 C          15.0989   37.4871   10.1121 C.ar    1  UNL1        0.0857
      2 C          15.0474   36.7185    8.9551 C.ar    1  UNL1        0.0408
      3 C          16.1846   35.9760    8.3425 C.3     1  UNL1        0.0500
      4 C          13.0670   37.4850    9.2435 C.ar    1  UNL1        0.1085
      5 C          13.8175   37.9767   10.2894 C.ar    1  UNL1        0.0153
      6 C          13.3241   38.8615   11.3839 C.3     1  UNL1        0.0342
      7 N          13.8086   36.7148    8.4220 N.ar    1  UNL1       -0.3451
      8 H          13.5098   36.2495    7.6075 H       1  UNL1        0.1668
      9 C          11.1332   39.0042    8.6044 C.2     1  UNL1        0.3092
     10 O          11.8951   39.9745    8.3446 O.2     1  UNL1       -0.2521
     11 N          11.6738   37.7569    9.0513 N.am    1  UNL1       -0.2551
     12 N           9.7128   39.1277    8.4585 N.am    1  UNL1       -0.2680
     13 H          11.0388   37.0290    9.2414 H       1  UNL1        0.1578
     14 H           9.1767   38.3318    8.6782 H       1  UNL1        0.1564
     15 C           8.9900   40.2887    8.0263 C.ar    1  UNL1        0.0516
     16 C           8.5959   41.2958    8.9210 C.ar    1  UNL1        0.0156
     17 C           7.8925   42.4132    8.4626 C.ar    1  UNL1        0.0127
     18 C           7.5780   42.5316    7.1064 C.ar    1  UNL1        0.0578
     19 C           7.9669   41.5330    6.2095 C.ar    1  UNL1        0.0127
     20 C           8.6705   40.4159    6.6696 C.ar    1  UNL1        0.0156
     21 CL          6.6972   43.9301    6.5309 Cl      1  UNL1       -0.0822
     22 C          16.2719   37.7343   10.9753 C.2     1  UNL1        0.3421
     23 O          16.2939   37.2877   12.1548 O.2     1  UNL1       -0.2449
     24 O          17.3566   38.4628   10.4824 O.3     1  UNL1       -0.4454
     25 C          19.5829   38.7874    9.6562 C.3     1  UNL1        0.0513
     26 C          18.6901   37.9855   10.5799 C.3     1  UNL1        0.2089
@<TRIPOS>BOND
     1    25    26    1
     2    26    24    1
     3    22    24    1
     4    22     1    1
     5     2     7   ar
     6     3     2    1
     7     4    11    1
     8     9    12   am
     9    16    17   ar
    10    18    21    1
    11    18    19   ar
    12    20    15   ar
    13     5     1   ar
    14     6     5    1
    15     7     4   ar
    16    11     9   am
    17    12    15    1
    18    22    23    2
    19     1     2   ar
    20     4     5   ar
    21     9    10    2
    22    15    16   ar
    23    17    18   ar
    24    19    20   ar
    25     7     8    1
    26    11    13    1
    27    12    14    1
@<TRIPOS>MOLECULE
MolPort-002-455-707 ChemDiv-D039-0040 MCULE-7305721499 PubChem-959516 ZINC000000568499 ZINC00568499
 26 27 0 0 0
SMALL
GASTEIGER

@<TRIPOS>ATOM
      1 C          17.0837   35.6248    7.8807 C.ar    1  UNL1        0.0857
      2 C          15.9187   35.4774    7.1369 C.ar    1  UNL1        0.0408
      3 C          15.7738   34.6944    5.8777 C.3     1  UNL1        0.0500
      4 C          15.4018   36.7211    8.8038 C.ar    1  UNL1        0.1085
      5 C          16.7399   36.4281    8.9530 C.ar    1  UNL1        0.0153
      6 C          17.6231   36.8969   10.0596 C.3     1  UNL1        0.0342
      7 N          14.8898   36.1452    7.6973 N.ar    1  UNL1       -0.3451
      8 H          13.9633   36.2005    7.3688 H       1  UNL1        0.1668
      9 C          13.4659   38.2670    9.3683 C.2     1  UNL1        0.3092
     10 O          13.0072   38.2291    8.1946 O.2     1  UNL1       -0.2521
     11 N          14.6474   37.5353    9.7093 N.am    1  UNL1       -0.2551
     12 N          12.8164   39.0411   10.3847 N.am    1  UNL1       -0.2680
     13 H          14.9667   37.5962   10.6386 H       1  UNL1        0.1578
     14 H          13.2272   39.0265   11.2792 H       1  UNL1        0.1564
     15 C          11.6311   39.8349   10.2359 C.ar    1  UNL1        0.0516
     16 C          11.1719   40.6846   11.2543 C.ar    1  UNL1        0.0156
     17 C          10.0121   41.4432   11.0729 C.ar    1  UNL1        0.0127
     18 C           9.3031   41.3575    9.8720 C.ar    1  UNL1        0.0578
     19 C           9.7540   40.5137    8.8534 C.ar    1  UNL1        0.0127
     20 C          10.9144   39.7555    9.0365 C.ar    1  UNL1        0.0156
     21 CL          7.8507   42.3067    9.6433 Cl      1  UNL1       -0.0822
     22 C          18.4129   35.0485    7.5924 C.2     1  UNL1        0.3421
     23 O          19.1542   35.5755    6.7183 O.2     1  UNL1       -0.2449
     24 O          18.8474   33.9195    8.2902 O.3     1  UNL1       -0.4454
     25 C          19.6519   31.7606    7.6299 C.3     1  UNL1        0.0513
     26 C          18.4346   32.6091    7.9325 C.3     1  UNL1        0.2089
@<TRIPOS>BOND
     1    25    26    1
     2    26    24    1
     3    22    24    1
     4    22     1    1
     5     2     7   ar
     6     3     2    1
     7     4    11    1
     8     9    12   am
     9    16    17   ar
    10    18    21    1
    11    18    19   ar
    12    20    15   ar
    13     5     1   ar
    14     6     5    1
    15     7     4   ar
    16    11     9   am
    17    12    15    1
    18    22    23    2
    19     1     2   ar
    20     4     5   ar
    21     9    10    2
    22    15    16   ar
    23    17    18   ar
    24    19    20   ar
    25     7     8    1
    26    11    13    1
    27    12    14    1
@<TRIPOS>MOLECULE
MolPort-002-455-707 ChemDiv-D039-0040 MCULE-7305721499 PubChem-959516 ZINC000000568499 ZINC00568499
 26 27 0 0 0
SMALL
GASTEIGER

@<TRIPOS>ATOM
      1 C           7.5662   41.8007   10.0940 C.ar    1  UNL1        0.0857
      2 C           7.0916   42.4001    8.9331 C.ar    1  UNL1        0.0408
      3 C           5.7551   43.0342    8.7552 C.3     1  UNL1        0.0500
      4 C           9.0674   41.7082    8.4751 C.ar    1  UNL1        0.1085
      5 C           8.8405   41.3580    9.7883 C.ar    1  UNL1        0.0153
      6 C           9.7948   40.6421   10.6833 C.3     1  UNL1        0.0342
      7 N           8.0052   42.3456    7.9426 N.ar    1  UNL1       -0.3451
      8 H           7.9158   42.6961    7.0270 H       1  UNL1        0.1668
      9 C          11.5205   42.1163    7.9535 C.2     1  UNL1        0.3092
     10 O          11.6140   43.0454    8.8005 O.2     1  UNL1       -0.2521
     11 N          10.2789   41.4307    7.7630 N.am    1  UNL1       -0.2551
     12 N          12.6519   41.7266    7.1647 N.am    1  UNL1       -0.2680
     13 H          10.2556   40.7124    7.0902 H       1  UNL1        0.1578
     14 H          12.5096   40.9942    6.5224 H       1  UNL1        0.1564
     15 C          13.9694   42.2913    7.2123 C.ar    1  UNL1        0.0516
     16 C          14.3130   43.4412    6.4843 C.ar    1  UNL1        0.0156
     17 C          15.6078   43.9626    6.5558 C.ar    1  UNL1        0.0127
     18 C          16.5684   43.3381    7.3554 C.ar    1  UNL1        0.0578
     19 C          16.2339   42.1928    8.0830 C.ar    1  UNL1        0.0127
     20 C          14.9382   41.6725    8.0105 C.ar    1  UNL1        0.0156
     21 CL         18.1900   43.9897    7.4459 Cl      1  UNL1       -0.0822
     22 C           6.8631   41.6614   11.3856 C.2     1  UNL1        0.3421
     23 O           7.5187   41.4518   12.4427 O.2     1  UNL1       -0.2449
     24 O           5.4711   41.7628   11.4338 O.3     1  UNL1       -0.4454
     25 C           3.7630   40.4083   10.4379 C.3     1  UNL1        0.0513
     26 C           4.6414   40.6315   11.6511 C.3     1  UNL1        0.2089
@<TRIPOS>BOND
     1    25    26    1
     2    26    24    1
     3    22    24    1
     4    22     1    1
     5     2     7   ar
     6     3     2    1
     7     4    11    1
     8     9    12   am
     9    16    17   ar
    10    18    21    1
    11    18    19   ar
    12    20    15   ar
    13     5     1   ar
    14     6     5    1
    15     7     4   ar
    16    11     9   am
    17    12    15    1
    18    22    23    2
    19     1     2   ar
    20     4     5   ar
    21     9    10    2
    22    15    16   ar
    23    17    18   ar
    24    19    20   ar
    25     7     8    1
    26    11    13    1
    27    12    14    1
@<TRIPOS>MOLECULE
MolPort-002-455-707 ChemDiv-D039-0040 MCULE-7305721499 PubChem-959516 ZINC000000568499 ZINC00568499
 26 27 0 0 0
SMALL
GASTEIGER

@<TRIPOS>ATOM
      1 C           7.4902   41.2859    7.5415 C.ar    1  UNL1        0.0857
      2 C           7.4529   40.4572    6.4262 C.ar    1  UNL1        0.0408
      3 C           6.4000   39.4500    6.1151 C.3     1  UNL1        0.0500
      4 C           9.2309   41.6368    6.2263 C.ar    1  UNL1        0.1085
      5 C           8.6400   42.0423    7.4032 C.ar    1  UNL1        0.0153
      6 C           9.1572   43.0907    8.3293 C.3     1  UNL1        0.0342
      7 N           8.5139   40.6685    5.6210 N.ar    1  UNL1       -0.3451
      8 H           8.7207   40.2133    4.7729 H       1  UNL1        0.1668
      9 C          11.6812   42.2753    6.4375 C.2     1  UNL1        0.3092
     10 O          11.7508   41.8746    7.6309 O.2     1  UNL1       -0.2521
     11 N          10.4535   42.1750    5.7091 N.am    1  UNL1       -0.2551
     12 N          12.8263   42.8386    5.7853 N.am    1  UNL1       -0.2680
     13 H          10.4489   42.5012    4.7803 H       1  UNL1        0.1578
     14 H          12.7027   43.1312    4.8534 H       1  UNL1        0.1564
     15 C          14.1333   43.0209    6.3469 C.ar    1  UNL1        0.0516
     16 C          14.9473   44.1103    5.9994 C.ar    1  UNL1        0.0156
     17 C          16.2160   44.2548    6.5679 C.ar    1  UNL1        0.0127
     18 C          16.6800   43.3109    7.4877 C.ar    1  UNL1        0.0578
     19 C          15.8755   42.2235    7.8386 C.ar    1  UNL1        0.0127
     20 C          14.6065   42.0805    7.2691 C.ar    1  UNL1        0.0156
     21 CL         18.2683   43.4902    8.2002 Cl      1  UNL1       -0.0822
     22 C           6.5119   41.3503    8.6464 C.2     1  UNL1        0.3421
     23 O           5.3278   41.7225    8.4212 O.2     1  UNL1       -0.2449
     24 O           6.9005   40.9975    9.9405 O.3     1  UNL1       -0.4454
     25 C           7.8900   41.3799   12.0897 C.3     1  UNL1        0.0513
     26 C           7.0547   41.9635   10.9694 C.3     1  UNL1        0.2089
@<TRIPOS>BOND
     1    25    26    1
     2    26    24    1
     3    22    24    1
     4    22     1    1
     5     2     7   ar
     6     3     2    1
     7     4    11    1
     8     9    12   am
     9    16    17   ar
    10    18    21    1
    11    18    19   ar
    12    20    15   ar
    13     5     1   ar
    14     6     5    1
    15     7     4   ar
    16    11     9   am
    17    12    15    1
    18    22    23    2
    19     1     2   ar
    20     4     5   ar
    21     9    10    2
    22    15    16   ar
    23    17    18   ar
    24    19    20   ar
    25     7     8    1
    26    11    13    1
    27    12    14    1
@<TRIPOS>MOLECULE
MolPort-002-455-707 ChemDiv-D039-0040 MCULE-7305721499 PubChem-959516 ZINC000000568499 ZINC00568499
 26 27 0 0 0
SMALL
GASTEIGER

@<TRIPOS>ATOM
      1 C          13.6187   38.0482   10.2822 C.ar    1  UNL1        0.0857
      2 C          12.5878   37.1752    9.9547 C.ar    1  UNL1        0.0408
      3 C          12.4171   35.7863   10.4661 C.3     1  UNL1        0.0500
      4 C          12.2030   38.9793    8.8639 C.ar    1  UNL1        0.1085
      5 C          13.3615   39.2081    9.5740 C.ar    1  UNL1        0.0153
      6 C          14.1632   40.4657    9.5640 C.3     1  UNL1        0.0342
      7 N          11.7215   37.7401    9.0891 N.ar    1  UNL1       -0.3451
      8 H          10.9112   37.3346    8.7041 H       1  UNL1        0.1668
      9 C          10.3829   40.6549    8.2845 C.2     1  UNL1        0.3092
     10 O           9.7759   40.4719    9.3742 O.2     1  UNL1       -0.2521
     11 N          11.5860   39.9364    7.9948 N.am    1  UNL1       -0.2551
     12 N           9.8835   41.5839    7.3142 N.am    1  UNL1       -0.2680
     13 H          12.0238   40.1136    7.1310 H       1  UNL1        0.1578
     14 H          10.4062   41.6784    6.4852 H       1  UNL1        0.1564
     15 C           8.7026   42.3905    7.4233 C.ar    1  UNL1        0.0516
     16 C           8.4778   43.2361    8.5209 C.ar    1  UNL1        0.0156
     17 C           7.3144   44.0075    8.5925 C.ar    1  UNL1        0.0127
     18 C           6.3675   43.9390    7.5673 C.ar    1  UNL1        0.0578
     19 C           6.5843   43.0994    6.4715 C.ar    1  UNL1        0.0127
     20 C           7.7485   42.3283    6.4013 C.ar    1  UNL1        0.0156
     21 CL          4.9104   44.9042    7.6556 Cl      1  UNL1       -0.0822
     22 C          14.7539   37.7966   11.1933 C.2     1  UNL1        0.3421
     23 O          14.8119   38.3842   12.3080 O.2     1  UNL1       -0.2449
     24 O          15.7624   36.9064   10.8181 O.3     1  UNL1       -0.4454
     25 C          17.5454   38.4170   10.2861 C.3     1  UNL1        0.0513
     26 C          16.7225   37.2326    9.8244 C.3     1  UNL1        0.2089
@<TRIPOS>BOND
     1    25    26    1
     2    26    24    1
     3    22    24    1
     4    22     1    1
     5     2     7   ar
     6     3     2    1
     7     4    11    1
     8     9    12   am
     9    16    17   ar
    10    18    21    1
    11    18    19   ar
    12    20    15   ar
    13     5     1   ar
    14     6     5    1
    15     7     4   ar
    16    11     9   am
    17    12    15    1
    18    22    23    2
    19     1     2   ar
    20     4     5   ar
    21     9    10    2
    22    15    16   ar
    23    17    18   ar
    24    19    20   ar
    25     7     8    1
    26    11    13    1
    27    12    14    1
@<TRIPOS>MOLECULE
MolPort-002-455-707 ChemDiv-D039-0040 MCULE-7305721499 PubChem-959516 ZINC000000568499 ZINC00568499
 26 27 0 0 0
SMALL
GASTEIGER

@<TRIPOS>ATOM
      1 C          14.5474   42.3881    7.2117 C.ar    1  UNL1        0.0857
      2 C          13.9956   42.9758    6.0793 C.ar    1  UNL1        0.0408
      3 C          14.6829   43.9241    5.1584 C.3     1  UNL1        0.0500
      4 C          12.4566   41.7387    6.9122 C.ar    1  UNL1        0.1085
      5 C          13.5475   41.5926    7.7413 C.ar    1  UNL1        0.0153
      6 C          13.6131   40.7404    8.9635 C.3     1  UNL1        0.0342
      7 N          12.7193   42.5817    5.8932 N.ar    1  UNL1       -0.3451
      8 H          12.1100   42.8517    5.1686 H       1  UNL1        0.1668
      9 C          10.1414   41.5557    7.9429 C.2     1  UNL1        0.3092
     10 O          10.2686   42.6350    8.5819 O.2     1  UNL1       -0.2521
     11 N          11.2002   41.0788    7.1067 N.am    1  UNL1       -0.2551
     12 N           8.9373   40.7843    8.0388 N.am    1  UNL1       -0.2680
     13 H          11.0537   40.2312    6.6278 H       1  UNL1        0.1578
     14 H           8.9044   39.9522    7.5137 H       1  UNL1        0.1564
     15 C           7.7752   41.0967    8.8192 C.ar    1  UNL1        0.0516
     16 C           6.4878   41.1198    8.2606 C.ar    1  UNL1        0.0156
     17 C           5.3786   41.4288    9.0530 C.ar    1  UNL1        0.0127
     18 C           5.5488   41.7170   10.4095 C.ar    1  UNL1        0.0578
     19 C           6.8274   41.6961   10.9729 C.ar    1  UNL1        0.0127
     20 C           7.9360   41.3868   10.1789 C.ar    1  UNL1        0.0156
     21 CL          4.1610   42.1041   11.4030 Cl      1  UNL1       -0.0822
     22 C          15.9132   42.5707    7.7441 C.2     1  UNL1        0.3421
     23 O          16.5636   41.5773    8.1697 O.2     1  UNL1       -0.2449
     24 O          16.4828   43.8454    7.7744 O.3     1  UNL1       -0.4454
     25 C          17.9332   43.7980    5.8669 C.3     1  UNL1        0.0513
     26 C          17.8163   44.0838    7.3495 C.3     1  UNL1        0.2089
@<TRIPOS>BOND
     1    25    26    1
     2    26    24    1
     3    22    24    1
     4    22     1    1
     5     2     7   ar
     6     3     2    1
     7     4    11    1
     8     9    12   am
     9    16    17   ar
    10    18    21    1
    11    18    19   ar
    12    20    15   ar
    13     5     1   ar
    14     6     5    1
    15     7     4   ar
    16    11     9   am
    17    12    15    1
    18    22    23    2
    19     1     2   ar
    20     4     5   ar
    21     9    10    2
    22    15    16   ar
    23    17    18   ar
    24    19    20   ar
    25     7     8    1
    26    11    13    1
    27    12    14    1
@<TRIPOS>MOLECULE
MolPort-002-455-707 ChemDiv-D039-0040 MCULE-7305721499 PubChem-959516 ZINC000000568499 ZINC00568499
 26 27 0 0 0
SMALL
GASTEIGER

@<TRIPOS>ATOM
      1 C           6.8312   41.6576    9.2342 C.ar    1  UNL1        0.0857
      2 C           7.6236   41.4803   10.3624 C.ar    1  UNL1        0.0408
      3 C           7.1632   41.5441   11.7780 C.3     1  UNL1        0.0500
      4 C           8.9321   41.2550    8.6803 C.ar    1  UNL1        0.1085
      5 C           7.6840   41.5104    8.1553 C.ar    1  UNL1        0.0153
      6 C           7.3441   41.6059    6.7062 C.3     1  UNL1        0.0342
      7 N           8.9068   41.2343   10.0283 N.ar    1  UNL1       -0.3451
      8 H           9.6630   41.0740   10.6379 H       1  UNL1        0.1668
      9 C          11.3491   41.7349    8.0605 C.2     1  UNL1        0.3092
     10 O          11.4713   42.6181    8.9519 O.2     1  UNL1       -0.2521
     11 N          10.1101   41.0385    7.8945 N.am    1  UNL1       -0.2551
     12 N          12.4448   41.4092    7.1960 N.am    1  UNL1       -0.2680
     13 H          10.0636   40.3575    7.1850 H       1  UNL1        0.1578
     14 H          12.2813   40.7103    6.5222 H       1  UNL1        0.1564
     15 C          13.7543   41.9941    7.2090 C.ar    1  UNL1        0.0516
     16 C          14.7684   41.5293    8.0609 C.ar    1  UNL1        0.0156
     17 C          16.0329   42.1247    8.0454 C.ar    1  UNL1        0.0127
     18 C          16.2924   43.1890    7.1782 C.ar    1  UNL1        0.0578
     19 C          15.2878   43.6573    6.3272 C.ar    1  UNL1        0.0127
     20 C          14.0234   43.0607    6.3438 C.ar    1  UNL1        0.0156
     21 CL         17.8751   43.9356    7.1576 Cl      1  UNL1       -0.0822
     22 C           5.3827   41.9441    9.1894 C.2     1  UNL1        0.3421
     23 O           4.5664   41.0291    8.8930 O.2     1  UNL1       -0.2449
     24 O           4.9192   43.2297    9.4764 O.3     1  UNL1       -0.4454
     25 C           4.5825   44.7666    7.6684 C.3     1  UNL1        0.0513
     26 C           3.9222   43.8632    8.6889 C.3     1  UNL1        0.2089
@<TRIPOS>BOND
     1    25    26    1
     2    26    24    1
     3    22    24    1
     4    22     1    1
     5     2     7   ar
     6     3     2    1
     7     4    11    1
     8     9    12   am
     9    16    17   ar
    10    18    21    1
    11    18    19   ar
    12    20    15   ar
    13     5     1   ar
    14     6     5    1
    15     7     4   ar
    16    11     9   am
    17    12    15    1
    18    22    23    2
    19     1     2   ar
    20     4     5   ar
    21     9    10    2
    22    15    16   ar
    23    17    18   ar
    24    19    20   ar
    25     7     8    1
    26    11    13    1
    27    12    14    1
@<TRIPOS>MOLECULE
MolPort-002-455-707 ChemDiv-D039-0040 MCULE-7305721499 PubChem-959516 ZINC000000568499 ZINC00568499
 26 27 0 0 0
SMALL
GASTEIGER

@<TRIPOS>ATOM
      1 C           7.3945   40.9849    8.2836 C.ar    1  UNL1        0.0857
      2 C           7.4949   40.1804    7.1545 C.ar    1  UNL1        0.0408
      3 C           6.3850   39.8298    6.2244 C.3     1  UNL1        0.0500
      4 C           9.4605   40.2519    8.0052 C.ar    1  UNL1        0.1085
      5 C           8.6668   41.0247    8.8248 C.ar    1  UNL1        0.0153
      6 C           9.1134   41.7501   10.0490 C.3     1  UNL1        0.0342
      7 N           8.7546   39.7311    6.9812 N.ar    1  UNL1       -0.3451
      8 H           9.0874   39.1478    6.2614 H       1  UNL1        0.1668
      9 C          11.8949   40.9762    7.9326 C.2     1  UNL1        0.3092
     10 O          11.6115   42.1121    7.4649 O.2     1  UNL1       -0.2521
     11 N          10.8600   40.0285    8.2132 N.am    1  UNL1       -0.2551
     12 N          13.2556   40.6092    8.1933 N.am    1  UNL1       -0.2680
     13 H          11.1310   39.1550    8.5776 H       1  UNL1        0.1578
     14 H          13.4063   39.7074    8.5583 H       1  UNL1        0.1564
     15 C          14.4209   41.4172    7.9784 C.ar    1  UNL1        0.0516
     16 C          15.5971   41.2399    8.7235 C.ar    1  UNL1        0.0156
     17 C          16.7132   42.0470    8.4856 C.ar    1  UNL1        0.0127
     18 C          16.6612   43.0372    7.5012 C.ar    1  UNL1        0.0578
     19 C          15.4937   43.2197    6.7553 C.ar    1  UNL1        0.0127
     20 C          14.3781   42.4116    6.9945 C.ar    1  UNL1        0.0156
     21 CL         18.0578   44.0485    7.2022 Cl      1  UNL1       -0.0822
     22 C           6.1866   41.6581    8.8029 C.2     1  UNL1        0.3421
     23 O           5.9742   42.8719    8.5328 O.2     1  UNL1       -0.2449
     24 O           5.2801   40.9478    9.5927 O.3     1  UNL1       -0.4454
     25 C           4.0296   40.3271   11.5409 C.3     1  UNL1        0.0513
     26 C           4.9900   41.3261   10.9301 C.3     1  UNL1        0.2089
@<TRIPOS>BOND
     1    25    26    1
     2    26    24    1
     3    22    24    1
     4    22     1    1
     5     2     7   ar
     6     3     2    1
     7     4    11    1
     8     9    12   am
     9    16    17   ar
    10    18    21    1
    11    18    19   ar
    12    20    15   ar
    13     5     1   ar
    14     6     5    1
    15     7     4   ar
    16    11     9   am
    17    12    15    1
    18    22    23    2
    19     1     2   ar
    20     4     5   ar
    21     9    10    2
    22    15    16   ar
    23    17    18   ar
    24    19    20   ar
    25     7     8    1
    26    11    13    1
    27    12    14    1
