@<TRIPOS>MOLECULE
MolPort-047-015-567 MCULE-9450906358 PubChem-110095388
 26 28 0 0 0
SMALL
GASTEIGER

@<TRIPOS>ATOM
      1 C           8.7209   39.3259    5.5325 C.3     1  UNL1        0.0522
      2 C           9.9034   39.8584    6.2577 C.ar    1  UNL1        0.0635
      3 C          10.6485   40.8986    5.7067 C.ar    1  UNL1        0.0492
      4 C          11.7565   41.3794    6.4127 C.ar    1  UNL1        0.1361
      5 C          11.3382   39.8069    8.1360 C.ar    1  UNL1        0.1411
      6 N          12.0745   40.8216    7.6109 N.ar    1  UNL1       -0.2159
      7 N          10.2581   39.3317    7.4577 N.ar    1  UNL1       -0.2349
      8 C          11.7238   39.2250    9.4555 C.3     1  UNL1        0.0746
      9 C          12.8997   39.9923   10.0581 C.3     1  UNL1        0.0104
     10 C          13.3578   39.3273   11.3521 C.3     1  UNL1        0.0178
     11 C          13.6449   37.8501   11.0931 C.3     1  UNL1        0.0722
     12 C          12.0870   37.7470    9.3064 C.3     1  UNL1        0.0797
     13 N          12.4362   37.1837   10.6109 N.3     1  UNL1       -0.2702
     14 C          12.7866   35.7894   10.3937 C.3     1  UNL1        0.1042
     15 C          14.0505   35.6888    9.5564 C.3     1  UNL1        0.1544
     16 O          14.0871   34.4597    8.8980 O.3     1  UNL1       -0.3805
     17 H          14.0812   33.7426    9.5512 H       1  UNL1        0.2105
     18 N          12.5689   42.4472    5.9070 N.pl3   1  UNL1       -0.2781
     19 H          12.1587   43.0320    5.2296 H       1  UNL1        0.1555
     20 C          13.9165   42.7498    6.2872 C.ar    1  UNL1        0.1639
     21 C          15.8408   42.6310    7.4300 C.ar    1  UNL1        0.0633
     22 C          16.1789   43.6290    6.5209 C.ar    1  UNL1        0.0238
     23 C          17.4837   44.3410    6.4324 C.3     1  UNL1        0.0395
     24 C          16.7691   42.1197    8.4760 C.3     1  UNL1        0.0524
     25 N          14.5795   42.1429    7.2977 N.ar    1  UNL1       -0.2286
     26 S          14.8588   43.9111    5.5183 S.2     1  UNL1       -0.0561
@<TRIPOS>BOND
     1     1     2    1
     2     2     7   ar
     3     3     4   ar
     4     4    18    1
     5     5     6   ar
     6     8     5    1
     7     8     9    1
     8     9    10    1
     9    10    11    1
    10    11    13    1
    11    12    13    1
    12    12     8    1
    13    14    13    1
    14    14    15    1
    15    15    16    1
    16    20    26   ar
    17    21    25   ar
    18    22    26   ar
    19    23    22    1
    20    24    21    1
    21    18    20    1
    22     2     3   ar
    23     4     6   ar
    24     5     7   ar
    25    20    25   ar
    26    21    22   ar
    27    18    19    1
    28    16    17    1
@<TRIPOS>MOLECULE
MolPort-047-015-567 MCULE-9450906358 PubChem-110095388
 26 28 0 0 0
SMALL
GASTEIGER

@<TRIPOS>ATOM
      1 C          14.8472   44.1594    5.8270 C.3     1  UNL1        0.0522
      2 C          14.0692   43.0079    6.3527 C.ar    1  UNL1        0.0635
      3 C          14.6147   42.1915    7.3410 C.ar    1  UNL1        0.0492
      4 C          13.8585   41.1148    7.8167 C.ar    1  UNL1        0.1361
      5 C          12.0994   41.7006    6.3401 C.ar    1  UNL1        0.1411
      6 N          12.6186   40.8956    7.3045 N.ar    1  UNL1       -0.2159
      7 N          12.8264   42.7509    5.8704 N.ar    1  UNL1       -0.2349
      8 C          10.7330   41.4227    5.8072 C.3     1  UNL1        0.0746
      9 C           9.7961   40.9857    6.9324 C.3     1  UNL1        0.0104
     10 C           8.4334   40.5996    6.3661 C.3     1  UNL1        0.0178
     11 C           8.6147   39.5564    5.2660 C.3     1  UNL1        0.0722
     12 C          10.7867   40.3437    4.7249 C.3     1  UNL1        0.0797
     13 N           9.4453   40.1014    4.1932 N.3     1  UNL1       -0.2702
     14 C           9.5666   39.0578    3.1881 C.3     1  UNL1        0.1042
     15 C          10.0314   37.7612    3.8293 C.3     1  UNL1        0.1544
     16 O           9.5343   36.6724    3.1130 O.3     1  UNL1       -0.3805
     17 H           8.5646   36.6986    3.1167 H       1  UNL1        0.2105
     18 N          14.3555   40.2333    8.8324 N.pl3   1  UNL1       -0.2781
     19 H          15.1075   40.5636    9.3752 H       1  UNL1        0.1555
     20 C          13.8692   38.9208    9.1379 C.ar    1  UNL1        0.1639
     21 C          12.4232   37.3160    9.7350 C.ar    1  UNL1        0.0633
     22 C          13.5596   36.5362    9.5422 C.ar    1  UNL1        0.0238
     23 C          13.6608   35.0607    9.7156 C.3     1  UNL1        0.0395
     24 C          11.1059   36.7637   10.1557 C.3     1  UNL1        0.0524
     25 N          12.5985   38.6445    9.5091 N.ar    1  UNL1       -0.2286
     26 S          14.8254   37.5390    9.0740 S.2     1  UNL1       -0.0561
@<TRIPOS>BOND
     1     1     2    1
     2     2     7   ar
     3     3     4   ar
     4     4    18    1
     5     5     6   ar
     6     8     5    1
     7     8     9    1
     8     9    10    1
     9    10    11    1
    10    11    13    1
    11    12    13    1
    12    12     8    1
    13    14    13    1
    14    14    15    1
    15    15    16    1
    16    20    26   ar
    17    21    25   ar
    18    22    26   ar
    19    23    22    1
    20    24    21    1
    21    18    20    1
    22     2     3   ar
    23     4     6   ar
    24     5     7   ar
    25    20    25   ar
    26    21    22   ar
    27    18    19    1
    28    16    17    1
@<TRIPOS>MOLECULE
MolPort-047-015-567 MCULE-9450906358 PubChem-110095388
 26 28 0 0 0
SMALL
GASTEIGER

@<TRIPOS>ATOM
      1 C          10.5490   40.6833    4.6135 C.3     1  UNL1        0.0522
      2 C          11.2591   41.0085    5.8775 C.ar    1  UNL1        0.0635
      3 C          10.9268   40.3419    7.0548 C.ar    1  UNL1        0.0492
      4 C          11.6128   40.6694    8.2293 C.ar    1  UNL1        0.1361
      5 C          12.8932   42.2662    7.0340 C.ar    1  UNL1        0.1411
      6 N          12.5799   41.6240    8.1903 N.ar    1  UNL1       -0.2159
      7 N          12.2322   41.9552    5.8856 N.ar    1  UNL1       -0.2349
      8 C          13.9629   43.3073    7.0377 C.3     1  UNL1        0.0746
      9 C          14.0214   44.0223    5.6886 C.3     1  UNL1        0.0104
     10 C          15.1852   45.0080    5.6624 C.3     1  UNL1        0.0178
     11 C          16.4756   44.2844    6.0404 C.3     1  UNL1        0.0722
     12 C          15.3217   42.6817    7.3555 C.3     1  UNL1        0.0797
     13 N          16.3550   43.7171    7.3826 N.3     1  UNL1       -0.2702
     14 C          17.6165   43.0538    7.6703 C.3     1  UNL1        0.1042
     15 C          17.4351   42.0401    8.7875 C.3     1  UNL1        0.1544
     16 O          18.2908   40.9566    8.5889 O.3     1  UNL1       -0.3805
     17 H          18.0856   40.5339    7.7403 H       1  UNL1        0.2105
     18 N          11.3243   40.0247    9.4771 N.pl3   1  UNL1       -0.2781
     19 H          10.6638   40.4648   10.0597 H       1  UNL1        0.1555
     20 C          11.8990   38.8055    9.9624 C.ar    1  UNL1        0.1639
     21 C          13.3539   37.4479   10.9934 C.ar    1  UNL1        0.0633
     22 C          12.4361   36.5006   10.5494 C.ar    1  UNL1        0.0238
     23 C          12.5099   35.0286   10.7623 C.3     1  UNL1        0.0395
     24 C          14.5788   37.1088   11.7693 C.3     1  UNL1        0.0524
     25 N          13.0522   38.7315   10.6648 N.ar    1  UNL1       -0.2286
     26 S          11.2070   37.2923    9.7191 S.2     1  UNL1       -0.0561
@<TRIPOS>BOND
     1     1     2    1
     2     2     7   ar
     3     3     4   ar
     4     4    18    1
     5     5     6   ar
     6     8     5    1
     7     8     9    1
     8     9    10    1
     9    10    11    1
    10    11    13    1
    11    12    13    1
    12    12     8    1
    13    14    13    1
    14    14    15    1
    15    15    16    1
    16    20    26   ar
    17    21    25   ar
    18    22    26   ar
    19    23    22    1
    20    24    21    1
    21    18    20    1
    22     2     3   ar
    23     4     6   ar
    24     5     7   ar
    25    20    25   ar
    26    21    22   ar
    27    18    19    1
    28    16    17    1
@<TRIPOS>MOLECULE
MolPort-047-015-567 MCULE-9450906358 PubChem-110095388
 26 28 0 0 0
SMALL
GASTEIGER

@<TRIPOS>ATOM
      1 C          16.4008   43.6875    7.0498 C.3     1  UNL1        0.0522
      2 C          15.2102   42.8092    7.1859 C.ar    1  UNL1        0.0635
      3 C          14.0811   43.0398    6.4031 C.ar    1  UNL1        0.0492
      4 C          12.9752   42.1961    6.5532 C.ar    1  UNL1        0.1361
      5 C          14.1405   40.9669    8.2111 C.ar    1  UNL1        0.1411
      6 N          13.0319   41.1796    7.4539 N.ar    1  UNL1       -0.2159
      7 N          15.2220   41.7815    8.0730 N.ar    1  UNL1       -0.2349
      8 C          14.1587   39.8377    9.1873 C.3     1  UNL1        0.0746
      9 C          13.2508   40.1422   10.3780 C.3     1  UNL1        0.0104
     10 C          13.3575   39.0347   11.4214 C.3     1  UNL1        0.0178
     11 C          14.8232   38.8234   11.7936 C.3     1  UNL1        0.0722
     12 C          15.5836   39.5694    9.6733 C.3     1  UNL1        0.0797
     13 N          15.5896   38.4436   10.6078 N.3     1  UNL1       -0.2702
     14 C          16.9646   38.2564   11.0418 C.3     1  UNL1        0.1042
     15 C          17.7452   39.5512   10.8897 C.3     1  UNL1        0.1544
     16 O          19.0705   39.2702   10.5576 O.3     1  UNL1       -0.3805
     17 H          19.4739   38.7371   11.2604 H       1  UNL1        0.2105
     18 N          11.7799   42.3734    5.7814 N.pl3   1  UNL1       -0.2781
     19 H          11.6695   43.2415    5.3304 H       1  UNL1        0.1555
     20 C          10.7298   41.4160    5.5997 C.ar    1  UNL1        0.1639
     21 C           9.5878   39.7166    4.6882 C.ar    1  UNL1        0.0633
     22 C           8.7262   40.0327    5.7344 C.ar    1  UNL1        0.0238
     23 C           7.4377   39.3586    6.0547 C.3     1  UNL1        0.0395
     24 C           9.3315   38.6228    3.7108 C.3     1  UNL1        0.0524
     25 N          10.7035   40.4890    4.6154 N.ar    1  UNL1       -0.2286
     26 S           9.3794   41.3196    6.5972 S.2     1  UNL1       -0.0561
@<TRIPOS>BOND
     1     1     2    1
     2     2     7   ar
     3     3     4   ar
     4     4    18    1
     5     5     6   ar
     6     8     5    1
     7     8     9    1
     8     9    10    1
     9    10    11    1
    10    11    13    1
    11    12    13    1
    12    12     8    1
    13    14    13    1
    14    14    15    1
    15    15    16    1
    16    20    26   ar
    17    21    25   ar
    18    22    26   ar
    19    23    22    1
    20    24    21    1
    21    18    20    1
    22     2     3   ar
    23     4     6   ar
    24     5     7   ar
    25    20    25   ar
    26    21    22   ar
    27    18    19    1
    28    16    17    1
@<TRIPOS>MOLECULE
MolPort-047-015-567 MCULE-9450906358 PubChem-110095388
 26 28 0 0 0
SMALL
GASTEIGER

@<TRIPOS>ATOM
      1 C          11.9811   36.4652   10.2724 C.3     1  UNL1        0.0522
      2 C          12.1883   37.7533    9.5615 C.ar    1  UNL1        0.0635
      3 C          13.3679   38.4706    9.7485 C.ar    1  UNL1        0.0492
      4 C          13.5348   39.6802    9.0656 C.ar    1  UNL1        0.1361
      5 C          11.4010   39.4099    8.0697 C.ar    1  UNL1        0.1411
      6 N          12.5467   40.1205    8.2422 N.ar    1  UNL1       -0.2159
      7 N          11.2284   38.2318    8.7291 N.ar    1  UNL1       -0.2349
      8 C          10.3430   39.9314    7.1549 C.3     1  UNL1        0.0746
      9 C           8.9573   39.5061    7.6383 C.3     1  UNL1        0.0104
     10 C           7.8904   39.9493    6.6423 C.3     1  UNL1        0.0178
     11 C           8.2485   39.4371    5.2490 C.3     1  UNL1        0.0722
     12 C          10.5726   39.4336    5.7273 C.3     1  UNL1        0.0797
     13 N           9.5446   39.9744    4.8376 N.3     1  UNL1       -0.2702
     14 C           9.8112   39.4490    3.5083 C.3     1  UNL1        0.1042
     15 C          10.2854   38.0082    3.5973 C.3     1  UNL1        0.1544
     16 O           9.3056   37.1539    3.0915 O.3     1  UNL1       -0.3805
     17 H           8.4916   37.2528    3.6097 H       1  UNL1        0.2105
     18 N          14.7220   40.4711    9.2095 N.pl3   1  UNL1       -0.2781
     19 H          15.2849   40.2846    9.9954 H       1  UNL1        0.1555
     20 C          15.1726   41.5051    8.3262 C.ar    1  UNL1        0.1639
     21 C          15.1043   43.0138    6.6703 C.ar    1  UNL1        0.0633
     22 C          16.4086   43.2193    7.1099 C.ar    1  UNL1        0.0238
     23 C          17.3863   44.1960    6.5552 C.3     1  UNL1        0.0395
     24 C          14.4846   43.7683    5.5459 C.3     1  UNL1        0.0524
     25 N          14.4177   42.0580    7.3499 N.ar    1  UNL1       -0.2286
     26 S          16.7147   42.1726    8.3897 S.2     1  UNL1       -0.0561
@<TRIPOS>BOND
     1     1     2    1
     2     2     7   ar
     3     3     4   ar
     4     4    18    1
     5     5     6   ar
     6     8     5    1
     7     8     9    1
     8     9    10    1
     9    10    11    1
    10    11    13    1
    11    12    13    1
    12    12     8    1
    13    14    13    1
    14    14    15    1
    15    15    16    1
    16    20    26   ar
    17    21    25   ar
    18    22    26   ar
    19    23    22    1
    20    24    21    1
    21    18    20    1
    22     2     3   ar
    23     4     6   ar
    24     5     7   ar
    25    20    25   ar
    26    21    22   ar
    27    18    19    1
    28    16    17    1
@<TRIPOS>MOLECULE
MolPort-047-015-567 MCULE-9450906358 PubChem-110095388
 26 28 0 0 0
SMALL
GASTEIGER

@<TRIPOS>ATOM
      1 C          10.9030   40.9060   11.5172 C.3     1  UNL1        0.0522
      2 C          10.5339   41.2894   10.1299 C.ar    1  UNL1        0.0635
      3 C          11.5140   41.3602    9.1424 C.ar    1  UNL1        0.0492
      4 C          11.1364   41.7238    7.8453 C.ar    1  UNL1        0.1361
      5 C           8.8851   41.9238    8.5588 C.ar    1  UNL1        0.1411
      6 N           9.8304   41.9968    7.5849 N.ar    1  UNL1       -0.2159
      7 N           9.2414   41.5708    9.8241 N.ar    1  UNL1       -0.2349
      8 C           7.4625   42.2314    8.2273 C.3     1  UNL1        0.0746
      9 C           7.2070   43.7361    8.3006 C.3     1  UNL1        0.0104
     10 C           5.7293   44.0338    8.0674 C.3     1  UNL1        0.0178
     11 C           4.8836   43.2104    9.0361 C.3     1  UNL1        0.0722
     12 C           6.5171   41.4952    9.1774 C.3     1  UNL1        0.0797
     13 N           5.1272   41.7845    8.8236 N.3     1  UNL1       -0.2702
     14 C           4.2878   41.0716    9.7730 C.3     1  UNL1        0.1042
     15 C           2.8527   41.5617    9.6780 C.3     1  UNL1        0.1544
     16 O           2.2214   40.9723    8.5827 O.3     1  UNL1       -0.3805
     17 H           2.6932   41.2123    7.7699 H       1  UNL1        0.2105
     18 N          12.0906   41.8170    6.7792 N.pl3   1  UNL1       -0.2781
     19 H          11.7952   41.5059    5.8930 H       1  UNL1        0.1555
     20 C          13.4301   42.3166    6.8719 C.ar    1  UNL1        0.1639
     21 C          15.5616   42.4646    7.5484 C.ar    1  UNL1        0.0633
     22 C          15.5311   43.5361    6.6608 C.ar    1  UNL1        0.0238
     23 C          16.6613   44.4497    6.3366 C.3     1  UNL1        0.0395
     24 C          16.7704   42.0702    8.3234 C.3     1  UNL1        0.0524
     25 N          14.3895   41.7868    7.6643 N.ar    1  UNL1       -0.2286
     26 S          13.9891   43.6404    5.9986 S.2     1  UNL1       -0.0561
@<TRIPOS>BOND
     1     1     2    1
     2     2     7   ar
     3     3     4   ar
     4     4    18    1
     5     5     6   ar
     6     8     5    1
     7     8     9    1
     8     9    10    1
     9    10    11    1
    10    11    13    1
    11    12    13    1
    12    12     8    1
    13    14    13    1
    14    14    15    1
    15    15    16    1
    16    20    26   ar
    17    21    25   ar
    18    22    26   ar
    19    23    22    1
    20    24    21    1
    21    18    20    1
    22     2     3   ar
    23     4     6   ar
    24     5     7   ar
    25    20    25   ar
    26    21    22   ar
    27    18    19    1
    28    16    17    1
@<TRIPOS>MOLECULE
MolPort-047-015-567 MCULE-9450906358 PubChem-110095388
 26 28 0 0 0
SMALL
GASTEIGER

@<TRIPOS>ATOM
      1 C          16.5516   43.7172    7.0047 C.3     1  UNL1        0.0522
      2 C          15.3953   42.8038    7.1949 C.ar    1  UNL1        0.0635
      3 C          14.2290   42.9930    6.4567 C.ar    1  UNL1        0.0492
      4 C          13.1568   42.1170    6.6573 C.ar    1  UNL1        0.1361
      5 C          14.4255   40.9379    8.2754 C.ar    1  UNL1        0.1411
      6 N          13.2813   41.1101    7.5621 N.ar    1  UNL1       -0.2159
      7 N          15.4747   41.7843    8.0880 N.ar    1  UNL1       -0.2349
      8 C          14.5180   39.8180    9.2580 C.3     1  UNL1        0.0746
      9 C          13.5028   40.0062   10.3843 C.3     1  UNL1        0.0104
     10 C          13.6758   38.9185   11.4396 C.3     1  UNL1        0.0178
     11 C          15.1285   38.8889   11.9088 C.3     1  UNL1        0.0722
     12 C          15.9298   39.7265    9.8384 C.3     1  UNL1        0.0797
     13 N          16.0126   38.6084   10.7785 N.3     1  UNL1       -0.2702
     14 C          17.3685   38.5915   11.3033 C.3     1  UNL1        0.1042
     15 C          18.3733   38.5618   10.1639 C.3     1  UNL1        0.1544
     16 O          19.4962   39.3173   10.5015 O.3     1  UNL1       -0.3805
     17 H          19.2304   40.2355   10.6665 H       1  UNL1        0.2105
     18 N          11.9266   42.2510    5.9332 N.pl3   1  UNL1       -0.2781
     19 H          11.9494   42.8086    5.1222 H       1  UNL1        0.1555
     20 C          10.6675   41.6561    6.2697 C.ar    1  UNL1        0.1639
     21 C           8.8172   41.2128    7.4540 C.ar    1  UNL1        0.0633
     22 C           8.5893   40.3838    6.3598 C.ar    1  UNL1        0.0238
     23 C           7.4102   39.4988    6.1498 C.3     1  UNL1        0.0395
     24 C           7.8812   41.3338    8.6059 C.3     1  UNL1        0.0524
     25 N           9.9760   41.9206    7.4013 N.ar    1  UNL1       -0.2286
     26 S           9.8778   40.5399    5.2908 S.2     1  UNL1       -0.0561
@<TRIPOS>BOND
     1     1     2    1
     2     2     7   ar
     3     3     4   ar
     4     4    18    1
     5     5     6   ar
     6     8     5    1
     7     8     9    1
     8     9    10    1
     9    10    11    1
    10    11    13    1
    11    12    13    1
    12    12     8    1
    13    14    13    1
    14    14    15    1
    15    15    16    1
    16    20    26   ar
    17    21    25   ar
    18    22    26   ar
    19    23    22    1
    20    24    21    1
    21    18    20    1
    22     2     3   ar
    23     4     6   ar
    24     5     7   ar
    25    20    25   ar
    26    21    22   ar
    27    18    19    1
    28    16    17    1
@<TRIPOS>MOLECULE
MolPort-047-015-567 MCULE-9450906358 PubChem-110095388
 26 28 0 0 0
SMALL
GASTEIGER

@<TRIPOS>ATOM
      1 C          14.9082   44.3391    5.4618 C.3     1  UNL1        0.0522
      2 C          14.7916   43.2673    6.4842 C.ar    1  UNL1        0.0635
      3 C          15.9121   42.8744    7.2128 C.ar    1  UNL1        0.0492
      4 C          15.7717   41.8627    8.1689 C.ar    1  UNL1        0.1361
      5 C          13.4675   41.6871    7.6415 C.ar    1  UNL1        0.1411
      6 N          14.5521   41.2935    8.3601 N.ar    1  UNL1       -0.2159
      7 N          13.5930   42.6706    6.7091 N.ar    1  UNL1       -0.2349
      8 C          12.1474   41.0346    7.8857 C.3     1  UNL1        0.0746
      9 C          12.3378   39.5798    8.3122 C.3     1  UNL1        0.0104
     10 C          10.9854   38.8889    8.4548 C.3     1  UNL1        0.0178
     11 C          10.1860   39.0605    7.1651 C.3     1  UNL1        0.0722
     12 C          11.2745   41.1003    6.6317 C.3     1  UNL1        0.0797
     13 N           9.9748   40.4816    6.8941 N.3     1  UNL1       -0.2702
     14 C           9.2073   40.5619    5.6618 C.3     1  UNL1        0.1042
     15 C           9.7326   39.5589    4.6485 C.3     1  UNL1        0.1544
     16 O           8.6721   38.8346    4.1039 O.3     1  UNL1       -0.3805
     17 H           8.2089   38.3587    4.8109 H       1  UNL1        0.2105
     18 N          16.8807   41.4077    8.9554 N.pl3   1  UNL1       -0.2781
     19 H          17.6675   41.9984    8.9936 H       1  UNL1        0.1555
     20 C          16.9608   40.1813    9.6915 C.ar    1  UNL1        0.1639
     21 C          16.2893   38.4566   10.9554 C.ar    1  UNL1        0.0633
     22 C          17.6246   38.1045   10.7833 C.ar    1  UNL1        0.0238
     23 C          18.2999   36.8969   11.3338 C.3     1  UNL1        0.0395
     24 C          15.3176   37.6464   11.7408 C.3     1  UNL1        0.0524
     25 N          15.9220   39.6144   10.3459 N.ar    1  UNL1       -0.2286
     26 S          18.3715   39.2780    9.8387 S.2     1  UNL1       -0.0561
@<TRIPOS>BOND
     1     1     2    1
     2     2     7   ar
     3     3     4   ar
     4     4    18    1
     5     5     6   ar
     6     8     5    1
     7     8     9    1
     8     9    10    1
     9    10    11    1
    10    11    13    1
    11    12    13    1
    12    12     8    1
    13    14    13    1
    14    14    15    1
    15    15    16    1
    16    20    26   ar
    17    21    25   ar
    18    22    26   ar
    19    23    22    1
    20    24    21    1
    21    18    20    1
    22     2     3   ar
    23     4     6   ar
    24     5     7   ar
    25    20    25   ar
    26    21    22   ar
    27    18    19    1
    28    16    17    1
@<TRIPOS>MOLECULE
MolPort-047-015-567 MCULE-9450906358 PubChem-110095388
 26 28 0 0 0
SMALL
GASTEIGER

@<TRIPOS>ATOM
      1 C           9.5283   38.7830    3.4384 C.3     1  UNL1        0.0522
      2 C           9.5212   39.5816    4.6913 C.ar    1  UNL1        0.0635
      3 C          10.6690   39.6548    5.4774 C.ar    1  UNL1        0.0492
      4 C          10.6324   40.4146    6.6516 C.ar    1  UNL1        0.1361
      5 C           8.3716   40.9767    6.2149 C.ar    1  UNL1        0.1411
      6 N           9.4839   41.0575    6.9919 N.ar    1  UNL1       -0.2159
      7 N           8.3963   40.2404    5.0705 N.ar    1  UNL1       -0.2349
      8 C           7.1325   41.7000    6.6272 C.3     1  UNL1        0.0746
      9 C           7.4125   43.1926    6.7953 C.3     1  UNL1        0.0104
     10 C           6.1718   43.9077    7.3205 C.3     1  UNL1        0.0178
     11 C           5.6853   43.2179    8.5930 C.3     1  UNL1        0.0722
     12 C           6.5813   41.1227    7.9316 C.3     1  UNL1        0.0797
     13 N           5.3530   41.8228    8.3087 N.3     1  UNL1       -0.2702
     14 C           4.8960   41.2393    9.5596 C.3     1  UNL1        0.1042
     15 C           3.3794   41.2869    9.6393 C.3     1  UNL1        0.1544
     16 O           2.8987   42.3648    8.8959 O.3     1  UNL1       -0.3805
     17 H           3.2613   43.1909    9.2524 H       1  UNL1        0.2105
     18 N          11.7752   40.5352    7.5090 N.pl3   1  UNL1       -0.2781
     19 H          11.7716   39.9913    8.3296 H       1  UNL1        0.1555
     20 C          12.9219   41.3665    7.2933 C.ar    1  UNL1        0.1639
     21 C          14.1929   42.9792    6.3952 C.ar    1  UNL1        0.0633
     22 C          15.0934   42.4752    7.3290 C.ar    1  UNL1        0.0238
     23 C          16.4820   42.9561    7.5691 C.3     1  UNL1        0.0395
     24 C          14.5044   44.1082    5.4755 C.3     1  UNL1        0.0524
     25 N          12.9836   42.3596    6.3774 N.ar    1  UNL1       -0.2286
     26 S          14.3548   41.2137    8.1600 S.2     1  UNL1       -0.0561
@<TRIPOS>BOND
     1     1     2    1
     2     2     7   ar
     3     3     4   ar
     4     4    18    1
     5     5     6   ar
     6     8     5    1
     7     8     9    1
     8     9    10    1
     9    10    11    1
    10    11    13    1
    11    12    13    1
    12    12     8    1
    13    14    13    1
    14    14    15    1
    15    15    16    1
    16    20    26   ar
    17    21    25   ar
    18    22    26   ar
    19    23    22    1
    20    24    21    1
    21    18    20    1
    22     2     3   ar
    23     4     6   ar
    24     5     7   ar
    25    20    25   ar
    26    21    22   ar
    27    18    19    1
    28    16    17    1
@<TRIPOS>MOLECULE
MolPort-047-015-567 MCULE-9450906358 PubChem-110095388
 26 28 0 0 0
SMALL
GASTEIGER

@<TRIPOS>ATOM
      1 C          17.3255   44.1626    6.8481 C.3     1  UNL1        0.0522
      2 C          16.2541   43.1906    7.1873 C.ar    1  UNL1        0.0635
      3 C          15.0609   43.1897    6.4683 C.ar    1  UNL1        0.0492
      4 C          14.0705   42.2627    6.8104 C.ar    1  UNL1        0.1361
      5 C          15.4674   41.4052    8.5225 C.ar    1  UNL1        0.1411
      6 N          14.2980   41.3924    7.8297 N.ar    1  UNL1       -0.2159
      7 N          16.4377   42.3027    8.1979 N.ar    1  UNL1       -0.2349
      8 C          15.6742   40.4304    9.6339 C.3     1  UNL1        0.0746
      9 C          17.1650   40.2312    9.9035 C.3     1  UNL1        0.0104
     10 C          17.3715   39.1551   10.9645 C.3     1  UNL1        0.0178
     11 C          16.6379   37.8817   10.5498 C.3     1  UNL1        0.0722
     12 C          15.0207   39.0884    9.3013 C.3     1  UNL1        0.0797
     13 N          15.2079   38.1525   10.4103 N.3     1  UNL1       -0.2702
     14 C          14.5818   36.8991   10.0213 C.3     1  UNL1        0.1042
     15 C          14.1948   36.9379    8.5525 C.3     1  UNL1        0.1544
     16 O          14.6094   35.7652    7.9213 O.3     1  UNL1       -0.3805
     17 H          15.5732   35.6825    7.9935 H       1  UNL1        0.2105
     18 N          12.8183   42.2039    6.1144 N.pl3   1  UNL1       -0.2781
     19 H          12.7601   42.7009    5.2665 H       1  UNL1        0.1555
     20 C          11.6433   41.4957    6.5270 C.ar    1  UNL1        0.1639
     21 C           9.8226   40.9954    7.7342 C.ar    1  UNL1        0.0633
     22 C           9.7672   39.9628    6.8029 C.ar    1  UNL1        0.0238
     23 C           8.7384   38.8886    6.7320 C.3     1  UNL1        0.0395
     24 C           8.8263   41.1750    8.8263 C.3     1  UNL1        0.0524
     25 N          10.8691   41.8482    7.5783 N.ar    1  UNL1       -0.2286
     26 S          11.0684   40.1200    5.7496 S.2     1  UNL1       -0.0561
@<TRIPOS>BOND
     1     1     2    1
     2     2     7   ar
     3     3     4   ar
     4     4    18    1
     5     5     6   ar
     6     8     5    1
     7     8     9    1
     8     9    10    1
     9    10    11    1
    10    11    13    1
    11    12    13    1
    12    12     8    1
    13    14    13    1
    14    14    15    1
    15    15    16    1
    16    20    26   ar
    17    21    25   ar
    18    22    26   ar
    19    23    22    1
    20    24    21    1
    21    18    20    1
    22     2     3   ar
    23     4     6   ar
    24     5     7   ar
    25    20    25   ar
    26    21    22   ar
    27    18    19    1
    28    16    17    1
