@<TRIPOS>MOLECULE
MolPort-047-015-575 MCULE-1091549304 PubChem-110095393
 25 27 0 0 0
SMALL
GASTEIGER

@<TRIPOS>ATOM
      1 C          16.5951   43.8568    7.1292 C.3     1  UNL1        0.0522
      2 C          15.4216   42.9534    7.2493 C.ar    1  UNL1        0.0635
      3 C          14.2942   43.1669    6.4593 C.ar    1  UNL1        0.0492
      4 C          13.2047   42.2999    6.5942 C.ar    1  UNL1        0.1361
      5 C          14.3817   41.0822    8.2524 C.ar    1  UNL1        0.1414
      6 N          13.2749   41.2779    7.4878 N.ar    1  UNL1       -0.2159
      7 N          15.4476   41.9196    8.1288 N.ar    1  UNL1       -0.2348
      8 C          14.4159   39.9462    9.2196 C.3     1  UNL1        0.0785
      9 C          13.2103   40.0005   10.1601 C.3     1  UNL1        0.0110
     10 C          13.2511   38.8339   11.1452 C.3     1  UNL1        0.0220
     11 C          14.5499   38.8723   11.9447 C.3     1  UNL1        0.0934
     12 C          15.7209   39.9579   10.0157 C.3     1  UNL1        0.1009
     13 C          16.7197   37.9131   11.1062 C.2     1  UNL1        0.2261
     14 C          17.8740   37.9316   10.1621 C.3     1  UNL1        0.0948
     15 N          15.6850   38.9043   11.0265 N.am    1  UNL1       -0.2791
     16 O          16.6648   37.0081   11.9809 O.2     1  UNL1       -0.2749
     17 N          12.0121   42.4587    5.8143 N.pl3   1  UNL1       -0.2781
     18 H          11.9088   43.3114    5.3333 H       1  UNL1        0.1555
     19 C          10.9556   41.5031    5.6636 C.ar    1  UNL1        0.1639
     20 C           9.7915   39.7965    4.7943 C.ar    1  UNL1        0.0633
     21 C           8.9497   40.1292    5.8514 C.ar    1  UNL1        0.0238
     22 C           7.6647   39.4641    6.2030 C.3     1  UNL1        0.0395
     23 C           9.5140   38.6912    3.8357 C.3     1  UNL1        0.0524
     24 N          10.9086   40.5636    4.6919 N.ar    1  UNL1       -0.2286
     25 S           9.6227   41.4244    6.6860 S.2     1  UNL1       -0.0561
@<TRIPOS>BOND
     1     1     2    1
     2     2     7   ar
     3     3     4   ar
     4     4    17    1
     5     5     6   ar
     6     8     5    1
     7     8     9    1
     8     9    10    1
     9    10    11    1
    10    11    15    1
    11    12    15    1
    12    12     8    1
    13    14    13    1
    14    19    25   ar
    15    20    24   ar
    16    21    25   ar
    17    22    21    1
    18    23    20    1
    19    15    13   am
    20    17    19    1
    21     2     3   ar
    22     4     6   ar
    23     5     7   ar
    24    13    16    2
    25    19    24   ar
    26    20    21   ar
    27    17    18    1
@<TRIPOS>MOLECULE
MolPort-047-015-575 MCULE-1091549304 PubChem-110095393
 25 27 0 0 0
SMALL
GASTEIGER

@<TRIPOS>ATOM
      1 C           9.7781   38.9353    4.9498 C.3     1  UNL1        0.0522
      2 C          10.2449   40.1041    5.7396 C.ar    1  UNL1        0.0635
      3 C          11.4172   40.7649    5.3797 C.ar    1  UNL1        0.0492
      4 C          11.8316   41.8622    6.1420 C.ar    1  UNL1        0.1361
      5 C           9.9415   41.5971    7.5473 C.ar    1  UNL1        0.1414
      6 N          11.0833   42.2520    7.2079 N.ar    1  UNL1       -0.2159
      7 N           9.5290   40.5285    6.8123 N.ar    1  UNL1       -0.2348
      8 C           9.1502   42.0607    8.7247 C.3     1  UNL1        0.0785
      9 C          10.0732   42.4021    9.8961 C.3     1  UNL1        0.0110
     10 C           9.2565   42.8778   11.0959 C.3     1  UNL1        0.0220
     11 C           8.2562   41.8008   11.5050 C.3     1  UNL1        0.0934
     12 C           8.1281   41.0007    9.1356 C.3     1  UNL1        0.1009
     13 C           6.0100   41.5107   10.4090 C.2     1  UNL1        0.2261
     14 C           5.1730   41.1480    9.2292 C.3     1  UNL1        0.0948
     15 N           7.4416   41.4306   10.3510 N.am    1  UNL1       -0.2791
     16 O           5.4385   41.8918   11.4651 O.2     1  UNL1       -0.2749
     17 N          13.0270   42.5900    5.8303 N.pl3   1  UNL1       -0.2781
     18 H          13.0145   43.1284    5.0062 H       1  UNL1        0.1555
     19 C          14.2376   42.6138    6.5959 C.ar    1  UNL1        0.1639
     20 C          15.7759   41.9654    8.0913 C.ar    1  UNL1        0.0633
     21 C          16.3982   43.1135    7.6100 C.ar    1  UNL1        0.0238
     22 C          17.7150   43.6554    8.0454 C.3     1  UNL1        0.0395
     23 C          16.3613   41.0901    9.1442 C.3     1  UNL1        0.0524
     24 N          14.5721   41.6893    7.5244 N.ar    1  UNL1       -0.2286
     25 S          15.4122   43.8068    6.4378 S.2     1  UNL1       -0.0561
@<TRIPOS>BOND
     1     1     2    1
     2     2     7   ar
     3     3     4   ar
     4     4    17    1
     5     5     6   ar
     6     8     5    1
     7     8     9    1
     8     9    10    1
     9    10    11    1
    10    11    15    1
    11    12    15    1
    12    12     8    1
    13    14    13    1
    14    19    25   ar
    15    20    24   ar
    16    21    25   ar
    17    22    21    1
    18    23    20    1
    19    15    13   am
    20    17    19    1
    21     2     3   ar
    22     4     6   ar
    23     5     7   ar
    24    13    16    2
    25    19    24   ar
    26    20    21   ar
    27    17    18    1
@<TRIPOS>MOLECULE
MolPort-047-015-575 MCULE-1091549304 PubChem-110095393
 25 27 0 0 0
SMALL
GASTEIGER

@<TRIPOS>ATOM
      1 C          10.6894   41.0289   11.6193 C.3     1  UNL1        0.0522
      2 C          10.3474   41.3867   10.2184 C.ar    1  UNL1        0.0635
      3 C          11.3397   41.4007    9.2407 C.ar    1  UNL1        0.0492
      4 C          10.9876   41.7413    7.9303 C.ar    1  UNL1        0.1361
      5 C           8.7363   42.0306    8.6125 C.ar    1  UNL1        0.1414
      6 N           9.6938   42.0480    7.6478 N.ar    1  UNL1       -0.2159
      7 N           9.0677   41.7002    9.8906 N.ar    1  UNL1       -0.2348
      8 C           7.3279   42.3728    8.2570 C.3     1  UNL1        0.0785
      9 C           7.2655   43.7164    7.5279 C.3     1  UNL1        0.0110
     10 C           5.8217   44.0586    7.1654 C.3     1  UNL1        0.0220
     11 C           4.9637   44.0988    8.4263 C.3     1  UNL1        0.0934
     12 C           6.4492   42.3976    9.5078 C.3     1  UNL1        0.1009
     13 C           3.9502   42.0491    9.4761 C.2     1  UNL1        0.2261
     14 C           4.0873   40.7535   10.2019 C.3     1  UNL1        0.0948
     15 N           5.1035   42.8380    9.1497 N.am    1  UNL1       -0.2791
     16 O           2.7989   42.4440    9.1507 O.2     1  UNL1       -0.2749
     17 N          11.9556   41.7762    6.8732 N.pl3   1  UNL1       -0.2781
     18 H          11.6653   41.4347    5.9966 H       1  UNL1        0.1555
     19 C          13.3020   42.2572    6.9624 C.ar    1  UNL1        0.1639
     20 C          15.4357   42.3791    7.6372 C.ar    1  UNL1        0.0633
     21 C          15.4200   43.4455    6.7431 C.ar    1  UNL1        0.0238
     22 C          16.5631   44.3410    6.4131 C.3     1  UNL1        0.0395
     23 C          16.6393   41.9722    8.4140 C.3     1  UNL1        0.0524
     24 N          14.2541   41.7186    7.7574 N.ar    1  UNL1       -0.2286
     25 S          13.8795   43.5677    6.0808 S.2     1  UNL1       -0.0561
@<TRIPOS>BOND
     1     1     2    1
     2     2     7   ar
     3     3     4   ar
     4     4    17    1
     5     5     6   ar
     6     8     5    1
     7     8     9    1
     8     9    10    1
     9    10    11    1
    10    11    15    1
    11    12    15    1
    12    12     8    1
    13    14    13    1
    14    19    25   ar
    15    20    24   ar
    16    21    25   ar
    17    22    21    1
    18    23    20    1
    19    15    13   am
    20    17    19    1
    21     2     3   ar
    22     4     6   ar
    23     5     7   ar
    24    13    16    2
    25    19    24   ar
    26    20    21   ar
    27    17    18    1
@<TRIPOS>MOLECULE
MolPort-047-015-575 MCULE-1091549304 PubChem-110095393
 25 27 0 0 0
SMALL
GASTEIGER

@<TRIPOS>ATOM
      1 C          10.2953   38.1640    4.2812 C.3     1  UNL1        0.0522
      2 C          10.3276   39.4228    5.0700 C.ar    1  UNL1        0.0635
      3 C          11.4375   40.2616    4.9984 C.ar    1  UNL1        0.0492
      4 C          11.4392   41.4401    5.7522 C.ar    1  UNL1        0.1361
      5 C           9.2877   40.9049    6.5902 C.ar    1  UNL1        0.1414
      6 N          10.3637   41.7334    6.5301 N.ar    1  UNL1       -0.2159
      7 N           9.2754   39.7560    5.8606 N.ar    1  UNL1       -0.2348
      8 C           8.1279   41.2673    7.4566 C.3     1  UNL1        0.0785
      9 C           7.0342   40.2009    7.3701 C.3     1  UNL1        0.0110
     10 C           5.8521   40.5776    8.2609 C.3     1  UNL1        0.0220
     11 C           5.3003   41.9383    7.8464 C.3     1  UNL1        0.0934
     12 C           7.5750   42.6385    7.0677 C.3     1  UNL1        0.1009
     13 C           6.2684   44.1226    8.6355 C.2     1  UNL1        0.2261
     14 C           7.3720   45.1254    8.6606 C.3     1  UNL1        0.0948
     15 N           6.3785   42.9232    7.8554 N.am    1  UNL1       -0.2791
     16 O           5.2305   44.3446    9.3143 O.2     1  UNL1       -0.2749
     17 N          12.5465   42.3506    5.7277 N.pl3   1  UNL1       -0.2781
     18 H          12.4884   43.1002    5.0921 H       1  UNL1        0.1555
     19 C          13.7287   42.2808    6.5337 C.ar    1  UNL1        0.1639
     20 C          15.7790   42.7899    7.2822 C.ar    1  UNL1        0.0633
     21 C          15.4693   41.7536    8.1581 C.ar    1  UNL1        0.0238
     22 C          16.3385   41.2232    9.2446 C.3     1  UNL1        0.0395
     23 C          17.0668   43.5371    7.3115 C.3     1  UNL1        0.0524
     24 N          14.8073   43.0816    6.3780 N.ar    1  UNL1       -0.2286
     25 S          13.9310   41.1828    7.7913 S.2     1  UNL1       -0.0561
@<TRIPOS>BOND
     1     1     2    1
     2     2     7   ar
     3     3     4   ar
     4     4    17    1
     5     5     6   ar
     6     8     5    1
     7     8     9    1
     8     9    10    1
     9    10    11    1
    10    11    15    1
    11    12    15    1
    12    12     8    1
    13    14    13    1
    14    19    25   ar
    15    20    24   ar
    16    21    25   ar
    17    22    21    1
    18    23    20    1
    19    15    13   am
    20    17    19    1
    21     2     3   ar
    22     4     6   ar
    23     5     7   ar
    24    13    16    2
    25    19    24   ar
    26    20    21   ar
    27    17    18    1
@<TRIPOS>MOLECULE
MolPort-047-015-575 MCULE-1091549304 PubChem-110095393
 25 27 0 0 0
SMALL
GASTEIGER

@<TRIPOS>ATOM
      1 C           9.5444   38.6650    3.6319 C.3     1  UNL1        0.0522
      2 C           9.7265   39.6523    4.7272 C.ar    1  UNL1        0.0635
      3 C          10.8052   40.5333    4.6988 C.ar    1  UNL1        0.0492
      4 C          10.9506   41.4519    5.7439 C.ar    1  UNL1        0.1361
      5 C           8.9930   40.5936    6.7680 C.ar    1  UNL1        0.1414
      6 N          10.0405   41.4599    6.7536 N.ar    1  UNL1       -0.2159
      7 N           8.8418   39.6961    5.7561 N.ar    1  UNL1       -0.2348
      8 C           8.0168   40.6388    7.8959 C.3     1  UNL1        0.0785
      9 C           6.6091   40.9450    7.3807 C.3     1  UNL1        0.0110
     10 C           5.6157   40.9872    8.5401 C.3     1  UNL1        0.0220
     11 C           6.0481   42.0377    9.5586 C.3     1  UNL1        0.0934
     12 C           8.4462   41.6731    8.9365 C.3     1  UNL1        0.1009
     13 C           7.7487   41.6001   11.3606 C.2     1  UNL1        0.2261
     14 C           9.1485   41.3169   11.7902 C.3     1  UNL1        0.0948
     15 N           7.4232   41.7748    9.9740 N.am    1  UNL1       -0.2791
     16 O           6.8491   41.6840   12.2386 O.2     1  UNL1       -0.2749
     17 N          12.0357   42.3884    5.7806 N.pl3   1  UNL1       -0.2781
     18 H          11.9371   43.2008    5.2334 H       1  UNL1        0.1555
     19 C          13.2486   42.2624    6.5324 C.ar    1  UNL1        0.1639
     20 C          14.6999   41.4489    8.0340 C.ar    1  UNL1        0.0633
     21 C          15.4739   42.4780    7.5060 C.ar    1  UNL1        0.0238
     22 C          16.8616   42.8380    7.9083 C.3     1  UNL1        0.0395
     23 C          15.1689   40.5341    9.1114 C.3     1  UNL1        0.0524
     24 N          13.4603   41.3310    7.4897 N.ar    1  UNL1       -0.2286
     25 S          14.5806   43.2669    6.3200 S.2     1  UNL1       -0.0561
@<TRIPOS>BOND
     1     1     2    1
     2     2     7   ar
     3     3     4   ar
     4     4    17    1
     5     5     6   ar
     6     8     5    1
     7     8     9    1
     8     9    10    1
     9    10    11    1
    10    11    15    1
    11    12    15    1
    12    12     8    1
    13    14    13    1
    14    19    25   ar
    15    20    24   ar
    16    21    25   ar
    17    22    21    1
    18    23    20    1
    19    15    13   am
    20    17    19    1
    21     2     3   ar
    22     4     6   ar
    23     5     7   ar
    24    13    16    2
    25    19    24   ar
    26    20    21   ar
    27    17    18    1
@<TRIPOS>MOLECULE
MolPort-047-015-575 MCULE-1091549304 PubChem-110095393
 25 27 0 0 0
SMALL
GASTEIGER

@<TRIPOS>ATOM
      1 C           9.2465   41.0361   14.3467 C.3     1  UNL1        0.0522
      2 C           9.3487   41.3158   12.8910 C.ar    1  UNL1        0.0635
      3 C           8.2540   41.8339   12.2026 C.ar    1  UNL1        0.0492
      4 C           8.3801   42.0874   10.8326 C.ar    1  UNL1        0.1361
      5 C          10.6205   41.3166   10.8982 C.ar    1  UNL1        0.1414
      6 N           9.5609   41.8226   10.2132 N.ar    1  UNL1       -0.2159
      7 N          10.5088   41.0667   12.2314 N.ar    1  UNL1       -0.2348
      8 C          11.8985   41.0425   10.1780 C.3     1  UNL1        0.0785
      9 C          11.7263   41.2519    8.6722 C.3     1  UNL1        0.0110
     10 C          13.0386   40.9718    7.9425 C.3     1  UNL1        0.0220
     11 C          13.5009   39.5467    8.2306 C.3     1  UNL1        0.0934
     12 C          12.3870   39.6241   10.4721 C.3     1  UNL1        0.1009
     13 C          14.7979   38.9022   10.2881 C.2     1  UNL1        0.2261
     14 C          14.8875   38.7066   11.7639 C.3     1  UNL1        0.0948
     15 N          13.5780   39.3433    9.6747 N.am    1  UNL1       -0.2791
     16 O          15.8161   38.6734    9.5822 O.2     1  UNL1       -0.2749
     17 N           7.2960   42.6203   10.0603 N.pl3   1  UNL1       -0.2781
     18 H           7.5162   43.3429    9.4290 H       1  UNL1        0.1555
     19 C           5.9249   42.2085   10.1136 C.ar    1  UNL1        0.1639
     20 C           3.9157   41.7468   10.9928 C.ar    1  UNL1        0.0633
     21 C           3.6579   41.4320    9.6619 C.ar    1  UNL1        0.0238
     22 C           2.3696   40.9372    9.1027 C.3     1  UNL1        0.0395
     23 C           2.9038   41.6283   12.0789 C.3     1  UNL1        0.0524
     24 N           5.1797   42.1792   11.2417 N.ar    1  UNL1       -0.2286
     25 S           5.0549   41.7027    8.7662 S.2     1  UNL1       -0.0561
@<TRIPOS>BOND
     1     1     2    1
     2     2     7   ar
     3     3     4   ar
     4     4    17    1
     5     5     6   ar
     6     8     5    1
     7     8     9    1
     8     9    10    1
     9    10    11    1
    10    11    15    1
    11    12    15    1
    12    12     8    1
    13    14    13    1
    14    19    25   ar
    15    20    24   ar
    16    21    25   ar
    17    22    21    1
    18    23    20    1
    19    15    13   am
    20    17    19    1
    21     2     3   ar
    22     4     6   ar
    23     5     7   ar
    24    13    16    2
    25    19    24   ar
    26    20    21   ar
    27    17    18    1
@<TRIPOS>MOLECULE
MolPort-047-015-575 MCULE-1091549304 PubChem-110095393
 25 27 0 0 0
SMALL
GASTEIGER

@<TRIPOS>ATOM
      1 C           9.4953   41.0374   14.2091 C.3     1  UNL1        0.0522
      2 C           9.0680   41.2285   12.7990 C.ar    1  UNL1        0.0635
      3 C           9.9793   41.0378   11.7628 C.ar    1  UNL1        0.0492
      4 C           9.5480   41.2247   10.4452 C.ar    1  UNL1        0.1361
      5 C           7.3802   41.7685   11.2342 C.ar    1  UNL1        0.1414
      6 N           8.2582   41.5856   10.2126 N.ar    1  UNL1       -0.2159
      7 N           7.7891   41.5889   12.5198 N.ar    1  UNL1       -0.2348
      8 C           5.9729   42.1632   10.9325 C.3     1  UNL1        0.0785
      9 C           4.9957   41.0851   11.4054 C.3     1  UNL1        0.0110
     10 C           3.5580   41.4971   11.0954 C.3     1  UNL1        0.0220
     11 C           3.3969   41.7392    9.5977 C.3     1  UNL1        0.0934
     12 C           5.7987   42.4295    9.4373 C.3     1  UNL1        0.1009
     13 C           3.9958   43.9097    8.4747 C.2     1  UNL1        0.2261
     14 C           5.0077   44.9110    8.0301 C.3     1  UNL1        0.0948
     15 N           4.3938   42.7089    9.1521 N.am    1  UNL1       -0.2791
     16 O           2.7775   44.1347    8.2459 O.2     1  UNL1       -0.2749
     17 N          10.4302   41.0459    9.3292 N.pl3   1  UNL1       -0.2781
     18 H          10.2019   41.5304    8.5032 H       1  UNL1        0.1555
     19 C          11.6100   40.2342    9.2936 C.ar    1  UNL1        0.1639
     20 C          13.7873   39.7095    9.3787 C.ar    1  UNL1        0.0633
     21 C          13.2588   38.4439    9.1422 C.ar    1  UNL1        0.0238
     22 C          14.0265   37.1755    9.0043 C.3     1  UNL1        0.0395
     23 C          15.2438   39.9793    9.5318 C.3     1  UNL1        0.0524
     24 N          12.8664   40.7053    9.4626 N.ar    1  UNL1       -0.2286
     25 S          11.5859   38.5727    9.0344 S.2     1  UNL1       -0.0561
@<TRIPOS>BOND
     1     1     2    1
     2     2     7   ar
     3     3     4   ar
     4     4    17    1
     5     5     6   ar
     6     8     5    1
     7     8     9    1
     8     9    10    1
     9    10    11    1
    10    11    15    1
    11    12    15    1
    12    12     8    1
    13    14    13    1
    14    19    25   ar
    15    20    24   ar
    16    21    25   ar
    17    22    21    1
    18    23    20    1
    19    15    13   am
    20    17    19    1
    21     2     3   ar
    22     4     6   ar
    23     5     7   ar
    24    13    16    2
    25    19    24   ar
    26    20    21   ar
    27    17    18    1
@<TRIPOS>MOLECULE
MolPort-047-015-575 MCULE-1091549304 PubChem-110095393
 25 27 0 0 0
SMALL
GASTEIGER

@<TRIPOS>ATOM
      1 C          14.8003   44.0558    5.8139 C.3     1  UNL1        0.0522
      2 C          14.1889   42.8837    6.4921 C.ar    1  UNL1        0.0635
      3 C          12.9394   42.4186    6.0883 C.ar    1  UNL1        0.0492
      4 C          12.3891   41.3129    6.7453 C.ar    1  UNL1        0.1361
      5 C          14.3029   41.1907    8.1382 C.ar    1  UNL1        0.1414
      6 N          13.0846   40.7254    7.7548 N.ar    1  UNL1       -0.2159
      7 N          14.8478   42.2655    7.5054 N.ar    1  UNL1       -0.2348
      8 C          15.0319   40.5137    9.2506 C.3     1  UNL1        0.0785
      9 C          16.5322   40.8022    9.1684 C.3     1  UNL1        0.0110
     10 C          17.2709   40.1082   10.3110 C.3     1  UNL1        0.0220
     11 C          17.0161   38.6048   10.2589 C.3     1  UNL1        0.0934
     12 C          14.7710   39.0076    9.2253 C.3     1  UNL1        0.1009
     13 C          14.9765   37.5121   11.2475 C.2     1  UNL1        0.2261
     14 C          13.5058   37.2653   11.2568 C.3     1  UNL1        0.0948
     15 N          15.5771   38.3557   10.2540 N.am    1  UNL1       -0.2791
     16 O          15.6897   36.9659   12.1308 O.2     1  UNL1       -0.2749
     17 N          11.1083   40.7798    6.3833 N.pl3   1  UNL1       -0.2781
     18 H          11.1068   40.0186    5.7590 H       1  UNL1        0.1555
     19 C           9.8306   41.2419    6.8373 C.ar    1  UNL1        0.1639
     20 C           7.8311   42.2523    6.7714 C.ar    1  UNL1        0.0633
     21 C           7.8035   41.7813    8.0807 C.ar    1  UNL1        0.0238
     22 C           6.6995   41.9620    9.0635 C.3     1  UNL1        0.0395
     23 C           6.7222   43.0287    6.1510 C.3     1  UNL1        0.0524
     24 N           8.9619   41.9503    6.0808 N.ar    1  UNL1       -0.2286
     25 S           9.2388   40.9605    8.3861 S.2     1  UNL1       -0.0561
@<TRIPOS>BOND
     1     1     2    1
     2     2     7   ar
     3     3     4   ar
     4     4    17    1
     5     5     6   ar
     6     8     5    1
     7     8     9    1
     8     9    10    1
     9    10    11    1
    10    11    15    1
    11    12    15    1
    12    12     8    1
    13    14    13    1
    14    19    25   ar
    15    20    24   ar
    16    21    25   ar
    17    22    21    1
    18    23    20    1
    19    15    13   am
    20    17    19    1
    21     2     3   ar
    22     4     6   ar
    23     5     7   ar
    24    13    16    2
    25    19    24   ar
    26    20    21   ar
    27    17    18    1
@<TRIPOS>MOLECULE
MolPort-047-015-575 MCULE-1091549304 PubChem-110095393
 25 27 0 0 0
SMALL
GASTEIGER

@<TRIPOS>ATOM
      1 C           9.9066   39.8083    4.4129 C.3     1  UNL1        0.0522
      2 C          10.2746   40.3280    5.7553 C.ar    1  UNL1        0.0635
      3 C          11.5952   40.2554    6.1926 C.ar    1  UNL1        0.0492
      4 C          11.9117   40.7531    7.4611 C.ar    1  UNL1        0.1361
      5 C           9.6427   41.3547    7.7889 C.ar    1  UNL1        0.1414
      6 N          10.9273   41.2911    8.2289 N.ar    1  UNL1       -0.2159
      7 N           9.3239   40.8738    6.5562 N.ar    1  UNL1       -0.2348
      8 C           8.5942   41.9552    8.6649 C.3     1  UNL1        0.0785
      9 C           8.4935   41.1933    9.9879 C.3     1  UNL1        0.0110
     10 C           7.4205   41.8149   10.8795 C.3     1  UNL1        0.0220
     11 C           6.0757   41.8070   10.1589 C.3     1  UNL1        0.0934
     12 C           7.2432   41.9737    7.9499 C.3     1  UNL1        0.1009
     13 C           5.3777   43.5772    8.5126 C.2     1  UNL1        0.2261
     14 C           5.5246   44.2634    7.1967 C.3     1  UNL1        0.0948
     15 N           6.2149   42.4656    8.8630 N.am    1  UNL1       -0.2791
     16 O           4.5022   43.9905    9.3187 O.2     1  UNL1       -0.2749
     17 N          13.2490   40.7120    7.9764 N.pl3   1  UNL1       -0.2781
     18 H          13.4678   39.9648    8.5790 H       1  UNL1        0.1555
     19 C          14.2994   41.6472    7.7040 C.ar    1  UNL1        0.1639
     20 C          16.3216   42.6072    7.8146 C.ar    1  UNL1        0.0633
     21 C          15.7107   43.4704    6.9098 C.ar    1  UNL1        0.0238
     22 C          16.3304   44.6615    6.2660 C.3     1  UNL1        0.0395
     23 C          17.7278   42.7608    8.2798 C.3     1  UNL1        0.0524
     24 N          15.5329   41.5922    8.2555 N.ar    1  UNL1       -0.2286
     25 S          14.1333   42.9487    6.6519 S.2     1  UNL1       -0.0561
@<TRIPOS>BOND
     1     1     2    1
     2     2     7   ar
     3     3     4   ar
     4     4    17    1
     5     5     6   ar
     6     8     5    1
     7     8     9    1
     8     9    10    1
     9    10    11    1
    10    11    15    1
    11    12    15    1
    12    12     8    1
    13    14    13    1
    14    19    25   ar
    15    20    24   ar
    16    21    25   ar
    17    22    21    1
    18    23    20    1
    19    15    13   am
    20    17    19    1
    21     2     3   ar
    22     4     6   ar
    23     5     7   ar
    24    13    16    2
    25    19    24   ar
    26    20    21   ar
    27    17    18    1
@<TRIPOS>MOLECULE
MolPort-047-015-575 MCULE-1091549304 PubChem-110095393
 25 27 0 0 0
SMALL
GASTEIGER

@<TRIPOS>ATOM
      1 C          10.8315   39.9990    4.4686 C.3     1  UNL1        0.0522
      2 C          11.0939   40.7943    5.6960 C.ar    1  UNL1        0.0635
      3 C          10.1820   40.7719    6.7489 C.ar    1  UNL1        0.0492
      4 C          10.4561   41.5306    7.8919 C.ar    1  UNL1        0.1361
      5 C          12.4790   42.2777    6.9083 C.ar    1  UNL1        0.1414
      6 N          11.5986   42.2654    7.9440 N.ar    1  UNL1       -0.2159
      7 N          12.2224   41.5429    5.7918 N.ar    1  UNL1       -0.2348
      8 C          13.7218   43.0978    7.0093 C.3     1  UNL1        0.0785
      9 C          13.8168   44.0817    5.8415 C.3     1  UNL1        0.0110
     10 C          15.0895   44.9186    5.9530 C.3     1  UNL1        0.0220
     11 C          16.3122   44.0064    5.9791 C.3     1  UNL1        0.0934
     12 C          14.9566   42.1978    7.0570 C.3     1  UNL1        0.1009
     13 C          17.1621   42.8912    8.0683 C.2     1  UNL1        0.2261
     14 C          17.0076   41.8986    9.1706 C.3     1  UNL1        0.0948
     15 N          16.1619   43.0226    7.0478 N.am    1  UNL1       -0.2791
     16 O          18.1905   43.6185    8.0457 O.2     1  UNL1       -0.2749
     17 N           9.5637   41.5554    9.0137 N.pl3   1  UNL1       -0.2781
     18 H           9.9161   41.2124    9.8666 H       1  UNL1        0.1555
     19 C           8.2115   42.0284    9.0201 C.ar    1  UNL1        0.1639
     20 C           6.0317   42.1148    9.5342 C.ar    1  UNL1        0.0633
     21 C           6.1091   43.2192    8.6908 C.ar    1  UNL1        0.0238
     22 C           4.9892   44.1249    8.3131 C.3     1  UNL1        0.0395
     23 C           4.7748   41.6711   10.1983 C.3     1  UNL1        0.0524
     24 N           7.2046   41.4530    9.7160 N.ar    1  UNL1       -0.2286
     25 S           7.6950   43.3744    8.1543 S.2     1  UNL1       -0.0561
@<TRIPOS>BOND
     1     1     2    1
     2     2     7   ar
     3     3     4   ar
     4     4    17    1
     5     5     6   ar
     6     8     5    1
     7     8     9    1
     8     9    10    1
     9    10    11    1
    10    11    15    1
    11    12    15    1
    12    12     8    1
    13    14    13    1
    14    19    25   ar
    15    20    24   ar
    16    21    25   ar
    17    22    21    1
    18    23    20    1
    19    15    13   am
    20    17    19    1
    21     2     3   ar
    22     4     6   ar
    23     5     7   ar
    24    13    16    2
    25    19    24   ar
    26    20    21   ar
    27    17    18    1
