@<TRIPOS>MOLECULE
MolPort-045-963-317 952873328 CSSS00159698825 MCULE-7326464191 PubChem-131938632 ZINC000952873328
 30 32 0 0 0
SMALL
GASTEIGER

@<TRIPOS>ATOM
      1 C           8.5372   41.2139    8.4864 C.ar    1  UNL1        0.0849
      2 C           8.4839   40.8370    7.1408 C.ar    1  UNL1        0.0190
      3 C           9.5379   41.1370    6.2769 C.ar    1  UNL1        0.0162
      4 C          10.6555   41.8394    6.7444 C.ar    1  UNL1        0.0537
      5 C          10.7062   42.2333    8.0831 C.ar    1  UNL1        0.0528
      6 C           9.6485   41.9436    8.9616 C.ar    1  UNL1        0.1533
      7 C           6.2928   41.7381    9.5669 C.2     1  UNL1        0.2564
      8 O           6.3225   42.9588    9.2546 O.2     1  UNL1       -0.2720
      9 N           7.4201   40.8909    9.3246 N.am    1  UNL1       -0.2795
     10 H           7.4293   40.0132    9.7706 H       1  UNL1        0.1550
     11 C           5.0887   41.1767   10.2373 C.3     1  UNL1        0.2273
     12 C           3.0253   41.6793    9.6415 C.3     1  UNL1        0.1748
     13 O           4.1115   40.8808    9.2869 O.3     1  UNL1       -0.3417
     14 C          13.1327   42.2591    6.3086 C.2     1  UNL1        0.2711
     15 O          13.8558   43.1324    5.7619 O.2     1  UNL1       -0.2680
     16 N          11.7677   42.1311    5.8898 N.am    1  UNL1       -0.2789
     17 H          11.5781   42.2543    4.9316 H       1  UNL1        0.1552
     18 C          13.7278   41.3749    7.3269 C.ar    1  UNL1        0.1807
     19 C          14.9248   41.5699    8.0015 C.ar    1  UNL1        0.2311
     20 C          16.0537   40.3117    9.7647 C.ar    1  UNL1        0.0792
     21 C          15.9295   39.1720   10.5719 C.ar    1  UNL1       -0.0041
     22 C          16.9836   38.8410   11.5653 C.3     1  UNL1        0.0326
     23 C          14.7982   38.3440   10.4360 C.ar    1  UNL1        0.0003
     24 C          13.7960   38.6516    9.5010 C.ar    1  UNL1        0.0372
     25 C          13.9742   39.7943    8.7247 C.ar    1  UNL1        0.1496
     26 N          15.0648   40.5652    8.8727 N.ar    1  UNL1       -0.2662
     27 N          13.1162   40.2558    7.7905 N.ar    1  UNL1       -0.2194
     28 F          15.7802   42.6160    7.8812 F       1  UNL1       -0.1828
     29 C          10.2294   41.6404   11.3514 C.3     1  UNL1        0.2525
     30 O           9.6758   42.3992   10.2847 O.3     1  UNL1       -0.4701
@<TRIPOS>BOND
     1    12    13    1
     2    11    13    1
     3    11     7    1
     4     7     9   am
     5     2     3   ar
     6     4    16    1
     7     4     5   ar
     8    14    18    1
     9    18    27   ar
    10    19    28    1
    11    19    26   ar
    12    21    23   ar
    13    22    21    1
    14    24    25   ar
    15    25    26   ar
    16     6    30    1
    17     6     1   ar
    18    29    30    1
    19     9     1    1
    20    16    14   am
    21    26    20   ar
    22     7     8    2
    23     1     2   ar
    24     3     4   ar
    25    14    15    2
    26    18    19   ar
    27    20    21   ar
    28    23    24   ar
    29    25    27   ar
    30     5     6   ar
    31     9    10    1
    32    16    17    1
@<TRIPOS>MOLECULE
MolPort-045-963-317 952873328 CSSS00159698825 MCULE-7326464191 PubChem-131938632 ZINC000952873328
 30 32 0 0 0
SMALL
GASTEIGER

@<TRIPOS>ATOM
      1 C          11.1886   38.6525    9.4577 C.ar    1  UNL1        0.0849
      2 C          12.1919   37.7293    9.1470 C.ar    1  UNL1        0.0190
      3 C          13.4625   37.8437    9.7124 C.ar    1  UNL1        0.0162
      4 C          13.7543   38.8998   10.5843 C.ar    1  UNL1        0.0537
      5 C          12.7613   39.8345   10.8847 C.ar    1  UNL1        0.0528
      6 C          11.4800   39.7346   10.3165 C.ar    1  UNL1        0.1533
      7 C           9.5950   38.8231    7.4801 C.2     1  UNL1        0.2564
      8 O          10.3786   39.5293    6.7905 O.2     1  UNL1       -0.2720
      9 N           9.9063   38.4933    8.8373 N.am    1  UNL1       -0.2795
     10 H           9.1793   38.1267    9.3908 H       1  UNL1        0.1550
     11 C           8.3074   38.3616    6.8939 C.3     1  UNL1        0.2273
     12 C           6.7247   39.8150    6.3961 C.3     1  UNL1        0.1748
     13 O           7.8959   39.2469    5.8975 O.3     1  UNL1       -0.3417
     14 C          16.2507   39.4192   10.5517 C.2     1  UNL1        0.2711
     15 O          17.3302   38.8651   10.8863 O.2     1  UNL1       -0.2680
     16 N          15.0386   39.0234   11.2070 N.am    1  UNL1       -0.2789
     17 H          15.0936   38.8189   12.1684 H       1  UNL1        0.1552
     18 C          16.2803   40.4820    9.5308 C.ar    1  UNL1        0.1807
     19 C          15.2344   40.8746    8.7074 C.ar    1  UNL1        0.2311
     20 C          15.0212   42.6384    7.0311 C.ar    1  UNL1        0.0792
     21 C          15.7294   43.6817    6.4181 C.ar    1  UNL1       -0.0041
     22 C          15.0761   44.5195    5.3793 C.3     1  UNL1        0.0326
     23 C          17.0635   43.9315    6.7946 C.ar    1  UNL1        0.0003
     24 C          17.6873   43.1457    7.7777 C.ar    1  UNL1        0.0372
     25 C          16.9363   42.1217    8.3500 C.ar    1  UNL1        0.1496
     26 N          15.6660   41.9032    7.9701 N.ar    1  UNL1       -0.2662
     27 N          17.3582   41.2777    9.3152 N.ar    1  UNL1       -0.2194
     28 F          13.9710   40.3809    8.6841 F       1  UNL1       -0.1828
     29 C          10.1115   41.0826   11.8820 C.3     1  UNL1        0.2525
     30 O          10.5101   40.7116   10.5692 O.3     1  UNL1       -0.4701
@<TRIPOS>BOND
     1    12    13    1
     2    11    13    1
     3    11     7    1
     4     7     9   am
     5     2     3   ar
     6     4    16    1
     7     4     5   ar
     8    14    18    1
     9    18    27   ar
    10    19    28    1
    11    19    26   ar
    12    21    23   ar
    13    22    21    1
    14    24    25   ar
    15    25    26   ar
    16     6    30    1
    17     6     1   ar
    18    29    30    1
    19     9     1    1
    20    16    14   am
    21    26    20   ar
    22     7     8    2
    23     1     2   ar
    24     3     4   ar
    25    14    15    2
    26    18    19   ar
    27    20    21   ar
    28    23    24   ar
    29    25    27   ar
    30     5     6   ar
    31     9    10    1
    32    16    17    1
@<TRIPOS>MOLECULE
MolPort-045-963-317 952873328 CSSS00159698825 MCULE-7326464191 PubChem-131938632 ZINC000952873328
 30 32 0 0 0
SMALL
GASTEIGER

@<TRIPOS>ATOM
      1 C          13.6313   41.9037    6.9960 C.ar    1  UNL1        0.0849
      2 C          12.6978   42.0347    5.9631 C.ar    1  UNL1        0.0190
      3 C          11.6701   41.1028    5.8120 C.ar    1  UNL1        0.0162
      4 C          11.5739   40.0109    6.6834 C.ar    1  UNL1        0.0537
      5 C          12.5136   39.8657    7.7061 C.ar    1  UNL1        0.0528
      6 C          13.5573   40.7931    7.8647 C.ar    1  UNL1        0.1533
      7 C          15.0226   43.8279    6.0789 C.2     1  UNL1        0.2564
      8 O          14.5972   43.6960    4.8999 O.2     1  UNL1       -0.2720
      9 N          14.6731   42.8833    7.0952 N.am    1  UNL1       -0.2795
     10 H          15.1911   42.9082    7.9321 H       1  UNL1        0.1550
     11 C          15.9368   44.9537    6.4123 C.3     1  UNL1        0.2273
     12 C          17.8179   43.8256    6.1795 C.3     1  UNL1        0.1748
     13 O          17.0882   44.8777    5.6284 O.3     1  UNL1       -0.3417
     14 C           9.2593   39.1175    7.2724 C.2     1  UNL1        0.2711
     15 O           8.7423   38.0462    7.6843 O.2     1  UNL1       -0.2680
     16 N          10.5100   39.0577    6.5745 N.am    1  UNL1       -0.2789
     17 H          10.6501   38.2952    5.9676 H       1  UNL1        0.1552
     18 C           8.5392   40.3858    7.4859 C.ar    1  UNL1        0.1807
     19 C           7.2689   40.7087    7.0298 C.ar    1  UNL1        0.2311
     20 C           5.8554   42.6784    7.3278 C.ar    1  UNL1        0.0792
     21 C           5.8184   43.9383    7.9420 C.ar    1  UNL1       -0.0041
     22 C           4.6201   44.8050    7.7984 C.3     1  UNL1        0.0326
     23 C           6.9236   44.3760    8.6973 C.ar    1  UNL1        0.0003
     24 C           8.0591   43.5613    8.8400 C.ar    1  UNL1        0.0372
     25 C           8.0408   42.3215    8.2055 C.ar    1  UNL1        0.1496
     26 N           6.9742   41.9297    7.4883 N.ar    1  UNL1       -0.2662
     27 N           9.0279   41.4016    8.2414 N.ar    1  UNL1       -0.2194
     28 F           6.4231   39.9242    6.3157 F       1  UNL1       -0.1828
     29 C          14.9242   39.3207    9.3153 C.3     1  UNL1        0.2525
     30 O          14.5339   40.6056    8.8495 O.3     1  UNL1       -0.4701
@<TRIPOS>BOND
     1    12    13    1
     2    11    13    1
     3    11     7    1
     4     7     9   am
     5     2     3   ar
     6     4    16    1
     7     4     5   ar
     8    14    18    1
     9    18    27   ar
    10    19    28    1
    11    19    26   ar
    12    21    23   ar
    13    22    21    1
    14    24    25   ar
    15    25    26   ar
    16     6    30    1
    17     6     1   ar
    18    29    30    1
    19     9     1    1
    20    16    14   am
    21    26    20   ar
    22     7     8    2
    23     1     2   ar
    24     3     4   ar
    25    14    15    2
    26    18    19   ar
    27    20    21   ar
    28    23    24   ar
    29    25    27   ar
    30     5     6   ar
    31     9    10    1
    32    16    17    1
@<TRIPOS>MOLECULE
MolPort-045-963-317 952873328 CSSS00159698825 MCULE-7326464191 PubChem-131938632 ZINC000952873328
 30 32 0 0 0
SMALL
GASTEIGER

@<TRIPOS>ATOM
      1 C          13.6259   41.7116    7.6543 C.ar    1  UNL1        0.0849
      2 C          12.2550   41.9826    7.6000 C.ar    1  UNL1        0.0190
      3 C          11.4013   41.5311    8.6072 C.ar    1  UNL1        0.0162
      4 C          11.9061   40.7813    9.6767 C.ar    1  UNL1        0.0537
      5 C          13.2716   40.4930    9.7270 C.ar    1  UNL1        0.0528
      6 C          14.1407   40.9357    8.7155 C.ar    1  UNL1        0.1533
      7 C          14.5617   43.5530    6.1666 C.2     1  UNL1        0.2564
      8 O          13.7271   44.4156    6.5508 O.2     1  UNL1       -0.2720
      9 N          14.4532   42.1890    6.5854 N.am    1  UNL1       -0.2795
     10 H          14.9913   41.5233    6.0992 H       1  UNL1        0.1550
     11 C          15.6494   43.9441    5.2293 C.3     1  UNL1        0.2273
     12 C          17.4271   44.1748    6.5146 C.3     1  UNL1        0.1748
     13 O          16.4637   44.9082    5.8238 O.3     1  UNL1       -0.3417
     14 C           9.8770   40.9983   11.2058 C.2     1  UNL1        0.2711
     15 O           9.6259   41.0009   12.4392 O.2     1  UNL1       -0.2680
     16 N          11.0600   40.3341   10.7428 N.am    1  UNL1       -0.2789
     17 H          11.3131   39.4981   11.1969 H       1  UNL1        0.1552
     18 C           8.9247   41.6406   10.2821 C.ar    1  UNL1        0.1807
     19 C           7.6781   42.1607   10.6008 C.ar    1  UNL1        0.2311
     20 C           5.9885   43.3326    9.2823 C.ar    1  UNL1        0.0792
     21 C           5.7184   43.8097    7.9919 C.ar    1  UNL1       -0.0041
     22 C           4.4401   44.5115    7.7067 C.3     1  UNL1        0.0326
     23 C           6.6673   43.6211    6.9683 C.ar    1  UNL1        0.0003
     24 C           7.8793   42.9611    7.2306 C.ar    1  UNL1        0.0372
     25 C           8.0920   42.5061    8.5298 C.ar    1  UNL1        0.1496
     26 N           7.1683   42.6969    9.4869 N.ar    1  UNL1       -0.2662
     27 N           9.1959   41.8675    8.9720 N.ar    1  UNL1       -0.2194
     28 F           7.0888   42.2051   11.8220 F       1  UNL1       -0.1828
     29 C          16.5363   41.5406    8.9055 C.3     1  UNL1        0.2525
     30 O          15.4960   40.5869    8.7373 O.3     1  UNL1       -0.4701
@<TRIPOS>BOND
     1    12    13    1
     2    11    13    1
     3    11     7    1
     4     7     9   am
     5     2     3   ar
     6     4    16    1
     7     4     5   ar
     8    14    18    1
     9    18    27   ar
    10    19    28    1
    11    19    26   ar
    12    21    23   ar
    13    22    21    1
    14    24    25   ar
    15    25    26   ar
    16     6    30    1
    17     6     1   ar
    18    29    30    1
    19     9     1    1
    20    16    14   am
    21    26    20   ar
    22     7     8    2
    23     1     2   ar
    24     3     4   ar
    25    14    15    2
    26    18    19   ar
    27    20    21   ar
    28    23    24   ar
    29    25    27   ar
    30     5     6   ar
    31     9    10    1
    32    16    17    1
@<TRIPOS>MOLECULE
MolPort-045-963-317 952873328 CSSS00159698825 MCULE-7326464191 PubChem-131938632 ZINC000952873328
 30 32 0 0 0
SMALL
GASTEIGER

@<TRIPOS>ATOM
      1 C          10.5258   39.5841    6.5698 C.ar    1  UNL1        0.0849
      2 C           9.8630   39.0487    7.6786 C.ar    1  UNL1        0.0190
      3 C           9.9031   39.6991    8.9126 C.ar    1  UNL1        0.0162
      4 C          10.6271   40.8886    9.0601 C.ar    1  UNL1        0.0537
      5 C          11.3052   41.4187    7.9604 C.ar    1  UNL1        0.0528
      6 C          11.2786   40.7698    6.7143 C.ar    1  UNL1        0.1533
      7 C           9.5274   39.1159    4.2756 C.2     1  UNL1        0.2564
      8 O           8.5097   39.8335    4.4693 O.2     1  UNL1       -0.2720
      9 N          10.4612   38.8663    5.3308 N.am    1  UNL1       -0.2795
     10 H          11.1133   38.1414    5.1944 H       1  UNL1        0.1550
     11 C           9.7413   38.4812    2.9467 C.3     1  UNL1        0.2273
     12 C          10.3320   36.3912    3.3314 C.3     1  UNL1        0.1748
     13 O           9.2436   37.1781    2.9581 O.3     1  UNL1       -0.3417
     14 C           9.9296   42.7949   10.6034 C.2     1  UNL1        0.2711
     15 O          10.4780   43.6776   11.3137 O.2     1  UNL1       -0.2680
     16 N          10.6580   41.5968   10.3050 N.am    1  UNL1       -0.2789
     17 H          11.2290   41.2287   11.0175 H       1  UNL1        0.1552
     18 C           8.5460   43.0082   10.1418 C.ar    1  UNL1        0.1807
     19 C           8.0651   44.0970    9.4284 C.ar    1  UNL1        0.2311
     20 C           5.8714   44.6224    8.4913 C.ar    1  UNL1        0.0792
     21 C           4.5693   44.1197    8.3583 C.ar    1  UNL1       -0.0041
     22 C           3.5362   44.9027    7.6322 C.3     1  UNL1        0.0326
     23 C           4.2476   42.8669    8.9158 C.ar    1  UNL1        0.0003
     24 C           5.2194   42.1193    9.6013 C.ar    1  UNL1        0.0372
     25 C           6.4948   42.6698    9.7047 C.ar    1  UNL1        0.1496
     26 N           6.7740   43.8687    9.1659 N.ar    1  UNL1       -0.2662
     27 N           7.5560   42.0954   10.3096 N.ar    1  UNL1       -0.2194
     28 F           8.7657   45.1739    8.9923 F       1  UNL1       -0.1828
     29 C          12.9331   42.3478    5.7587 C.3     1  UNL1        0.2525
     30 O          12.0145   41.2704    5.6342 O.3     1  UNL1       -0.4701
@<TRIPOS>BOND
     1    12    13    1
     2    11    13    1
     3    11     7    1
     4     7     9   am
     5     2     3   ar
     6     4    16    1
     7     4     5   ar
     8    14    18    1
     9    18    27   ar
    10    19    28    1
    11    19    26   ar
    12    21    23   ar
    13    22    21    1
    14    24    25   ar
    15    25    26   ar
    16     6    30    1
    17     6     1   ar
    18    29    30    1
    19     9     1    1
    20    16    14   am
    21    26    20   ar
    22     7     8    2
    23     1     2   ar
    24     3     4   ar
    25    14    15    2
    26    18    19   ar
    27    20    21   ar
    28    23    24   ar
    29    25    27   ar
    30     5     6   ar
    31     9    10    1
    32    16    17    1
@<TRIPOS>MOLECULE
MolPort-045-963-317 952873328 CSSS00159698825 MCULE-7326464191 PubChem-131938632 ZINC000952873328
 30 32 0 0 0
SMALL
GASTEIGER

@<TRIPOS>ATOM
      1 C           8.3929   39.6599    5.5332 C.ar    1  UNL1        0.0849
      2 C           7.0811   39.4192    5.9537 C.ar    1  UNL1        0.0190
      3 C           6.3325   40.4294    6.5589 C.ar    1  UNL1        0.0162
      4 C           6.8952   41.6939    6.7714 C.ar    1  UNL1        0.0537
      5 C           8.2106   41.9347    6.3691 C.ar    1  UNL1        0.0528
      6 C           8.9774   40.9240    5.7650 C.ar    1  UNL1        0.1533
      7 C           9.4646   38.4875    3.5441 C.2     1  UNL1        0.2564
      8 O           8.9236   39.2404    2.6904 O.2     1  UNL1       -0.2720
      9 N           9.1190   38.5815    4.9295 N.am    1  UNL1       -0.2795
     10 H           9.4035   37.8443    5.5167 H       1  UNL1        0.1550
     11 C          10.4426   37.4557    3.1044 C.3     1  UNL1        0.2273
     12 C          10.8132   35.2934    3.3331 C.3     1  UNL1        0.1748
     13 O           9.8144   36.2132    3.0180 O.3     1  UNL1       -0.3417
     14 C           5.8244   42.8937    8.7504 C.2     1  UNL1        0.2711
     15 O           4.6960   43.3464    9.0762 O.2     1  UNL1       -0.2680
     16 N           6.1400   42.7604    7.3584 N.am    1  UNL1       -0.2789
     17 H           5.8089   43.4628    6.7532 H       1  UNL1        0.1552
     18 C           6.7922   42.5585    9.8105 C.ar    1  UNL1        0.1807
     19 C           6.5011   42.1377   11.1005 C.ar    1  UNL1        0.2311
     20 C           7.9100   41.4497   12.9735 C.ar    1  UNL1        0.0792
     21 C           9.2480   41.2654   13.3499 C.ar    1  UNL1       -0.0041
     22 C           9.5810   40.7878   14.7169 C.3     1  UNL1        0.0326
     23 C          10.2741   41.5341   12.4232 C.ar    1  UNL1        0.0003
     24 C           9.9673   41.9833   11.1281 C.ar    1  UNL1        0.0372
     25 C           8.6214   42.1512   10.8111 C.ar    1  UNL1        0.1496
     26 N           7.6624   41.8902   11.7155 N.ar    1  UNL1       -0.2662
     27 N           8.1356   42.5576    9.6192 N.ar    1  UNL1       -0.2194
     28 F           5.2761   41.9290   11.6450 F       1  UNL1       -0.1828
     29 C          11.3395   41.3296    6.3949 C.3     1  UNL1        0.2525
     30 O          10.3159   41.1518    5.4250 O.3     1  UNL1       -0.4701
@<TRIPOS>BOND
     1    12    13    1
     2    11    13    1
     3    11     7    1
     4     7     9   am
     5     2     3   ar
     6     4    16    1
     7     4     5   ar
     8    14    18    1
     9    18    27   ar
    10    19    28    1
    11    19    26   ar
    12    21    23   ar
    13    22    21    1
    14    24    25   ar
    15    25    26   ar
    16     6    30    1
    17     6     1   ar
    18    29    30    1
    19     9     1    1
    20    16    14   am
    21    26    20   ar
    22     7     8    2
    23     1     2   ar
    24     3     4   ar
    25    14    15    2
    26    18    19   ar
    27    20    21   ar
    28    23    24   ar
    29    25    27   ar
    30     5     6   ar
    31     9    10    1
    32    16    17    1
@<TRIPOS>MOLECULE
MolPort-045-963-317 952873328 CSSS00159698825 MCULE-7326464191 PubChem-131938632 ZINC000952873328
 30 32 0 0 0
SMALL
GASTEIGER

@<TRIPOS>ATOM
      1 C          12.7595   40.1471    9.8129 C.ar    1  UNL1        0.0849
      2 C          13.2464   39.5487   10.9792 C.ar    1  UNL1        0.0190
      3 C          14.6139   39.3269   11.1462 C.ar    1  UNL1        0.0162
      4 C          15.5152   39.6834   10.1355 C.ar    1  UNL1        0.0537
      5 C          15.0327   40.2655    8.9614 C.ar    1  UNL1        0.0528
      6 C          13.6574   40.4877    8.7780 C.ar    1  UNL1        0.1533
      7 C          10.6859   41.6032    9.5684 C.2     1  UNL1        0.2564
      8 O          11.2963   42.6766    9.8203 O.2     1  UNL1       -0.2720
      9 N          11.3442   40.3385    9.6903 N.am    1  UNL1       -0.2795
     10 H          10.7780   39.5331    9.6899 H       1  UNL1        0.1550
     11 C           9.2493   41.6439    9.1824 C.3     1  UNL1        0.2273
     12 C           8.1048   41.7607   11.0644 C.3     1  UNL1        0.1748
     13 O           8.5631   42.5394   10.0029 O.3     1  UNL1       -0.3417
     14 C          17.5971   38.2391   10.4223 C.2     1  UNL1        0.2711
     15 O          18.5795   38.1513   11.2044 O.2     1  UNL1       -0.2680
     16 N          16.9273   39.4999   10.2927 N.am    1  UNL1       -0.2789
     17 H          17.4862   40.3100   10.3136 H       1  UNL1        0.1552
     18 C          17.2002   37.0550    9.6391 C.ar    1  UNL1        0.1807
     19 C          17.9582   36.4001    8.6787 C.ar    1  UNL1        0.2311
     20 C          17.5566   34.3997    7.3357 C.ar    1  UNL1        0.0792
     21 C          16.6116   33.3920    7.0962 C.ar    1  UNL1       -0.0041
     22 C          16.8910   32.3269    6.0986 C.3     1  UNL1        0.0326
     23 C          15.3966   33.3950    7.8087 C.ar    1  UNL1        0.0003
     24 C          15.1261   34.3970    8.7554 C.ar    1  UNL1        0.0372
     25 C          16.1001   35.3737    8.9493 C.ar    1  UNL1        0.1496
     26 N          17.2496   35.3488    8.2538 N.ar    1  UNL1       -0.2662
     27 N          16.0255   36.4008    9.8220 N.ar    1  UNL1       -0.2194
     28 F          19.2197   36.6973    8.2776 F       1  UNL1       -0.1828
     29 C          13.7917   42.0993    6.9004 C.3     1  UNL1        0.2525
     30 O          13.1743   41.0097    7.5726 O.3     1  UNL1       -0.4701
@<TRIPOS>BOND
     1    12    13    1
     2    11    13    1
     3    11     7    1
     4     7     9   am
     5     2     3   ar
     6     4    16    1
     7     4     5   ar
     8    14    18    1
     9    18    27   ar
    10    19    28    1
    11    19    26   ar
    12    21    23   ar
    13    22    21    1
    14    24    25   ar
    15    25    26   ar
    16     6    30    1
    17     6     1   ar
    18    29    30    1
    19     9     1    1
    20    16    14   am
    21    26    20   ar
    22     7     8    2
    23     1     2   ar
    24     3     4   ar
    25    14    15    2
    26    18    19   ar
    27    20    21   ar
    28    23    24   ar
    29    25    27   ar
    30     5     6   ar
    31     9    10    1
    32    16    17    1
@<TRIPOS>MOLECULE
MolPort-045-963-317 952873328 CSSS00159698825 MCULE-7326464191 PubChem-131938632 ZINC000952873328
 30 32 0 0 0
SMALL
GASTEIGER

@<TRIPOS>ATOM
      1 C          11.7153   39.8687    6.9138 C.ar    1  UNL1        0.0849
      2 C          11.4981   38.8776    7.8762 C.ar    1  UNL1        0.0190
      3 C          12.1551   38.9260    9.1064 C.ar    1  UNL1        0.0162
      4 C          13.0579   39.9597    9.3841 C.ar    1  UNL1        0.0537
      5 C          13.2916   40.9426    8.4201 C.ar    1  UNL1        0.0528
      6 C          12.6419   40.9015    7.1748 C.ar    1  UNL1        0.1533
      7 C           9.6054   39.6489    5.5069 C.2     1  UNL1        0.2564
      8 O           8.8663   39.3759    6.4905 O.2     1  UNL1       -0.2720
      9 N          11.0233   39.7611    5.6631 N.am    1  UNL1       -0.2795
     10 H          11.5689   39.7646    4.8436 H       1  UNL1        0.1550
     11 C           9.0049   39.8133    4.1552 C.3     1  UNL1        0.2273
     12 C           9.9852   38.0139    3.3387 C.3     1  UNL1        0.1748
     13 O           8.7310   38.5620    3.6028 O.3     1  UNL1       -0.3417
     14 C          14.4221   38.9921   11.3090 C.2     1  UNL1        0.2711
     15 O          14.3443   38.8980   12.5617 O.2     1  UNL1       -0.2680
     16 N          13.7205   40.0548   10.6507 N.am    1  UNL1       -0.2789
     17 H          13.6915   40.9257   11.1089 H       1  UNL1        0.1552
     18 C          15.2646   38.0329   10.5721 C.ar    1  UNL1        0.1807
     19 C          16.6513   38.0094   10.5232 C.ar    1  UNL1        0.2311
     20 C          18.2436   36.4913    9.4618 C.ar    1  UNL1        0.0792
     21 C          18.3216   35.3305    8.6793 C.ar    1  UNL1       -0.0041
     22 C          19.6451   34.7829    8.2840 C.3     1  UNL1        0.0326
     23 C          17.1373   34.6860    8.2719 C.ar    1  UNL1        0.0003
     24 C          15.8824   35.1959    8.6438 C.ar    1  UNL1        0.0372
     25 C          15.8660   36.3531    9.4190 C.ar    1  UNL1        0.1496
     26 N          17.0111   36.9497    9.7913 N.ar    1  UNL1       -0.2662
     27 N          14.7627   36.9775    9.8823 N.ar    1  UNL1       -0.2194
     28 F          17.5147   38.8443   11.1542 F       1  UNL1       -0.1828
     29 C          13.8641   42.9060    6.3816 C.3     1  UNL1        0.2525
     30 O          12.9307   41.8517    6.1885 O.3     1  UNL1       -0.4701
@<TRIPOS>BOND
     1    12    13    1
     2    11    13    1
     3    11     7    1
     4     7     9   am
     5     2     3   ar
     6     4    16    1
     7     4     5   ar
     8    14    18    1
     9    18    27   ar
    10    19    28    1
    11    19    26   ar
    12    21    23   ar
    13    22    21    1
    14    24    25   ar
    15    25    26   ar
    16     6    30    1
    17     6     1   ar
    18    29    30    1
    19     9     1    1
    20    16    14   am
    21    26    20   ar
    22     7     8    2
    23     1     2   ar
    24     3     4   ar
    25    14    15    2
    26    18    19   ar
    27    20    21   ar
    28    23    24   ar
    29    25    27   ar
    30     5     6   ar
    31     9    10    1
    32    16    17    1
@<TRIPOS>MOLECULE
MolPort-045-963-317 952873328 CSSS00159698825 MCULE-7326464191 PubChem-131938632 ZINC000952873328
 30 32 0 0 0
SMALL
GASTEIGER

@<TRIPOS>ATOM
      1 C          10.0732   40.3592    9.4958 C.ar    1  UNL1        0.0849
      2 C          10.8741   40.9787   10.4603 C.ar    1  UNL1        0.0190
      3 C          12.0907   40.4127   10.8436 C.ar    1  UNL1        0.0162
      4 C          12.5150   39.2031   10.2798 C.ar    1  UNL1        0.0537
      5 C          11.7110   38.5713    9.3288 C.ar    1  UNL1        0.0528
      6 C          10.4806   39.1271    8.9395 C.ar    1  UNL1        0.1533
      7 C           8.5810   41.7405    7.9645 C.2     1  UNL1        0.2564
      8 O           9.5342   42.1429    7.2448 O.2     1  UNL1       -0.2720
      9 N           8.8276   40.9789    9.1505 N.am    1  UNL1       -0.2795
     10 H           8.0798   40.8716    9.7818 H       1  UNL1        0.1550
     11 C           7.1820   42.0979    7.6045 C.3     1  UNL1        0.2273
     12 C           6.4446   40.4313    6.3621 C.3     1  UNL1        0.1748
     13 O           6.9259   41.7370    6.2816 O.3     1  UNL1       -0.3417
     14 C          14.9894   38.7372    9.8762 C.2     1  UNL1        0.2711
     15 O          15.7586   37.7436    9.8018 O.2     1  UNL1       -0.2680
     16 N          13.7746   38.6161   10.6277 N.am    1  UNL1       -0.2789
     17 H          13.8090   38.0832   11.4548 H       1  UNL1        0.1552
     18 C          15.3869   39.9981    9.2243 C.ar    1  UNL1        0.1807
     19 C          14.6628   40.7106    8.2789 C.ar    1  UNL1        0.2311
     20 C          15.0673   42.8339    7.1412 C.ar    1  UNL1        0.0792
     21 C          15.9863   43.8888    7.0486 C.ar    1  UNL1       -0.0041
     22 C          15.7263   45.0284    6.1314 C.3     1  UNL1        0.0326
     23 C          17.1565   43.8619    7.8320 C.ar    1  UNL1        0.0003
     24 C          17.4082   42.7894    8.7036 C.ar    1  UNL1        0.0372
     25 C          16.4619   41.7685    8.7518 C.ar    1  UNL1        0.1496
     26 N          15.3552   41.8178    7.9911 N.ar    1  UNL1       -0.2662
     27 N          16.5235   40.6711    9.5354 N.ar    1  UNL1       -0.2194
     28 F          13.4391   40.4096    7.7763 F       1  UNL1       -0.1828
     29 C           9.7074   38.6640    6.6311 C.3     1  UNL1        0.2525
     30 O           9.6491   38.4555    8.0359 O.3     1  UNL1       -0.4701
@<TRIPOS>BOND
     1    12    13    1
     2    11    13    1
     3    11     7    1
     4     7     9   am
     5     2     3   ar
     6     4    16    1
     7     4     5   ar
     8    14    18    1
     9    18    27   ar
    10    19    28    1
    11    19    26   ar
    12    21    23   ar
    13    22    21    1
    14    24    25   ar
    15    25    26   ar
    16     6    30    1
    17     6     1   ar
    18    29    30    1
    19     9     1    1
    20    16    14   am
    21    26    20   ar
    22     7     8    2
    23     1     2   ar
    24     3     4   ar
    25    14    15    2
    26    18    19   ar
    27    20    21   ar
    28    23    24   ar
    29    25    27   ar
    30     5     6   ar
    31     9    10    1
    32    16    17    1
@<TRIPOS>MOLECULE
MolPort-045-963-317 952873328 CSSS00159698825 MCULE-7326464191 PubChem-131938632 ZINC000952873328
 30 32 0 0 0
SMALL
GASTEIGER

@<TRIPOS>ATOM
      1 C           9.6309   39.1243    6.4323 C.ar    1  UNL1        0.0849
      2 C          10.8947   39.3073    7.0025 C.ar    1  UNL1        0.0190
      3 C          11.0466   40.0634    8.1654 C.ar    1  UNL1        0.0162
      4 C           9.9343   40.6668    8.7651 C.ar    1  UNL1        0.0537
      5 C           8.6724   40.5017    8.1904 C.ar    1  UNL1        0.0528
      6 C           8.5070   39.7487    7.0156 C.ar    1  UNL1        0.1533
      7 C           9.7681   38.8398    3.9065 C.2     1  UNL1        0.2564
      8 O           9.8259   40.0777    3.6769 O.2     1  UNL1       -0.2720
      9 N           9.5363   38.3489    5.2304 N.am    1  UNL1       -0.2795
     10 H           9.2915   37.3999    5.3236 H       1  UNL1        0.1550
     11 C           9.8973   37.8735    2.7822 C.3     1  UNL1        0.2273
     12 C          10.4675   35.8094    3.3108 C.3     1  UNL1        0.1748
     13 O           9.3598   36.6407    3.1525 O.3     1  UNL1       -0.3417
     14 C          10.8185   41.0352   11.1284 C.2     1  UNL1        0.2711
     15 O          10.3621   41.2905   12.2733 O.2     1  UNL1       -0.2680
     16 N          10.0542   41.4195    9.9782 N.am    1  UNL1       -0.2789
     17 H           9.5695   42.2751   10.0259 H       1  UNL1        0.1552
     18 C          12.1389   40.3900   11.0139 C.ar    1  UNL1        0.1807
     19 C          13.1615   40.7361   10.1419 C.ar    1  UNL1        0.2311
     20 C          15.4311   39.8871    9.8340 C.ar    1  UNL1        0.0792
     21 C          16.3402   38.9392   10.3249 C.ar    1  UNL1       -0.0041
     22 C          17.7016   38.8356    9.7387 C.3     1  UNL1        0.0326
     23 C          15.9551   38.0872   11.3782 C.ar    1  UNL1        0.0003
     24 C          14.6708   38.1807   11.9395 C.ar    1  UNL1        0.0372
     25 C          13.8093   39.1386   11.4099 C.ar    1  UNL1        0.1496
     26 N          14.2014   39.9369   10.4026 N.ar    1  UNL1       -0.2662
     27 N          12.5496   39.3846   11.8276 N.ar    1  UNL1       -0.2194
     28 F          13.1679   41.7446    9.2345 F       1  UNL1       -0.1828
     29 C           6.1159   40.3774    6.8470 C.3     1  UNL1        0.2525
     30 O           7.2506   39.6426    6.4080 O.3     1  UNL1       -0.4701
@<TRIPOS>BOND
     1    12    13    1
     2    11    13    1
     3    11     7    1
     4     7     9   am
     5     2     3   ar
     6     4    16    1
     7     4     5   ar
     8    14    18    1
     9    18    27   ar
    10    19    28    1
    11    19    26   ar
    12    21    23   ar
    13    22    21    1
    14    24    25   ar
    15    25    26   ar
    16     6    30    1
    17     6     1   ar
    18    29    30    1
    19     9     1    1
    20    16    14   am
    21    26    20   ar
    22     7     8    2
    23     1     2   ar
    24     3     4   ar
    25    14    15    2
    26    18    19   ar
    27    20    21   ar
    28    23    24   ar
    29    25    27   ar
    30     5     6   ar
    31     9    10    1
    32    16    17    1
