@<TRIPOS>MOLECULE
MolPort-020-275-226 CHEMBL3449729 MCULE-7637418685 PubChem-110252903
 24 26 0 0 0
SMALL
GASTEIGER

@<TRIPOS>ATOM
      1 N          12.3822   40.9355    7.5260 N.ar    1  UNL1       -0.2317
      2 N           9.8151   40.1789    6.9870 N.ar    1  UNL1       -0.2382
      3 C          11.8242   39.9237    8.2422 C.ar    1  UNL1        0.0805
      4 C          11.6949   41.5817    6.5467 C.ar    1  UNL1        0.1522
      5 C          10.3782   41.1892    6.2743 C.ar    1  UNL1        0.1332
      6 C          10.5070   39.5375    7.9640 C.ar    1  UNL1        0.1137
      7 N          14.7918   38.0922    9.7785 N.3     1  UNL1       -0.1590
      8 C          13.9586   38.7365    8.7523 C.3     1  UNL1        0.1013
      9 C          12.6261   39.2495    9.3087 C.3     1  UNL1        0.0596
     10 C          12.8694   40.1840   10.4854 C.3     1  UNL1        0.0089
     11 C          13.6626   39.4480   11.5510 C.3     1  UNL1        0.0196
     12 C          14.9820   38.9438   10.9632 C.3     1  UNL1        0.0954
     13 S          14.1581   36.5274   10.2130 S.O2    1  UNL1        0.0457
     14 O          14.3161   36.3181   11.6928 O.2     1  UNL1       -0.1572
     15 O          14.8818   35.4322    9.4799 O.2     1  UNL1       -0.1572
     16 C          12.4282   36.4524    9.8077 C.3     1  UNL1        0.1960
     17 N          12.3402   42.6415    5.8265 N.pl3   1  UNL1       -0.2821
     18 H          11.8502   43.0050    5.0538 H       1  UNL1        0.1551
     19 N          13.9450   44.4692    5.6350 N.ar    1  UNL1       -0.2290
     20 C          13.6172   43.2320    6.1036 C.ar    1  UNL1        0.1333
     21 C          15.1541   45.0367    5.8931 C.ar    1  UNL1        0.1003
     22 C          16.1000   44.3507    6.6569 C.ar    1  UNL1        0.0208
     23 C          15.7874   43.0823    7.1476 C.ar    1  UNL1        0.0045
     24 C          14.5409   42.5177    6.8714 C.ar    1  UNL1        0.0345
@<TRIPOS>BOND
     1    13     7    1
     2    13    16    1
     3    17    20    1
     4     8     7    1
     5     8     9    1
     6     9     3    1
     7     9    10    1
     8     4     1   ar
     9     4    17    1
    10    21    19   ar
    11    22    23   ar
    12    24    20   ar
    13     5     2   ar
    14     6     3   ar
    15    10    11    1
    16    11    12    1
    17    12     7    1
    18    13    14    2
    19    13    15    2
    20     3     1   ar
    21     4     5   ar
    22    20    19   ar
    23    21    22   ar
    24    23    24   ar
    25     6     2   ar
    26    17    18    1
@<TRIPOS>MOLECULE
MolPort-020-275-226 CHEMBL3449729 MCULE-7637418685 PubChem-110252903
 24 26 0 0 0
SMALL
GASTEIGER

@<TRIPOS>ATOM
      1 N          12.5665   40.5504    7.5390 N.ar    1  UNL1       -0.2317
      2 N           9.8882   40.7652    8.0221 N.ar    1  UNL1       -0.2382
      3 C          11.9868   39.7194    8.4452 C.ar    1  UNL1        0.0805
      4 C          11.8468   41.4872    6.8655 C.ar    1  UNL1        0.1522
      5 C          10.4730   41.5928    7.1173 C.ar    1  UNL1        0.1332
      6 C          10.6127   39.8316    8.6915 C.ar    1  UNL1        0.1137
      7 N          14.1862   38.3040   11.2167 N.3     1  UNL1       -0.1590
      8 C          13.3774   39.2786   10.4694 C.3     1  UNL1        0.1013
      9 C          12.8271   38.7087    9.1577 C.3     1  UNL1        0.0596
     10 C          12.0417   37.4324    9.4244 C.3     1  UNL1        0.0089
     11 C          12.9425   36.4295   10.1237 C.3     1  UNL1        0.0196
     12 C          13.4800   37.0300   11.4241 C.3     1  UNL1        0.0954
     13 S          15.7360   38.0577   10.4574 S.O2    1  UNL1        0.0457
     14 O          15.6605   38.4853    9.0186 O.2     1  UNL1       -0.1572
     15 O          16.1419   36.6115   10.5216 O.2     1  UNL1       -0.1572
     16 C          16.9658   39.0430   11.2815 C.3     1  UNL1        0.1960
     17 N          12.5174   42.3342    5.9215 N.pl3   1  UNL1       -0.2821
     18 H          12.1119   42.3962    5.0265 H       1  UNL1        0.1551
     19 N          13.8702   44.3351    5.5771 N.ar    1  UNL1       -0.2290
     20 C          13.7108   43.1007    6.1324 C.ar    1  UNL1        0.1333
     21 C          14.9990   45.0690    5.7721 C.ar    1  UNL1        0.1003
     22 C          16.0350   44.5629    6.5591 C.ar    1  UNL1        0.0208
     23 C          15.8949   43.3011    7.1384 C.ar    1  UNL1        0.0045
     24 C          14.7285   42.5642    6.9259 C.ar    1  UNL1        0.0345
@<TRIPOS>BOND
     1    13     7    1
     2    13    16    1
     3    17    20    1
     4     8     7    1
     5     8     9    1
     6     9     3    1
     7     9    10    1
     8     4     1   ar
     9     4    17    1
    10    21    19   ar
    11    22    23   ar
    12    24    20   ar
    13     5     2   ar
    14     6     3   ar
    15    10    11    1
    16    11    12    1
    17    12     7    1
    18    13    14    2
    19    13    15    2
    20     3     1   ar
    21     4     5   ar
    22    20    19   ar
    23    21    22   ar
    24    23    24   ar
    25     6     2   ar
    26    17    18    1
@<TRIPOS>MOLECULE
MolPort-020-275-226 CHEMBL3449729 MCULE-7637418685 PubChem-110252903
 24 26 0 0 0
SMALL
GASTEIGER

@<TRIPOS>ATOM
      1 N          10.6178   41.9828    7.2346 N.ar    1  UNL1       -0.2317
      2 N          11.3863   39.4166    7.7608 N.ar    1  UNL1       -0.2382
      3 C           9.8693   41.2259    8.0801 C.ar    1  UNL1        0.0805
      4 C          11.7410   41.4952    6.6432 C.ar    1  UNL1        0.1522
      5 C          12.1306   40.1779    6.9169 C.ar    1  UNL1        0.1332
      6 C          10.2654   39.9097    8.3483 C.ar    1  UNL1        0.1137
      7 N           6.1541   41.9565    8.5103 N.3     1  UNL1       -0.1590
      8 C           7.3875   41.4224    7.9138 C.3     1  UNL1        0.1013
      9 C           8.6427   41.8134    8.7011 C.3     1  UNL1        0.0596
     10 C           8.5075   41.3885   10.1564 C.3     1  UNL1        0.0089
     11 C           7.2652   42.0296   10.7497 C.3     1  UNL1        0.0196
     12 C           6.0325   41.6257    9.9388 C.3     1  UNL1        0.0954
     13 S           6.0153   43.6729    8.2391 S.O2    1  UNL1        0.0457
     14 O           4.8484   44.2089    9.0199 O.2     1  UNL1       -0.1572
     15 O           5.8111   43.9714    6.7797 O.2     1  UNL1       -0.1572
     16 C           7.4960   44.4850    8.7962 C.3     1  UNL1        0.1960
     17 N          12.4878   42.3445    5.7606 N.pl3   1  UNL1       -0.2821
     18 H          12.1397   42.4347    4.8441 H       1  UNL1        0.1551
     19 N          13.8934   44.3290    5.5643 N.ar    1  UNL1       -0.2290
     20 C          13.6834   43.0772    6.0606 C.ar    1  UNL1        0.1333
     21 C          15.0246   45.0310    5.8439 C.ar    1  UNL1        0.1003
     22 C          16.0105   44.4729    6.6596 C.ar    1  UNL1        0.0208
     23 C          15.8180   43.1923    7.1797 C.ar    1  UNL1        0.0045
     24 C          14.6500   42.4887    6.8806 C.ar    1  UNL1        0.0345
@<TRIPOS>BOND
     1    13     7    1
     2    13    16    1
     3    17    20    1
     4     8     7    1
     5     8     9    1
     6     9     3    1
     7     9    10    1
     8     4     1   ar
     9     4    17    1
    10    21    19   ar
    11    22    23   ar
    12    24    20   ar
    13     5     2   ar
    14     6     3   ar
    15    10    11    1
    16    11    12    1
    17    12     7    1
    18    13    14    2
    19    13    15    2
    20     3     1   ar
    21     4     5   ar
    22    20    19   ar
    23    21    22   ar
    24    23    24   ar
    25     6     2   ar
    26    17    18    1
@<TRIPOS>MOLECULE
MolPort-020-275-226 CHEMBL3449729 MCULE-7637418685 PubChem-110252903
 24 26 0 0 0
SMALL
GASTEIGER

@<TRIPOS>ATOM
      1 N          13.7205   41.2146    7.6977 N.ar    1  UNL1       -0.2317
      2 N          14.6045   43.3723    6.2778 N.ar    1  UNL1       -0.2382
      3 C          12.8782   41.8223    6.8205 C.ar    1  UNL1        0.0805
      4 C          14.9936   41.6534    7.8870 C.ar    1  UNL1        0.1522
      5 C          15.4418   42.7608    7.1557 C.ar    1  UNL1        0.1332
      6 C          13.3339   42.9291    6.0934 C.ar    1  UNL1        0.1137
      7 N          10.1003   39.2185    6.6627 N.3     1  UNL1       -0.1590
      8 C          11.4566   39.7720    6.7906 C.3     1  UNL1        0.1013
      9 C          11.4881   41.2980    6.6538 C.3     1  UNL1        0.0596
     10 C          10.5368   41.9381    7.6549 C.3     1  UNL1        0.0089
     11 C           9.1365   41.3953    7.4295 C.3     1  UNL1        0.0196
     12 C           9.1400   39.8715    7.5662 C.3     1  UNL1        0.0954
     13 S           9.5537   39.2672    5.0080 S.O2    1  UNL1        0.0457
     14 O           8.2656   40.0376    4.9303 O.2     1  UNL1       -0.1572
     15 O           9.3312   37.8792    4.4747 O.2     1  UNL1       -0.1572
     16 C          10.7704   40.0871    4.0032 C.3     1  UNL1        0.1960
     17 N          15.8333   40.9687    8.8273 N.pl3   1  UNL1       -0.2821
     18 H          16.8029   41.1062    8.7266 H       1  UNL1        0.1551
     19 N          14.1376   40.1044   10.3537 N.ar    1  UNL1       -0.2290
     20 C          15.4217   40.1071    9.8971 C.ar    1  UNL1        0.1333
     21 C          13.7387   39.2902   11.3680 C.ar    1  UNL1        0.1003
     22 C          14.6535   38.4259   11.9720 C.ar    1  UNL1        0.0208
     23 C          15.9742   38.4107   11.5217 C.ar    1  UNL1        0.0045
     24 C          16.3632   39.2541   10.4795 C.ar    1  UNL1        0.0345
@<TRIPOS>BOND
     1    13     7    1
     2    13    16    1
     3    17    20    1
     4     8     7    1
     5     8     9    1
     6     9     3    1
     7     9    10    1
     8     4     1   ar
     9     4    17    1
    10    21    19   ar
    11    22    23   ar
    12    24    20   ar
    13     5     2   ar
    14     6     3   ar
    15    10    11    1
    16    11    12    1
    17    12     7    1
    18    13    14    2
    19    13    15    2
    20     3     1   ar
    21     4     5   ar
    22    20    19   ar
    23    21    22   ar
    24    23    24   ar
    25     6     2   ar
    26    17    18    1
@<TRIPOS>MOLECULE
MolPort-020-275-226 CHEMBL3449729 MCULE-7637418685 PubChem-110252903
 24 26 0 0 0
SMALL
GASTEIGER

@<TRIPOS>ATOM
      1 N          13.3601   41.0844    7.7169 N.ar    1  UNL1       -0.2317
      2 N          14.0704   43.2211    6.1733 N.ar    1  UNL1       -0.2382
      3 C          12.4375   41.6398    6.8872 C.ar    1  UNL1        0.0805
      4 C          14.6294   41.5654    7.7986 C.ar    1  UNL1        0.1522
      5 C          14.9883   42.6617    7.0042 C.ar    1  UNL1        0.1332
      6 C          12.8042   42.7359    6.0965 C.ar    1  UNL1        0.1137
      7 N           9.0010   40.8749    5.4286 N.3     1  UNL1       -0.1590
      8 C          10.3543   41.4417    5.5284 C.3     1  UNL1        0.1013
      9 C          11.0558   41.0707    6.8392 C.3     1  UNL1        0.0596
     10 C          11.0788   39.5591    7.0169 C.3     1  UNL1        0.0089
     11 C           9.6548   39.0319    6.9877 C.3     1  UNL1        0.0196
     12 C           8.9809   39.4239    5.6714 C.3     1  UNL1        0.0954
     13 S           7.8885   41.7125    6.4773 S.O2    1  UNL1        0.0457
     14 O           7.2478   42.8440    5.7237 O.2     1  UNL1       -0.1572
     15 O           8.5978   42.2623    7.6836 O.2     1  UNL1       -0.1572
     16 C           6.6165   40.5911    7.0127 C.3     1  UNL1        0.1960
     17 N          15.5565   40.9349    8.6937 N.pl3   1  UNL1       -0.2821
     18 H          16.5115   41.0945    8.5156 H       1  UNL1        0.1551
     19 N          16.2031   39.3184   10.4028 N.ar    1  UNL1       -0.2290
     20 C          15.2511   40.0990    9.8180 C.ar    1  UNL1        0.1333
     21 C          15.9220   38.5225   11.4697 C.ar    1  UNL1        0.1003
     22 C          14.6295   38.4891   11.9961 C.ar    1  UNL1        0.0208
     23 C          13.6377   39.2797   11.4143 C.ar    1  UNL1        0.0045
     24 C          13.9468   40.0896   10.3200 C.ar    1  UNL1        0.0345
@<TRIPOS>BOND
     1    13     7    1
     2    13    16    1
     3    17    20    1
     4     8     7    1
     5     8     9    1
     6     9     3    1
     7     9    10    1
     8     4     1   ar
     9     4    17    1
    10    21    19   ar
    11    22    23   ar
    12    24    20   ar
    13     5     2   ar
    14     6     3   ar
    15    10    11    1
    16    11    12    1
    17    12     7    1
    18    13    14    2
    19    13    15    2
    20     3     1   ar
    21     4     5   ar
    22    20    19   ar
    23    21    22   ar
    24    23    24   ar
    25     6     2   ar
    26    17    18    1
@<TRIPOS>MOLECULE
MolPort-020-275-226 CHEMBL3449729 MCULE-7637418685 PubChem-110252903
 24 26 0 0 0
SMALL
GASTEIGER

@<TRIPOS>ATOM
      1 N          10.7963   41.8523    7.4357 N.ar    1  UNL1       -0.2317
      2 N          11.5556   41.0212    9.9228 N.ar    1  UNL1       -0.2382
      3 C           9.8508   41.6911    8.3990 C.ar    1  UNL1        0.0805
      4 C          12.1123   41.6104    7.6782 C.ar    1  UNL1        0.1522
      5 C          12.4961   41.1843    8.9561 C.ar    1  UNL1        0.1332
      6 C          10.2427   41.2644    9.6741 C.ar    1  UNL1        0.1137
      7 N           6.4717   43.4370    8.6332 N.3     1  UNL1       -0.1590
      8 C           7.8720   43.1107    8.9416 C.3     1  UNL1        0.1013
      9 C           8.4180   41.9702    8.0759 C.3     1  UNL1        0.0596
     10 C           8.2422   42.2966    6.5996 C.3     1  UNL1        0.0089
     11 C           6.7713   42.5457    6.3157 C.3     1  UNL1        0.0196
     12 C           6.2556   43.6835    7.1988 C.3     1  UNL1        0.0954
     13 S           5.3910   42.2108    9.2395 S.O2    1  UNL1        0.0457
     14 O           5.7828   41.8509   10.6450 O.2     1  UNL1       -0.1572
     15 O           5.4429   40.9772    8.3816 O.2     1  UNL1       -0.1572
     16 C           3.7272   42.8383    9.2540 C.3     1  UNL1        0.1960
     17 N          13.0615   41.7994    6.6193 N.pl3   1  UNL1       -0.2821
     18 H          13.0068   41.1671    5.8666 H       1  UNL1        0.1551
     19 N          13.8805   43.9620    5.8413 N.ar    1  UNL1       -0.2290
     20 C          14.0810   42.8040    6.5317 C.ar    1  UNL1        0.1333
     21 C          14.8421   44.9202    5.7533 C.ar    1  UNL1        0.1003
     22 C          16.0756   44.7329    6.3797 C.ar    1  UNL1        0.0208
     23 C          16.3044   43.5553    7.0925 C.ar    1  UNL1        0.0045
     24 C          15.3044   42.5844    7.1707 C.ar    1  UNL1        0.0345
@<TRIPOS>BOND
     1    13     7    1
     2    13    16    1
     3    17    20    1
     4     8     7    1
     5     8     9    1
     6     9     3    1
     7     9    10    1
     8     4     1   ar
     9     4    17    1
    10    21    19   ar
    11    22    23   ar
    12    24    20   ar
    13     5     2   ar
    14     6     3   ar
    15    10    11    1
    16    11    12    1
    17    12     7    1
    18    13    14    2
    19    13    15    2
    20     3     1   ar
    21     4     5   ar
    22    20    19   ar
    23    21    22   ar
    24    23    24   ar
    25     6     2   ar
    26    17    18    1
@<TRIPOS>MOLECULE
MolPort-020-275-226 CHEMBL3449729 MCULE-7637418685 PubChem-110252903
 24 26 0 0 0
SMALL
GASTEIGER

@<TRIPOS>ATOM
      1 N          12.7236   40.5869    7.6888 N.ar    1  UNL1       -0.2317
      2 N          12.0732   39.7918   10.2182 N.ar    1  UNL1       -0.2382
      3 C          11.4722   40.1165    7.9357 C.ar    1  UNL1        0.0805
      4 C          13.6615   40.6722    8.6697 C.ar    1  UNL1        0.1522
      5 C          13.3222   40.2630    9.9656 C.ar    1  UNL1        0.1332
      6 C          11.1410   39.7091    9.2340 C.ar    1  UNL1        0.1137
      7 N           8.8351   38.5492    5.6749 N.3     1  UNL1       -0.1590
      8 C           9.8394   38.6539    6.7440 C.3     1  UNL1        0.1013
      9 C          10.4814   40.0433    6.8184 C.3     1  UNL1        0.0596
     10 C           9.4092   41.1137    6.9652 C.3     1  UNL1        0.0089
     11 C           8.4444   41.0165    5.7964 C.3     1  UNL1        0.0196
     12 C           7.8263   39.6180    5.7459 C.3     1  UNL1        0.0954
     13 S           9.5904   38.4884    4.1050 S.O2    1  UNL1        0.0457
     14 O           8.8129   39.3427    3.1436 O.2     1  UNL1       -0.1572
     15 O           9.6367   37.0783    3.5854 O.2     1  UNL1       -0.1572
     16 C          11.2487   39.1205    4.2175 C.3     1  UNL1        0.1960
     17 N          14.9643   41.1775    8.3451 N.pl3   1  UNL1       -0.2821
     18 H          15.7298   40.6523    8.6729 H       1  UNL1        0.1551
     19 N          16.4454   43.0368    7.7957 N.ar    1  UNL1       -0.2290
     20 C          15.2790   42.3601    7.5976 C.ar    1  UNL1        0.1333
     21 C          16.7519   44.1594    7.0910 C.ar    1  UNL1        0.1003
     22 C          15.8616   44.6492    6.1339 C.ar    1  UNL1        0.0208
     23 C          14.6608   43.9735    5.9132 C.ar    1  UNL1        0.0045
     24 C          14.3653   42.8232    6.6470 C.ar    1  UNL1        0.0345
@<TRIPOS>BOND
     1    13     7    1
     2    13    16    1
     3    17    20    1
     4     8     7    1
     5     8     9    1
     6     9     3    1
     7     9    10    1
     8     4     1   ar
     9     4    17    1
    10    21    19   ar
    11    22    23   ar
    12    24    20   ar
    13     5     2   ar
    14     6     3   ar
    15    10    11    1
    16    11    12    1
    17    12     7    1
    18    13    14    2
    19    13    15    2
    20     3     1   ar
    21     4     5   ar
    22    20    19   ar
    23    21    22   ar
    24    23    24   ar
    25     6     2   ar
    26    17    18    1
@<TRIPOS>MOLECULE
MolPort-020-275-226 CHEMBL3449729 MCULE-7637418685 PubChem-110252903
 24 26 0 0 0
SMALL
GASTEIGER

@<TRIPOS>ATOM
      1 N          12.0938   42.4292    7.3050 N.ar    1  UNL1       -0.2317
      2 N          13.3228   40.2777    8.4510 N.ar    1  UNL1       -0.2382
      3 C          11.3400   41.3747    7.7148 C.ar    1  UNL1        0.0805
      4 C          13.4457   42.4411    7.4510 C.ar    1  UNL1        0.1522
      5 C          14.0709   41.3346    8.0398 C.ar    1  UNL1        0.1332
      6 C          11.9728   40.2720    8.3023 C.ar    1  UNL1        0.1137
      7 N           7.7590   40.0717    7.7360 N.3     1  UNL1       -0.1590
      8 C           9.2227   40.0649    7.8781 C.3     1  UNL1        0.1013
      9 C           9.8573   41.4151    7.5280 C.3     1  UNL1        0.0596
     10 C           9.2297   42.5253    8.3590 C.3     1  UNL1        0.0089
     11 C           7.7308   42.5435    8.1160 C.3     1  UNL1        0.0196
     12 C           7.1292   41.1817    8.4682 C.3     1  UNL1        0.0954
     13 S           7.2892   40.0672    6.0572 S.O2    1  UNL1        0.0457
     14 O           6.9631   41.4695    5.6264 O.2     1  UNL1       -0.1572
     15 O           6.0867   39.1917    5.8383 O.2     1  UNL1       -0.1572
     16 C           8.6353   39.4636    5.0642 C.3     1  UNL1        0.1960
     17 N          14.1847   43.5843    6.9981 N.pl3   1  UNL1       -0.2821
     18 H          13.6529   44.3474    6.6756 H       1  UNL1        0.1551
     19 N          16.3475   43.8030    8.1058 N.ar    1  UNL1       -0.2290
     20 C          15.6094   43.7424    6.9616 C.ar    1  UNL1        0.1333
     21 C          17.6994   43.9529    8.0802 C.ar    1  UNL1        0.1003
     22 C          18.3694   44.0493    6.8593 C.ar    1  UNL1        0.0208
     23 C          17.6352   43.9899    5.6742 C.ar    1  UNL1        0.0045
     24 C          16.2486   43.8357    5.7222 C.ar    1  UNL1        0.0345
@<TRIPOS>BOND
     1    13     7    1
     2    13    16    1
     3    17    20    1
     4     8     7    1
     5     8     9    1
     6     9     3    1
     7     9    10    1
     8     4     1   ar
     9     4    17    1
    10    21    19   ar
    11    22    23   ar
    12    24    20   ar
    13     5     2   ar
    14     6     3   ar
    15    10    11    1
    16    11    12    1
    17    12     7    1
    18    13    14    2
    19    13    15    2
    20     3     1   ar
    21     4     5   ar
    22    20    19   ar
    23    21    22   ar
    24    23    24   ar
    25     6     2   ar
    26    17    18    1
@<TRIPOS>MOLECULE
MolPort-020-275-226 CHEMBL3449729 MCULE-7637418685 PubChem-110252903
 24 26 0 0 0
SMALL
GASTEIGER

@<TRIPOS>ATOM
      1 N          13.3192   40.6854    8.7881 N.ar    1  UNL1       -0.2317
      2 N          13.0892   39.4921   11.2327 N.ar    1  UNL1       -0.2382
      3 C          12.0812   40.4330    9.2897 C.ar    1  UNL1        0.0805
      4 C          14.4479   40.3590    9.4726 C.ar    1  UNL1        0.1522
      5 C          14.3239   39.7470   10.7264 C.ar    1  UNL1        0.1332
      6 C          11.9657   39.8206   10.5438 C.ar    1  UNL1        0.1137
      7 N           8.8253   39.9106    7.3795 N.3     1  UNL1       -0.1590
      8 C          10.0394   39.5768    8.1393 C.3     1  UNL1        0.1013
      9 C          10.8745   40.8121    8.4926 C.3     1  UNL1        0.0596
     10 C          10.0228   41.8304    9.2374 C.3     1  UNL1        0.0089
     11 C           8.8267   42.2032    8.3791 C.3     1  UNL1        0.0196
     12 C           8.0186   40.9495    8.0388 C.3     1  UNL1        0.0954
     13 S           9.2110   40.3492    5.7370 S.O2    1  UNL1        0.0457
     14 O           9.2484   41.8467    5.6158 O.2     1  UNL1       -0.1572
     15 O           8.1878   39.8024    4.7806 O.2     1  UNL1       -0.1572
     16 C          10.8108   39.7019    5.3081 C.3     1  UNL1        0.1960
     17 N          15.7253   40.6518    8.8888 N.pl3   1  UNL1       -0.2821
     18 H          16.3880   39.9239    8.9025 H       1  UNL1        0.1551
     19 N          15.3985   42.4999    7.3300 N.ar    1  UNL1       -0.2290
     20 C          16.1470   41.8834    8.2877 C.ar    1  UNL1        0.1333
     21 C          15.7912   43.6684    6.7546 C.ar    1  UNL1        0.1003
     22 C          16.9902   44.2700    7.1408 C.ar    1  UNL1        0.0208
     23 C          17.7739   43.6576    8.1197 C.ar    1  UNL1        0.0045
     24 C          17.3529   42.4587    8.6978 C.ar    1  UNL1        0.0345
@<TRIPOS>BOND
     1    13     7    1
     2    13    16    1
     3    17    20    1
     4     8     7    1
     5     8     9    1
     6     9     3    1
     7     9    10    1
     8     4     1   ar
     9     4    17    1
    10    21    19   ar
    11    22    23   ar
    12    24    20   ar
    13     5     2   ar
    14     6     3   ar
    15    10    11    1
    16    11    12    1
    17    12     7    1
    18    13    14    2
    19    13    15    2
    20     3     1   ar
    21     4     5   ar
    22    20    19   ar
    23    21    22   ar
    24    23    24   ar
    25     6     2   ar
    26    17    18    1
@<TRIPOS>MOLECULE
MolPort-020-275-226 CHEMBL3449729 MCULE-7637418685 PubChem-110252903
 24 26 0 0 0
SMALL
GASTEIGER

@<TRIPOS>ATOM
      1 N          12.2800   41.5041    8.5791 N.ar    1  UNL1       -0.2317
      2 N          12.3360   40.0353   10.8796 N.ar    1  UNL1       -0.2382
      3 C          11.1331   41.3407    9.2904 C.ar    1  UNL1        0.0805
      4 C          13.4563   40.9547    8.9835 C.ar    1  UNL1        0.1522
      5 C          13.4792   40.2022   10.1647 C.ar    1  UNL1        0.1332
      6 C          11.1643   40.5866   10.4701 C.ar    1  UNL1        0.1137
      7 N           7.4903   41.4976    8.1825 N.3     1  UNL1       -0.1590
      8 C           8.7625   40.9171    8.6376 C.3     1  UNL1        0.1013
      9 C           9.8678   41.9663    8.7976 C.3     1  UNL1        0.0596
     10 C           9.4083   43.0803    9.7276 C.3     1  UNL1        0.0089
     11 C           8.1381   43.7009    9.1728 C.3     1  UNL1        0.0196
     12 C           7.0582   42.6283    9.0189 C.3     1  UNL1        0.0954
     13 S           7.5678   41.9429    6.4988 S.O2    1  UNL1        0.0457
     14 O           6.8915   40.8863    5.6713 O.2     1  UNL1       -0.1572
     15 O           8.9944   42.0859    6.0461 O.2     1  UNL1       -0.1572
     16 C           6.7229   43.4881    6.2524 C.3     1  UNL1        0.1960
     17 N          14.6320   41.1640    8.1886 N.pl3   1  UNL1       -0.2821
     18 H          15.3024   40.4432    8.2036 H       1  UNL1        0.1551
     19 N          14.1445   42.6709    6.3328 N.ar    1  UNL1       -0.2290
     20 C          14.9424   42.3030    7.3747 C.ar    1  UNL1        0.1333
     21 C          14.4315   43.7499    5.5557 C.ar    1  UNL1        0.1003
     22 C          15.5697   44.5156    5.8148 C.ar    1  UNL1        0.0208
     23 C          16.4022   44.1586    6.8763 C.ar    1  UNL1        0.0045
     24 C          16.0897   43.0477    7.6618 C.ar    1  UNL1        0.0345
@<TRIPOS>BOND
     1    13     7    1
     2    13    16    1
     3    17    20    1
     4     8     7    1
     5     8     9    1
     6     9     3    1
     7     9    10    1
     8     4     1   ar
     9     4    17    1
    10    21    19   ar
    11    22    23   ar
    12    24    20   ar
    13     5     2   ar
    14     6     3   ar
    15    10    11    1
    16    11    12    1
    17    12     7    1
    18    13    14    2
    19    13    15    2
    20     3     1   ar
    21     4     5   ar
    22    20    19   ar
    23    21    22   ar
    24    23    24   ar
    25     6     2   ar
    26    17    18    1
