@<TRIPOS>MOLECULE
MolPort-047-073-940 MCULE-3027997471 PubChem-132766335
 30 33 0 0 0
SMALL
GASTEIGER

@<TRIPOS>ATOM
      1 C          16.5657   41.8326    8.4490 C.ar    1  UNL1        0.1361
      2 C          15.1920   41.6027    8.3797 C.ar    1  UNL1        0.0492
      3 C          14.4451   42.2959    7.4274 C.ar    1  UNL1        0.0641
      4 C          16.4020   43.3883    6.6719 C.ar    1  UNL1        0.1406
      5 C          17.0571   44.3525    5.7503 C.3     1  UNL1        0.0737
      6 N          15.0629   43.1752    6.5921 N.ar    1  UNL1       -0.2349
      7 N          17.1429   42.7204    7.5940 N.ar    1  UNL1       -0.2159
      8 C          12.9729   42.0650    7.3374 C.3     1  UNL1        0.0564
      9 C          12.2890   42.4431    8.6440 C.3     1  UNL1        0.0087
     10 C          10.7967   42.1815    8.5259 C.3     1  UNL1        0.0178
     11 C          10.5558   40.7126    8.1649 C.3     1  UNL1        0.0731
     12 C          12.6767   40.6004    6.9897 C.3     1  UNL1        0.0789
     13 N          11.2361   40.3175    6.9213 N.3     1  UNL1       -0.2596
     14 C          10.6485   41.0106    5.7780 C.3     1  UNL1        0.1795
     15 C           9.3622   40.3998    5.4315 C.1     1  UNL1        0.0912
     16 N           8.3467   39.9173    5.1580 N.1     1  UNL1       -0.1944
     17 N          17.3438   41.1275    9.4217 N.pl3   1  UNL1       -0.2781
     18 H          18.1568   41.5700    9.7571 H       1  UNL1        0.1555
     19 C          15.9163   37.9117   10.2562 C.ar    1  UNL1        0.1431
     20 C          16.9735   37.6820   11.1427 C.ar    1  UNL1        0.0619
     21 C          17.0369   39.8319    9.9467 C.ar    1  UNL1        0.1648
     22 S          17.9795   39.0322   11.0726 S.2     1  UNL1       -0.0507
     23 N          15.9543   39.1065    9.6028 N.ar    1  UNL1       -0.2193
     24 C          14.7970   36.9680   10.0436 C.2     1  UNL1        0.2673
     25 C          12.3654   36.4962    9.5425 C.3     1  UNL1        0.0938
     26 C          11.0936   37.3207    9.5628 C.3     1  UNL1        0.0233
     27 C          11.4162   38.5839   10.3460 C.3     1  UNL1        0.0233
     28 C          12.9284   38.6852   10.3887 C.3     1  UNL1        0.0938
     29 N          13.4255   37.3942    9.9546 N.am    1  UNL1       -0.2748
     30 O          15.0649   35.7409    9.9303 O.2     1  UNL1       -0.2682
@<TRIPOS>BOND
     1    19    24    1
     2    19    23   ar
     3    20    22   ar
     4    21    22   ar
     5    21    17    1
     6     1     7   ar
     7     2     3   ar
     8     8     3    1
     9     8     9    1
    10     9    10    1
    11    10    11    1
    12    11    13    1
    13    14    13    1
    14    14    15    1
    15    12    13    1
    16    12     8    1
    17     4     6   ar
    18     5     4    1
    19    24    29   am
    20    25    29    1
    21    25    26    1
    22    26    27    1
    23    27    28    1
    24    28    29    1
    25    17     1    1
    26    19    20   ar
    27    21    23   ar
    28     1     2   ar
    29     3     6   ar
    30     4     7   ar
    31    24    30    2
    32    15    16    3
    33    17    18    1
@<TRIPOS>MOLECULE
MolPort-047-073-940 MCULE-3027997471 PubChem-132766335
 30 33 0 0 0
SMALL
GASTEIGER

@<TRIPOS>ATOM
      1 C          14.7637   41.7147    8.0332 C.ar    1  UNL1        0.1361
      2 C          13.4580   41.2509    7.8763 C.ar    1  UNL1        0.0492
      3 C          12.6946   41.7467    6.8197 C.ar    1  UNL1        0.0641
      4 C          14.5047   43.1066    6.1358 C.ar    1  UNL1        0.1406
      5 C          15.0716   44.1090    5.1967 C.3     1  UNL1        0.0737
      6 N          13.2311   42.6646    5.9698 N.ar    1  UNL1       -0.2349
      7 N          15.2607   42.6328    7.1602 N.ar    1  UNL1       -0.2159
      8 C          11.2941   41.2639    6.6346 C.3     1  UNL1        0.0564
      9 C          10.4397   41.6178    7.8441 C.3     1  UNL1        0.0087
     10 C           9.0271   41.0994    7.6324 C.3     1  UNL1        0.0178
     11 C           9.0619   39.5881    7.3863 C.3     1  UNL1        0.0731
     12 C          11.2727   39.7485    6.3970 C.3     1  UNL1        0.0789
     13 N           9.9096   39.2216    6.2406 N.3     1  UNL1       -0.2596
     14 C           9.3260   39.7174    4.9971 C.3     1  UNL1        0.1795
     15 C           9.4099   38.6853    3.9602 C.1     1  UNL1        0.0912
     16 N           9.4764   37.8702    3.1416 N.1     1  UNL1       -0.1944
     17 N          15.5579   41.2136    9.1136 N.pl3   1  UNL1       -0.2781
     18 H          16.1897   41.8384    9.5376 H       1  UNL1        0.1555
     19 C          16.1360   37.7559    9.9998 C.ar    1  UNL1        0.1431
     20 C          14.9497   37.7563   10.7406 C.ar    1  UNL1        0.0619
     21 C          15.5090   39.8790    9.6279 C.ar    1  UNL1        0.1648
     22 S          14.2849   39.2992   10.6082 S.2     1  UNL1       -0.0507
     23 N          16.4359   38.9321    9.3811 N.ar    1  UNL1       -0.2193
     24 C          17.0107   36.5732    9.8419 C.2     1  UNL1        0.2673
     25 C          17.9463   34.6831    8.4495 C.3     1  UNL1        0.0938
     26 C          17.5433   34.0167    7.1490 C.3     1  UNL1        0.0233
     27 C          16.1112   34.4483    6.8740 C.3     1  UNL1        0.0233
     28 C          15.8573   35.6642    7.7435 C.3     1  UNL1        0.0938
     29 N          16.9531   35.7103    8.6918 N.am    1  UNL1       -0.2748
     30 O          17.8432   36.3210   10.7549 O.2     1  UNL1       -0.2682
@<TRIPOS>BOND
     1    19    24    1
     2    19    23   ar
     3    20    22   ar
     4    21    22   ar
     5    21    17    1
     6     1     7   ar
     7     2     3   ar
     8     8     3    1
     9     8     9    1
    10     9    10    1
    11    10    11    1
    12    11    13    1
    13    14    13    1
    14    14    15    1
    15    12    13    1
    16    12     8    1
    17     4     6   ar
    18     5     4    1
    19    24    29   am
    20    25    29    1
    21    25    26    1
    22    26    27    1
    23    27    28    1
    24    28    29    1
    25    17     1    1
    26    19    20   ar
    27    21    23   ar
    28     1     2   ar
    29     3     6   ar
    30     4     7   ar
    31    24    30    2
    32    15    16    3
    33    17    18    1
@<TRIPOS>MOLECULE
MolPort-047-073-940 MCULE-3027997471 PubChem-132766335
 30 33 0 0 0
SMALL
GASTEIGER

@<TRIPOS>ATOM
      1 C          15.5033   41.8129    8.1625 C.ar    1  UNL1        0.1361
      2 C          14.2328   41.4387    8.5988 C.ar    1  UNL1        0.0492
      3 C          13.1192   42.0134    7.9868 C.ar    1  UNL1        0.0641
      4 C          14.5341   43.2741    6.5717 C.ar    1  UNL1        0.1406
      5 C          14.6986   44.2653    5.4770 C.3     1  UNL1        0.0737
      6 N          13.2899   42.9198    6.9857 N.ar    1  UNL1       -0.2349
      7 N          15.6284   42.7226    7.1580 N.ar    1  UNL1       -0.2159
      8 C          11.7502   41.6271    8.4398 C.3     1  UNL1        0.0564
      9 C          10.8552   41.3233    7.2462 C.3     1  UNL1        0.0087
     10 C           9.4670   40.9503    7.7390 C.3     1  UNL1        0.0178
     11 C           8.9003   42.0851    8.5975 C.3     1  UNL1        0.0731
     12 C          11.1310   42.7397    9.2956 C.3     1  UNL1        0.0789
     13 N           9.7675   42.4171    9.7391 N.3     1  UNL1       -0.2596
     14 C           9.8044   41.3084   10.6889 C.3     1  UNL1        0.1795
     15 C           8.7741   41.4952   11.7142 C.1     1  UNL1        0.0912
     16 N           7.9608   41.6424   12.5240 N.1     1  UNL1       -0.1944
     17 N          16.6546   41.2302    8.7822 N.pl3   1  UNL1       -0.2781
     18 H          17.5221   41.6689    8.6267 H       1  UNL1        0.1555
     19 C          15.8306   38.3014   10.7362 C.ar    1  UNL1        0.1431
     20 C          17.1828   38.1458   11.0577 C.ar    1  UNL1        0.0619
     21 C          16.6479   40.0623    9.6093 C.ar    1  UNL1        0.1648
     22 S          18.0193   39.3929   10.2926 S.2     1  UNL1       -0.0507
     23 N          15.5409   39.3680    9.9397 N.ar    1  UNL1       -0.2193
     24 C          14.7557   37.4162   11.2362 C.2     1  UNL1        0.2673
     25 C          12.4911   36.3240   10.9817 C.3     1  UNL1        0.0938
     26 C          11.2824   36.5696   10.1004 C.3     1  UNL1        0.0233
     27 C          11.4626   37.9577    9.5057 C.3     1  UNL1        0.0233
     28 C          12.9261   38.3117    9.6837 C.3     1  UNL1        0.0938
     29 N          13.4602   37.3372   10.6150 N.am    1  UNL1       -0.2748
     30 O          14.9948   36.6995   12.2459 O.2     1  UNL1       -0.2682
@<TRIPOS>BOND
     1    19    24    1
     2    19    23   ar
     3    20    22   ar
     4    21    22   ar
     5    21    17    1
     6     1     7   ar
     7     2     3   ar
     8     8     3    1
     9     8     9    1
    10     9    10    1
    11    10    11    1
    12    11    13    1
    13    14    13    1
    14    14    15    1
    15    12    13    1
    16    12     8    1
    17     4     6   ar
    18     5     4    1
    19    24    29   am
    20    25    29    1
    21    25    26    1
    22    26    27    1
    23    27    28    1
    24    28    29    1
    25    17     1    1
    26    19    20   ar
    27    21    23   ar
    28     1     2   ar
    29     3     6   ar
    30     4     7   ar
    31    24    30    2
    32    15    16    3
    33    17    18    1
@<TRIPOS>MOLECULE
MolPort-047-073-940 MCULE-3027997471 PubChem-132766335
 30 33 0 0 0
SMALL
GASTEIGER

@<TRIPOS>ATOM
      1 C          13.9778   42.3601    6.5901 C.ar    1  UNL1        0.1361
      2 C          14.1726   41.4881    7.6607 C.ar    1  UNL1        0.0492
      3 C          15.3809   41.5411    8.3552 C.ar    1  UNL1        0.0641
      4 C          16.1337   43.2757    6.9346 C.ar    1  UNL1        0.1406
      5 C          17.1920   44.2418    6.5410 C.3     1  UNL1        0.0737
      6 N          16.3384   42.4327    7.9798 N.ar    1  UNL1       -0.2349
      7 N          14.9618   43.2361    6.2487 N.ar    1  UNL1       -0.2159
      8 C          15.6098   40.6155    9.5039 C.3     1  UNL1        0.0564
      9 C          17.0968   40.3447    9.6874 C.3     1  UNL1        0.0087
     10 C          17.2951   39.3882   10.8514 C.3     1  UNL1        0.0178
     11 C          16.5111   38.0968   10.5993 C.3     1  UNL1        0.0731
     12 C          14.8541   39.2971    9.2935 C.3     1  UNL1        0.0789
     13 N          15.0754   38.3398   10.3864 N.3     1  UNL1       -0.2596
     14 C          14.4562   38.8354   11.6126 C.3     1  UNL1        0.1795
     15 C          13.1996   39.5195   11.2957 C.1     1  UNL1        0.0912
     16 N          12.2073   40.0598   11.0459 N.1     1  UNL1       -0.1944
     17 N          12.7420   42.3161    5.8691 N.pl3   1  UNL1       -0.2781
     18 H          12.7148   42.7610    4.9913 H       1  UNL1        0.1555
     19 C           9.6738   41.3442    7.5174 C.ar    1  UNL1        0.1431
     20 C           9.6151   40.2001    6.7150 C.ar    1  UNL1        0.0619
     21 C          11.5426   41.6783    6.3197 C.ar    1  UNL1        0.1648
     22 S          10.9581   40.2406    5.6977 S.2     1  UNL1       -0.0507
     23 N          10.7469   42.1543    7.2978 N.ar    1  UNL1       -0.2193
     24 C           8.6833   41.6681    8.5675 C.2     1  UNL1        0.2673
     25 C           6.4234   42.5442    9.2831 C.3     1  UNL1        0.0938
     26 C           5.3426   43.3733    8.6182 C.3     1  UNL1        0.0233
     27 C           5.9816   44.0017    7.3895 C.3     1  UNL1        0.0233
     28 C           7.2456   43.2109    7.1142 C.3     1  UNL1        0.0938
     29 N           7.4803   42.4111    8.3005 N.am    1  UNL1       -0.2748
     30 O           8.9068   41.2674    9.7422 O.2     1  UNL1       -0.2682
@<TRIPOS>BOND
     1    19    24    1
     2    19    23   ar
     3    20    22   ar
     4    21    22   ar
     5    21    17    1
     6     1     7   ar
     7     2     3   ar
     8     8     3    1
     9     8     9    1
    10     9    10    1
    11    10    11    1
    12    11    13    1
    13    14    13    1
    14    14    15    1
    15    12    13    1
    16    12     8    1
    17     4     6   ar
    18     5     4    1
    19    24    29   am
    20    25    29    1
    21    25    26    1
    22    26    27    1
    23    27    28    1
    24    28    29    1
    25    17     1    1
    26    19    20   ar
    27    21    23   ar
    28     1     2   ar
    29     3     6   ar
    30     4     7   ar
    31    24    30    2
    32    15    16    3
    33    17    18    1
@<TRIPOS>MOLECULE
MolPort-047-073-940 MCULE-3027997471 PubChem-132766335
 30 33 0 0 0
SMALL
GASTEIGER

@<TRIPOS>ATOM
      1 C          12.6681   42.2126    6.4480 C.ar    1  UNL1        0.1361
      2 C          12.7769   41.1858    7.3852 C.ar    1  UNL1        0.0492
      3 C          13.9797   41.0345    8.0748 C.ar    1  UNL1        0.0641
      4 C          14.8934   42.8772    6.9073 C.ar    1  UNL1        0.1406
      5 C          16.0356   43.7917    6.6480 C.3     1  UNL1        0.0737
      6 N          15.0149   41.8817    7.8234 N.ar    1  UNL1       -0.2349
      7 N          13.7280   43.0374    6.2280 N.ar    1  UNL1       -0.2159
      8 C          14.1172   39.9409    9.0817 C.3     1  UNL1        0.0564
      9 C          13.1511   40.1519   10.2393 C.3     1  UNL1        0.0087
     10 C          13.3270   39.0334   11.2529 C.3     1  UNL1        0.0178
     11 C          14.7818   38.9915   11.7299 C.3     1  UNL1        0.0731
     12 C          15.5583   39.8650    9.6024 C.3     1  UNL1        0.0789
     13 N          15.7351   38.8211   10.6218 N.3     1  UNL1       -0.2596
     14 C          15.5776   37.5027   10.0138 C.3     1  UNL1        0.1795
     15 C          14.1868   37.3094    9.5946 C.1     1  UNL1        0.0912
     16 N          13.0884   37.1570    9.2639 N.1     1  UNL1       -0.1944
     17 N          11.4389   42.3789    5.7335 N.pl3   1  UNL1       -0.2781
     18 H          11.3080   43.2269    5.2507 H       1  UNL1        0.1555
     19 C           8.3898   40.4621    6.0564 C.ar    1  UNL1        0.1431
     20 C           8.9277   39.4810    5.2171 C.ar    1  UNL1        0.0619
     21 C          10.3845   41.4137    5.6635 C.ar    1  UNL1        0.1648
     22 S          10.4699   39.9987    4.7769 S.2     1  UNL1       -0.0507
     23 N           9.2042   41.5257    6.3045 N.ar    1  UNL1       -0.2193
     24 C           7.0521   40.3711    6.6817 C.2     1  UNL1        0.2673
     25 C           5.4030   41.0196    8.4834 C.3     1  UNL1        0.0938
     26 C           5.5158   41.6756    9.8453 C.3     1  UNL1        0.0233
     27 C           6.9857   41.6105   10.2302 C.3     1  UNL1        0.0233
     28 C           7.7501   41.3325    8.9506 C.3     1  UNL1        0.0938
     29 N           6.7567   40.9323    7.9733 N.am    1  UNL1       -0.2748
     30 O           6.1361   39.7807    6.0471 O.2     1  UNL1       -0.2682
@<TRIPOS>BOND
     1    19    24    1
     2    19    23   ar
     3    20    22   ar
     4    21    22   ar
     5    21    17    1
     6     1     7   ar
     7     2     3   ar
     8     8     3    1
     9     8     9    1
    10     9    10    1
    11    10    11    1
    12    11    13    1
    13    14    13    1
    14    14    15    1
    15    12    13    1
    16    12     8    1
    17     4     6   ar
    18     5     4    1
    19    24    29   am
    20    25    29    1
    21    25    26    1
    22    26    27    1
    23    27    28    1
    24    28    29    1
    25    17     1    1
    26    19    20   ar
    27    21    23   ar
    28     1     2   ar
    29     3     6   ar
    30     4     7   ar
    31    24    30    2
    32    15    16    3
    33    17    18    1
@<TRIPOS>MOLECULE
MolPort-047-073-940 MCULE-3027997471 PubChem-132766335
 30 33 0 0 0
SMALL
GASTEIGER

@<TRIPOS>ATOM
      1 C          16.4366   41.5951    8.6246 C.ar    1  UNL1        0.1361
      2 C          15.1084   41.1952    8.7678 C.ar    1  UNL1        0.0492
      3 C          14.1337   41.8225    7.9922 C.ar    1  UNL1        0.0641
      4 C          15.7900   43.1819    6.9910 C.ar    1  UNL1        0.1406
      5 C          16.1598   44.2548    6.0317 C.3     1  UNL1        0.0737
      6 N          14.4918   42.8034    7.1191 N.ar    1  UNL1       -0.2349
      7 N          16.7506   42.5799    7.7393 N.ar    1  UNL1       -0.2159
      8 C          12.7057   41.4099    8.1311 C.3     1  UNL1        0.0564
      9 C          12.4591   40.7788    9.4945 C.3     1  UNL1        0.0087
     10 C          11.0033   40.3555    9.5981 C.3     1  UNL1        0.0178
     11 C          10.6623   39.3915    8.4577 C.3     1  UNL1        0.0731
     12 C          12.3162   40.4304    7.0164 C.3     1  UNL1        0.0789
     13 N          10.9248   39.9708    7.1307 N.3     1  UNL1       -0.2596
     14 C          10.0129   41.0815    6.8712 C.3     1  UNL1        0.1795
     15 C           8.8977   40.6269    6.0361 C.1     1  UNL1        0.0912
     16 N           8.0170   40.2679    5.3771 N.1     1  UNL1       -0.1944
     17 N          17.4467   40.9590    9.4146 N.pl3   1  UNL1       -0.2781
     18 H          18.2010   41.5150    9.7166 H       1  UNL1        0.1555
     19 C          16.7715   37.4461    9.9427 C.ar    1  UNL1        0.1431
     20 C          17.9147   37.3555   10.7435 C.ar    1  UNL1        0.0619
     21 C          17.4502   39.5811    9.8014 C.ar    1  UNL1        0.1648
     22 S          18.6154   38.8877   10.7797 S.2     1  UNL1       -0.0507
     23 N          16.5169   38.6824    9.4301 N.ar    1  UNL1       -0.2193
     24 C          15.8565   36.3140    9.6784 C.2     1  UNL1        0.2673
     25 C          15.3182   34.1236    8.5387 C.3     1  UNL1        0.0938
     26 C          15.8975   33.3641    7.3617 C.3     1  UNL1        0.0233
     27 C          16.7741   34.3510    6.6064 C.3     1  UNL1        0.0233
     28 C          17.0414   35.5002    7.5586 C.3     1  UNL1        0.0938
     29 N          16.1048   35.3354    8.6530 N.am    1  UNL1       -0.2748
     30 O          14.8210   36.2055   10.3898 O.2     1  UNL1       -0.2682
@<TRIPOS>BOND
     1    19    24    1
     2    19    23   ar
     3    20    22   ar
     4    21    22   ar
     5    21    17    1
     6     1     7   ar
     7     2     3   ar
     8     8     3    1
     9     8     9    1
    10     9    10    1
    11    10    11    1
    12    11    13    1
    13    14    13    1
    14    14    15    1
    15    12    13    1
    16    12     8    1
    17     4     6   ar
    18     5     4    1
    19    24    29   am
    20    25    29    1
    21    25    26    1
    22    26    27    1
    23    27    28    1
    24    28    29    1
    25    17     1    1
    26    19    20   ar
    27    21    23   ar
    28     1     2   ar
    29     3     6   ar
    30     4     7   ar
    31    24    30    2
    32    15    16    3
    33    17    18    1
@<TRIPOS>MOLECULE
MolPort-047-073-940 MCULE-3027997471 PubChem-132766335
 30 33 0 0 0
SMALL
GASTEIGER

@<TRIPOS>ATOM
      1 C          13.6746   42.0007    6.6575 C.ar    1  UNL1        0.1361
      2 C          13.7786   41.0291    7.6523 C.ar    1  UNL1        0.0492
      3 C          14.8902   41.0504    8.4943 C.ar    1  UNL1        0.0641
      4 C          15.7281   42.9479    7.3581 C.ar    1  UNL1        0.1406
      5 C          16.7802   43.9850    7.1978 C.3     1  UNL1        0.0737
      6 N          15.8437   42.0081    8.3319 N.ar    1  UNL1       -0.2349
      7 N          14.6510   42.9403    6.5304 N.ar    1  UNL1       -0.2159
      8 C          15.0212   40.0185    9.5652 C.3     1  UNL1        0.0564
      9 C          16.4313   40.0163   10.1394 C.3     1  UNL1        0.0087
     10 C          16.5366   38.9461   11.2132 C.3     1  UNL1        0.0178
     11 C          16.1632   37.5828   10.6234 C.3     1  UNL1        0.0731
     12 C          14.6696   38.6280    9.0206 C.3     1  UNL1        0.0789
     13 N          14.8152   37.5727   10.0331 N.3     1  UNL1       -0.2596
     14 C          13.8035   37.7402   11.0728 C.3     1  UNL1        0.1795
     15 C          12.6891   36.8179   10.8378 C.1     1  UNL1        0.0912
     16 N          11.8091   36.0898   10.6526 N.1     1  UNL1       -0.1944
     17 N          12.5385   41.9902    5.7867 N.pl3   1  UNL1       -0.2781
     18 H          12.6413   42.4152    4.9047 H       1  UNL1        0.1555
     19 C           9.0401   41.2694    6.3495 C.ar    1  UNL1        0.1431
     20 C           9.3798   39.9713    6.7442 C.ar    1  UNL1        0.0619
     21 C          11.2656   41.4124    6.0932 C.ar    1  UNL1        0.1648
     22 S          11.0556   39.8406    6.6234 S.2     1  UNL1       -0.0507
     23 N          10.0894   42.0636    5.9970 N.ar    1  UNL1       -0.2193
     24 C           7.6569   41.7940    6.3389 C.2     1  UNL1        0.2673
     25 C           5.9507   43.5482    6.9700 C.3     1  UNL1        0.0938
     26 C           5.9093   44.6813    7.9761 C.3     1  UNL1        0.0233
     27 C           7.0493   44.4289    8.9506 C.3     1  UNL1        0.0233
     28 C           7.9794   43.4417    8.2730 C.3     1  UNL1        0.0938
     29 N           7.2433   42.9155    7.1401 N.am    1  UNL1       -0.2748
     30 O           6.8121   41.2333    5.5890 O.2     1  UNL1       -0.2682
@<TRIPOS>BOND
     1    19    24    1
     2    19    23   ar
     3    20    22   ar
     4    21    22   ar
     5    21    17    1
     6     1     7   ar
     7     2     3   ar
     8     8     3    1
     9     8     9    1
    10     9    10    1
    11    10    11    1
    12    11    13    1
    13    14    13    1
    14    14    15    1
    15    12    13    1
    16    12     8    1
    17     4     6   ar
    18     5     4    1
    19    24    29   am
    20    25    29    1
    21    25    26    1
    22    26    27    1
    23    27    28    1
    24    28    29    1
    25    17     1    1
    26    19    20   ar
    27    21    23   ar
    28     1     2   ar
    29     3     6   ar
    30     4     7   ar
    31    24    30    2
    32    15    16    3
    33    17    18    1
@<TRIPOS>MOLECULE
MolPort-047-073-940 MCULE-3027997471 PubChem-132766335
 30 33 0 0 0
SMALL
GASTEIGER

@<TRIPOS>ATOM
      1 C          12.4073   42.0043    6.4640 C.ar    1  UNL1        0.1361
      2 C          12.5400   41.0137    7.4364 C.ar    1  UNL1        0.0492
      3 C          13.7614   40.8844    8.0972 C.ar    1  UNL1        0.0641
      4 C          14.6464   42.6779    6.8348 C.ar    1  UNL1        0.1406
      5 C          15.7831   43.5777    6.5086 C.3     1  UNL1        0.0737
      6 N          14.7912   41.7177    7.7845 N.ar    1  UNL1       -0.2349
      7 N          13.4627   42.8163    6.1829 N.ar    1  UNL1       -0.2159
      8 C          13.9247   39.8295    9.1409 C.3     1  UNL1        0.0564
      9 C          13.1905   40.2181   10.4168 C.3     1  UNL1        0.0087
     10 C          13.3893   39.1340   11.4629 C.3     1  UNL1        0.0178
     11 C          14.8858   38.9238   11.7123 C.3     1  UNL1        0.0731
     12 C          15.4105   39.5895    9.4377 C.3     1  UNL1        0.0789
     13 N          15.6203   38.5793   10.4844 N.3     1  UNL1       -0.2596
     14 C          15.2073   37.2664    9.9962 C.3     1  UNL1        0.1795
     15 C          16.2285   36.7253    9.0951 C.1     1  UNL1        0.0912
     16 N          17.0348   36.2984    8.3835 N.1     1  UNL1       -0.1944
     17 N          11.1588   42.1476    5.7787 N.pl3   1  UNL1       -0.2781
     18 H          11.1585   42.6712    4.9450 H       1  UNL1        0.1555
     19 C           8.0126   41.3725    7.3834 C.ar    1  UNL1        0.1431
     20 C           7.8738   40.2557    6.5530 C.ar    1  UNL1        0.0619
     21 C           9.9110   41.5922    6.2059 C.ar    1  UNL1        0.1648
     22 S           9.2242   40.2183    5.5454 S.2     1  UNL1       -0.0507
     23 N           9.1457   42.1038    7.1904 N.ar    1  UNL1       -0.2193
     24 C           7.0409   41.7455    8.4349 C.2     1  UNL1        0.2673
     25 C           4.9603   42.9627    9.1938 C.3     1  UNL1        0.0938
     26 C           4.1122   44.0817    8.6227 C.3     1  UNL1        0.0233
     27 C           4.9419   44.7285    7.5245 C.3     1  UNL1        0.0233
     28 C           6.0376   43.7391    7.1786 C.3     1  UNL1        0.0938
     29 N           6.0305   42.7513    8.2398 N.am    1  UNL1       -0.2748
     30 O           7.1035   41.1482    9.5437 O.2     1  UNL1       -0.2682
@<TRIPOS>BOND
     1    19    24    1
     2    19    23   ar
     3    20    22   ar
     4    21    22   ar
     5    21    17    1
     6     1     7   ar
     7     2     3   ar
     8     8     3    1
     9     8     9    1
    10     9    10    1
    11    10    11    1
    12    11    13    1
    13    14    13    1
    14    14    15    1
    15    12    13    1
    16    12     8    1
    17     4     6   ar
    18     5     4    1
    19    24    29   am
    20    25    29    1
    21    25    26    1
    22    26    27    1
    23    27    28    1
    24    28    29    1
    25    17     1    1
    26    19    20   ar
    27    21    23   ar
    28     1     2   ar
    29     3     6   ar
    30     4     7   ar
    31    24    30    2
    32    15    16    3
    33    17    18    1
@<TRIPOS>MOLECULE
MolPort-047-073-940 MCULE-3027997471 PubChem-132766335
 30 33 0 0 0
SMALL
GASTEIGER

@<TRIPOS>ATOM
      1 C          13.8181   42.2221    6.9187 C.ar    1  UNL1        0.1361
      2 C          13.8391   41.1501    7.8103 C.ar    1  UNL1        0.0492
      3 C          15.0045   40.9073    8.5369 C.ar    1  UNL1        0.0641
      4 C          16.0531   42.7519    7.4921 C.ar    1  UNL1        0.1406
      5 C          17.2481   43.6180    7.3190 C.3     1  UNL1        0.0737
      6 N          16.0891   41.7114    8.3645 N.ar    1  UNL1       -0.2349
      7 N          14.9250   43.0012    6.7775 N.ar    1  UNL1       -0.2159
      8 C          15.0482   39.7641    9.4960 C.3     1  UNL1        0.0564
      9 C          13.9392   39.8892   10.5317 C.3     1  UNL1        0.0087
     10 C          14.0208   38.7218   11.5010 C.3     1  UNL1        0.0178
     11 C          15.4054   38.6879   12.1550 C.3     1  UNL1        0.0731
     12 C          16.4146   39.6936   10.1898 C.3     1  UNL1        0.0789
     13 N          16.4941   38.6003   11.1688 N.3     1  UNL1       -0.2596
     14 C          16.4533   37.3136   10.4793 C.3     1  UNL1        0.1795
     15 C          17.6535   37.1515    9.6541 C.1     1  UNL1        0.0912
     16 N          18.6011   37.0239    9.0025 N.1     1  UNL1       -0.1944
     17 N          12.6280   42.4823    6.1670 N.pl3   1  UNL1       -0.2781
     18 H          12.6755   43.1782    5.4722 H       1  UNL1        0.1555
     19 C           9.3979   41.2830    7.2639 C.ar    1  UNL1        0.1431
     20 C           9.3762   40.3857    6.1913 C.ar    1  UNL1        0.0619
     21 C          11.3748   41.8138    6.3426 C.ar    1  UNL1        0.1648
     22 S          10.8048   40.6142    5.3269 S.2     1  UNL1       -0.0507
     23 N          10.5101   42.0656    7.3453 N.ar    1  UNL1       -0.2193
     24 C           8.3283   41.3797    8.2815 C.2     1  UNL1        0.2673
     25 C           7.5637   41.7766   10.6573 C.3     1  UNL1        0.0938
     26 C           8.2516   41.8037   12.0077 C.3     1  UNL1        0.0233
     27 C           9.6103   41.1503   11.8080 C.3     1  UNL1        0.0233
     28 C           9.8698   41.1531   10.3142 C.3     1  UNL1        0.0938
     29 N           8.6011   41.4758    9.6911 N.am    1  UNL1       -0.2748
     30 O           7.1300   41.3836    7.8886 O.2     1  UNL1       -0.2682
@<TRIPOS>BOND
     1    19    24    1
     2    19    23   ar
     3    20    22   ar
     4    21    22   ar
     5    21    17    1
     6     1     7   ar
     7     2     3   ar
     8     8     3    1
     9     8     9    1
    10     9    10    1
    11    10    11    1
    12    11    13    1
    13    14    13    1
    14    14    15    1
    15    12    13    1
    16    12     8    1
    17     4     6   ar
    18     5     4    1
    19    24    29   am
    20    25    29    1
    21    25    26    1
    22    26    27    1
    23    27    28    1
    24    28    29    1
    25    17     1    1
    26    19    20   ar
    27    21    23   ar
    28     1     2   ar
    29     3     6   ar
    30     4     7   ar
    31    24    30    2
    32    15    16    3
    33    17    18    1
@<TRIPOS>MOLECULE
MolPort-047-073-940 MCULE-3027997471 PubChem-132766335
 30 33 0 0 0
SMALL
GASTEIGER

@<TRIPOS>ATOM
      1 C           8.3921   39.6494    5.7828 C.ar    1  UNL1        0.1361
      2 C           9.5238   40.0735    6.4784 C.ar    1  UNL1        0.0492
      3 C          10.7808   39.8104    5.9346 C.ar    1  UNL1        0.0641
      4 C           9.7681   38.7444    4.0821 C.ar    1  UNL1        0.1406
      5 C           9.8983   38.0263    2.7877 C.3     1  UNL1        0.0737
      6 N          10.8800   39.1512    4.7479 N.ar    1  UNL1       -0.2349
      7 N           8.5369   38.9936    4.5991 N.ar    1  UNL1       -0.2159
      8 C          12.0051   40.2551    6.6639 C.3     1  UNL1        0.0564
      9 C          12.2943   39.3330    7.8404 C.3     1  UNL1        0.0087
     10 C          13.5344   39.8211    8.5705 C.3     1  UNL1        0.0178
     11 C          13.3315   41.2701    9.0233 C.3     1  UNL1        0.0731
     12 C          11.8474   41.7011    7.1515 C.3     1  UNL1        0.0789
     13 N          13.0181   42.1731    7.9044 N.3     1  UNL1       -0.2596
     14 C          14.1668   42.2931    7.0107 C.3     1  UNL1        0.1795
     15 C          14.0393   43.5031    6.1939 C.1     1  UNL1        0.0912
     16 N          13.9389   44.4586    5.5490 N.1     1  UNL1       -0.1944
     17 N           7.0960   39.9134    6.3300 N.pl3   1  UNL1       -0.2781
     18 H           6.4488   39.1716    6.3369 H       1  UNL1        0.1555
     19 C           5.5354   42.6091    8.1666 C.ar    1  UNL1        0.1431
     20 C           6.2702   43.5336    7.4172 C.ar    1  UNL1        0.0619
     21 C           6.6639   41.1672    6.8680 C.ar    1  UNL1        0.1648
     22 S           7.2253   42.6524    6.3442 S.2     1  UNL1       -0.0507
     23 N           5.7534   41.3014    7.8526 N.ar    1  UNL1       -0.2193
     24 C           4.5531   42.9840    9.2073 C.2     1  UNL1        0.2673
     25 C           3.3603   42.5334   11.3892 C.3     1  UNL1        0.0938
     26 C           3.1791   41.3153   12.2730 C.3     1  UNL1        0.0233
     27 C           3.5788   40.1136   11.4309 C.3     1  UNL1        0.0233
     28 C           4.3800   40.6575   10.2641 C.3     1  UNL1        0.0938
     29 N           4.1593   42.0905   10.2642 N.am    1  UNL1       -0.2748
     30 O           4.0489   44.1390    9.1630 O.2     1  UNL1       -0.2682
@<TRIPOS>BOND
     1    19    24    1
     2    19    23   ar
     3    20    22   ar
     4    21    22   ar
     5    21    17    1
     6     1     7   ar
     7     2     3   ar
     8     8     3    1
     9     8     9    1
    10     9    10    1
    11    10    11    1
    12    11    13    1
    13    14    13    1
    14    14    15    1
    15    12    13    1
    16    12     8    1
    17     4     6   ar
    18     5     4    1
    19    24    29   am
    20    25    29    1
    21    25    26    1
    22    26    27    1
    23    27    28    1
    24    28    29    1
    25    17     1    1
    26    19    20   ar
    27    21    23   ar
    28     1     2   ar
    29     3     6   ar
    30     4     7   ar
    31    24    30    2
    32    15    16    3
    33    17    18    1
