@<TRIPOS>MOLECULE
MolPort-001-980-658 872057 MCULE-5666138328 PubChem-1131592 ZINC000000872057 ZINC00872057
 30 32 0 0 0
SMALL
GASTEIGER

@<TRIPOS>ATOM
      1 C          10.9686   42.0979    8.6960 C.ar    1  UNL1        0.0905
      2 C          11.7984   40.9836    8.8300 C.ar    1  UNL1        0.0847
      3 C          13.0302   41.1366    8.1660 C.ar    1  UNL1       -0.0001
      4 C          14.0957   40.0885    8.1830 C.3     1  UNL1        0.0325
      5 C          13.1781   42.3811    7.5412 C.ar    1  UNL1        0.0809
      6 S          11.7715   43.2729    7.8098 S.2     1  UNL1       -0.0673
      7 C          14.3358   42.8329    6.7342 C.2     1  UNL1        0.2548
      8 C          15.9726   42.8593    8.6621 C.3     1  UNL1        0.0937
      9 C          17.2272   42.0039    8.5100 C.3     1  UNL1        0.0216
     10 C          18.3003   42.7834    7.7512 C.3     1  UNL1        0.0035
     11 C          17.7776   43.2178    6.3825 C.3     1  UNL1        0.0216
     12 C          16.5171   44.0625    6.5494 C.3     1  UNL1        0.0937
     13 O          14.2529   42.8034    5.4761 O.2     1  UNL1       -0.2694
     14 N          15.5401   43.3255    7.3469 N.am    1  UNL1       -0.2757
     15 C           8.4491   42.4330    8.5896 C.2     1  UNL1        0.2500
     16 O           8.4518   42.6814    7.3529 O.2     1  UNL1       -0.2698
     17 N           9.6864   42.3043    9.3003 N.am    1  UNL1       -0.2749
     18 H           9.6526   42.3623   10.2825 H       1  UNL1        0.1557
     19 C           4.7218   42.1271   10.6970 C.ar    1  UNL1        0.1724
     20 C           4.8189   42.9412    9.5406 C.ar    1  UNL1        0.1725
     21 C           6.0433   43.0282    8.8681 C.ar    1  UNL1        0.0446
     22 C           7.1710   42.3289    9.3148 C.ar    1  UNL1        0.0569
     23 C           7.0688   41.5271   10.4551 C.ar    1  UNL1        0.0078
     24 C           5.8574   41.4277   11.1389 C.ar    1  UNL1        0.0402
     25 C           3.1965   40.9089   12.2261 C.3     1  UNL1        0.2526
     26 O           3.5130   42.0173   11.3941 O.3     1  UNL1       -0.4684
     27 C           3.8689   44.6900    8.0230 C.3     1  UNL1        0.2526
     28 O           3.7488   43.6803    9.0144 O.3     1  UNL1       -0.4684
     29 C          11.4873   39.8388    9.6505 C.1     1  UNL1        0.1019
     30 N          11.2396   38.9206   10.3101 N.1     1  UNL1       -0.1908
@<TRIPOS>BOND
     1    25    26    1
     2    19    26    1
     3    20    28    1
     4    20    21   ar
     5    27    28    1
     6    22    23   ar
     7    22    15    1
     8    24    19   ar
     9    15    17   am
    10     1     6   ar
    11     2    29    1
    12     2     3   ar
    13     4     3    1
    14     5     6   ar
    15     5     7    1
    16     7    14   am
    17     8    14    1
    18     8     9    1
    19     9    10    1
    20    10    11    1
    21    11    12    1
    22    12    14    1
    23    17     1    1
    24    19    20   ar
    25    21    22   ar
    26    23    24   ar
    27    15    16    2
    28     1     2   ar
    29     3     5   ar
    30     7    13    2
    31    29    30    3
    32    17    18    1
@<TRIPOS>MOLECULE
MolPort-001-980-658 872057 MCULE-5666138328 PubChem-1131592 ZINC000000872057 ZINC00872057
 30 32 0 0 0
SMALL
GASTEIGER

@<TRIPOS>ATOM
      1 C          12.6691   38.4505    8.9952 C.ar    1  UNL1        0.0905
      2 C          13.9109   39.0460    9.2222 C.ar    1  UNL1        0.0847
      3 C          14.9862   38.1584    9.0277 C.ar    1  UNL1       -0.0001
      4 C          16.4146   38.5683    9.1884 C.3     1  UNL1        0.0325
      5 C          14.5890   36.8799    8.6171 C.ar    1  UNL1        0.0809
      6 S          12.9053   36.8624    8.5125 S.2     1  UNL1       -0.0673
      7 C          15.4731   35.7173    8.3675 C.2     1  UNL1        0.2548
      8 C          13.8797   33.9994    9.3197 C.3     1  UNL1        0.0937
      9 C          13.4643   32.8598    8.3935 C.3     1  UNL1        0.0216
     10 C          14.5041   31.7412    8.4453 C.3     1  UNL1        0.0035
     11 C          15.8821   32.2744    8.0556 C.3     1  UNL1        0.0216
     12 C          16.2795   33.4203    8.9826 C.3     1  UNL1        0.0937
     13 O          16.4767   35.8621    7.6176 O.2     1  UNL1       -0.2694
     14 N          15.2305   34.4369    8.9760 N.am    1  UNL1       -0.2757
     15 C          10.7111   39.6534    7.9038 C.2     1  UNL1        0.2500
     16 O          11.3525   39.9136    6.8494 O.2     1  UNL1       -0.2698
     17 N          11.3833   39.0808    9.0321 N.am    1  UNL1       -0.2749
     18 H          10.9250   39.1241    9.9023 H       1  UNL1        0.1557
     19 C           6.5411   40.6376    8.1667 C.ar    1  UNL1        0.1724
     20 C           7.4513   41.1399    9.1303 C.ar    1  UNL1        0.1725
     21 C           8.8067   40.8068    9.0275 C.ar    1  UNL1        0.0446
     22 C           9.2795   39.9888    7.9942 C.ar    1  UNL1        0.0569
     23 C           8.3773   39.4972    7.0465 C.ar    1  UNL1        0.0078
     24 C           7.0228   39.8180    7.1322 C.ar    1  UNL1        0.0402
     25 C           4.6867   42.1277    8.8665 C.3     1  UNL1        0.2526
     26 O           5.1787   40.9505    8.2394 O.3     1  UNL1       -0.4684
     27 C           7.1048   41.5831   11.5691 C.3     1  UNL1        0.2526
     28 O           7.0772   41.9651   10.2016 O.3     1  UNL1       -0.4684
     29 C          14.0939   40.4466    9.5142 C.1     1  UNL1        0.1019
     30 N          14.2429   41.5702    9.7480 N.1     1  UNL1       -0.1908
@<TRIPOS>BOND
     1    25    26    1
     2    19    26    1
     3    20    28    1
     4    20    21   ar
     5    27    28    1
     6    22    23   ar
     7    22    15    1
     8    24    19   ar
     9    15    17   am
    10     1     6   ar
    11     2    29    1
    12     2     3   ar
    13     4     3    1
    14     5     6   ar
    15     5     7    1
    16     7    14   am
    17     8    14    1
    18     8     9    1
    19     9    10    1
    20    10    11    1
    21    11    12    1
    22    12    14    1
    23    17     1    1
    24    19    20   ar
    25    21    22   ar
    26    23    24   ar
    27    15    16    2
    28     1     2   ar
    29     3     5   ar
    30     7    13    2
    31    29    30    3
    32    17    18    1
@<TRIPOS>MOLECULE
MolPort-001-980-658 872057 MCULE-5666138328 PubChem-1131592 ZINC000000872057 ZINC00872057
 30 32 0 0 0
SMALL
GASTEIGER

@<TRIPOS>ATOM
      1 C          12.1090   40.5716    9.5933 C.ar    1  UNL1        0.0905
      2 C          12.4206   39.4365   10.3434 C.ar    1  UNL1        0.0847
      3 C          13.7510   39.0123   10.1654 C.ar    1  UNL1       -0.0001
      4 C          14.3278   37.8327   10.8795 C.3     1  UNL1        0.0325
      5 C          14.4893   39.8328    9.3035 C.ar    1  UNL1        0.0809
      6 S          13.4773   41.0690    8.7619 S.2     1  UNL1       -0.0673
      7 C          15.8967   39.6347    8.8845 C.2     1  UNL1        0.2548
      8 C          16.7630   39.1144   11.2030 C.3     1  UNL1        0.0937
      9 C          17.4741   37.7766   11.3867 C.3     1  UNL1        0.0216
     10 C          18.9467   37.9124   11.0023 C.3     1  UNL1        0.0035
     11 C          19.0797   38.3973    9.5592 C.3     1  UNL1        0.0216
     12 C          18.3548   39.7298    9.3877 C.3     1  UNL1        0.0937
     13 O          16.1588   39.5212    7.6561 O.2     1  UNL1       -0.2694
     14 N          16.9722   39.5925    9.8385 N.am    1  UNL1       -0.2757
     15 C          10.7598   42.7236    9.4502 C.2     1  UNL1        0.2500
     16 O          11.7671   43.4632    9.6212 O.2     1  UNL1       -0.2698
     17 N          10.8773   41.3030    9.5946 N.am    1  UNL1       -0.2749
     18 H          10.0451   40.7884    9.7034 H       1  UNL1        0.1557
     19 C           6.9350   44.4730    8.5917 C.ar    1  UNL1        0.1724
     20 C           7.3190   43.2619    7.9631 C.ar    1  UNL1        0.1725
     21 C           8.5705   42.7080    8.2559 C.ar    1  UNL1        0.0446
     22 C           9.4483   43.3259    9.1548 C.ar    1  UNL1        0.0569
     23 C           9.0637   44.5196    9.7721 C.ar    1  UNL1        0.0078
     24 C           7.8206   45.0869    9.4932 C.ar    1  UNL1        0.0402
     25 C           4.8774   44.6689    7.2217 C.3     1  UNL1        0.2526
     26 O           5.6907   45.0548    8.3219 O.3     1  UNL1       -0.4684
     27 C           6.9825   41.9397    5.8648 C.3     1  UNL1        0.2526
     28 O           6.5126   42.5671    7.0491 O.3     1  UNL1       -0.4684
     29 C          11.5216   38.8212   11.2887 C.1     1  UNL1        0.1019
     30 N          10.8021   38.3268   12.0485 N.1     1  UNL1       -0.1908
@<TRIPOS>BOND
     1    25    26    1
     2    19    26    1
     3    20    28    1
     4    20    21   ar
     5    27    28    1
     6    22    23   ar
     7    22    15    1
     8    24    19   ar
     9    15    17   am
    10     1     6   ar
    11     2    29    1
    12     2     3   ar
    13     4     3    1
    14     5     6   ar
    15     5     7    1
    16     7    14   am
    17     8    14    1
    18     8     9    1
    19     9    10    1
    20    10    11    1
    21    11    12    1
    22    12    14    1
    23    17     1    1
    24    19    20   ar
    25    21    22   ar
    26    23    24   ar
    27    15    16    2
    28     1     2   ar
    29     3     5   ar
    30     7    13    2
    31    29    30    3
    32    17    18    1
@<TRIPOS>MOLECULE
MolPort-001-980-658 872057 MCULE-5666138328 PubChem-1131592 ZINC000000872057 ZINC00872057
 30 32 0 0 0
SMALL
GASTEIGER

@<TRIPOS>ATOM
      1 C           7.5199   40.9815    9.0855 C.ar    1  UNL1        0.0905
      2 C           8.0049   40.6752    7.8131 C.ar    1  UNL1        0.0847
      3 C           9.4088   40.7418    7.7328 C.ar    1  UNL1       -0.0001
      4 C          10.1643   40.4340    6.4804 C.3     1  UNL1        0.0325
      5 C          10.0238   41.0670    8.9481 C.ar    1  UNL1        0.0809
      6 S           8.8159   41.2810   10.1061 S.2     1  UNL1       -0.0673
      7 C          11.4753   41.2507    9.1828 C.2     1  UNL1        0.2548
      8 C          11.9699   38.7963    9.5402 C.3     1  UNL1        0.0937
      9 C          13.0165   38.1660    8.6257 C.3     1  UNL1        0.0216
     10 C          14.4150   38.4026    9.1940 C.3     1  UNL1        0.0035
     11 C          14.6782   39.8988    9.3598 C.3     1  UNL1        0.0216
     12 C          13.6180   40.5176   10.2671 C.3     1  UNL1        0.0937
     13 O          12.0047   42.3602    8.9009 O.2     1  UNL1       -0.2694
     14 N          12.2897   40.2070    9.7447 N.am    1  UNL1       -0.2757
     15 C           5.6917   41.3954   10.8055 C.2     1  UNL1        0.2500
     16 O           6.5079   41.5857   11.7481 O.2     1  UNL1       -0.2698
     17 N           6.1590   40.9388    9.5304 N.am    1  UNL1       -0.2749
     18 H           5.4913   40.5659    8.9104 H       1  UNL1        0.1557
     19 C           1.4897   41.9729   11.4664 C.ar    1  UNL1        0.1724
     20 C           2.4308   42.4728   12.4012 C.ar    1  UNL1        0.1725
     21 C           3.7964   42.2734   12.1679 C.ar    1  UNL1        0.0446
     22 C           4.2494   41.5913   11.0323 C.ar    1  UNL1        0.0569
     23 C           3.3166   41.1014   10.1136 C.ar    1  UNL1        0.0078
     24 C           1.9517   41.2901   10.3287 C.ar    1  UNL1        0.0402
     25 C          -0.5492   41.7628   12.8619 C.3     1  UNL1        0.2526
     26 O           0.1166   42.1542   11.6684 O.3     1  UNL1       -0.4684
     27 C           1.2902   42.6364   14.6230 C.3     1  UNL1        0.2526
     28 O           2.0783   43.1678   13.5679 O.3     1  UNL1       -0.4684
     29 C           7.1777   40.2273    6.7196 C.1     1  UNL1        0.1019
     30 N           6.5122   39.8684    5.8435 N.1     1  UNL1       -0.1908
@<TRIPOS>BOND
     1    25    26    1
     2    19    26    1
     3    20    28    1
     4    20    21   ar
     5    27    28    1
     6    22    23   ar
     7    22    15    1
     8    24    19   ar
     9    15    17   am
    10     1     6   ar
    11     2    29    1
    12     2     3   ar
    13     4     3    1
    14     5     6   ar
    15     5     7    1
    16     7    14   am
    17     8    14    1
    18     8     9    1
    19     9    10    1
    20    10    11    1
    21    11    12    1
    22    12    14    1
    23    17     1    1
    24    19    20   ar
    25    21    22   ar
    26    23    24   ar
    27    15    16    2
    28     1     2   ar
    29     3     5   ar
    30     7    13    2
    31    29    30    3
    32    17    18    1
@<TRIPOS>MOLECULE
MolPort-001-980-658 872057 MCULE-5666138328 PubChem-1131592 ZINC000000872057 ZINC00872057
 30 32 0 0 0
SMALL
GASTEIGER

@<TRIPOS>ATOM
      1 C           3.1278   42.6039   12.0572 C.ar    1  UNL1        0.0905
      2 C           2.0408   41.9167   11.5148 C.ar    1  UNL1        0.0847
      3 C           0.8142   42.2868   12.0981 C.ar    1  UNL1       -0.0001
      4 C          -0.4948   41.7063   11.6694 C.3     1  UNL1        0.0325
      5 C           0.9366   43.2856   13.0719 C.ar    1  UNL1        0.0809
      6 S           2.5691   43.6889   13.2068 S.2     1  UNL1       -0.0673
      7 C          -0.1565   43.8604   13.8907 C.2     1  UNL1        0.2548
      8 C          -0.1047   42.0518   15.6579 C.3     1  UNL1        0.0937
      9 C           0.1239   42.5040   17.0974 C.3     1  UNL1        0.0216
     10 C          -1.2047   42.9126   17.7322 C.3     1  UNL1        0.0035
     11 C          -1.8658   44.0246   16.9188 C.3     1  UNL1        0.0216
     12 C          -2.0779   43.5626   15.4794 C.3     1  UNL1        0.0937
     13 O          -0.5387   45.0397   13.6591 O.2     1  UNL1       -0.2694
     14 N          -0.8076   43.1017   14.9246 N.am    1  UNL1       -0.2757
     15 C           5.2110   41.3107   11.3791 C.2     1  UNL1        0.2500
     16 O           4.7579   40.2064   11.7866 O.2     1  UNL1       -0.2698
     17 N           4.4983   42.5242   11.6481 N.am    1  UNL1       -0.2749
     18 H           4.9897   43.3708   11.5434 H       1  UNL1        0.1557
     19 C           8.9726   41.4558    9.3161 C.ar    1  UNL1        0.1724
     20 C           7.7725   41.2483    8.5907 C.ar    1  UNL1        0.1725
     21 C           6.5564   41.2034    9.2820 C.ar    1  UNL1        0.0446
     22 C           6.5027   41.3587   10.6724 C.ar    1  UNL1        0.0569
     23 C           7.6893   41.5639   11.3821 C.ar    1  UNL1        0.0078
     24 C           8.9109   41.6117   10.7110 C.ar    1  UNL1        0.0402
     25 C          11.0313   42.6638    8.6441 C.3     1  UNL1        0.2526
     26 O          10.2064   41.5061    8.6568 O.3     1  UNL1       -0.4684
     27 C           8.5702   41.7395    6.2698 C.3     1  UNL1        0.2526
     28 O           7.7209   41.0815    7.1986 O.3     1  UNL1       -0.4684
     29 C           2.1354   41.0066   10.3997 C.1     1  UNL1        0.1019
     30 N           2.2091   40.2768    9.5045 N.1     1  UNL1       -0.1908
@<TRIPOS>BOND
     1    25    26    1
     2    19    26    1
     3    20    28    1
     4    20    21   ar
     5    27    28    1
     6    22    23   ar
     7    22    15    1
     8    24    19   ar
     9    15    17   am
    10     1     6   ar
    11     2    29    1
    12     2     3   ar
    13     4     3    1
    14     5     6   ar
    15     5     7    1
    16     7    14   am
    17     8    14    1
    18     8     9    1
    19     9    10    1
    20    10    11    1
    21    11    12    1
    22    12    14    1
    23    17     1    1
    24    19    20   ar
    25    21    22   ar
    26    23    24   ar
    27    15    16    2
    28     1     2   ar
    29     3     5   ar
    30     7    13    2
    31    29    30    3
    32    17    18    1
@<TRIPOS>MOLECULE
MolPort-001-980-658 872057 MCULE-5666138328 PubChem-1131592 ZINC000000872057 ZINC00872057
 30 32 0 0 0
SMALL
GASTEIGER

@<TRIPOS>ATOM
      1 C          13.3104   40.1349    9.4115 C.ar    1  UNL1        0.0905
      2 C          13.2392   41.3327    8.6984 C.ar    1  UNL1        0.0847
      3 C          12.1575   42.1415    9.0955 C.ar    1  UNL1       -0.0001
      4 C          11.8851   43.4826    8.4944 C.3     1  UNL1        0.0325
      5 C          11.4029   41.5933   10.1400 C.ar    1  UNL1        0.0809
      6 S          12.0802   40.1036   10.5502 S.2     1  UNL1       -0.0673
      7 C          10.1869   42.1773   10.7529 C.2     1  UNL1        0.2548
      8 C          10.1042   40.5637   12.6988 C.3     1  UNL1        0.0937
      9 C          10.1244   41.1729   14.0979 C.3     1  UNL1        0.0216
     10 C           8.7069   41.5584   14.5186 C.3     1  UNL1        0.0035
     11 C           8.0996   42.5380   13.5154 C.3     1  UNL1        0.0216
     12 C           8.0962   41.9202   12.1194 C.3     1  UNL1        0.0937
     13 O           9.7782   43.3004   10.3502 O.2     1  UNL1       -0.2694
     14 N           9.4484   41.4873   11.7762 N.am    1  UNL1       -0.2757
     15 C          14.0739   37.7288    9.0961 C.2     1  UNL1        0.2500
     16 O          12.9217   37.2519    9.2856 O.2     1  UNL1       -0.2698
     17 N          14.3199   39.1235    9.3129 N.am    1  UNL1       -0.2749
     18 H          15.2578   39.4096    9.4012 H       1  UNL1        0.1557
     19 C          17.2995   35.1409    7.9449 C.ar    1  UNL1        0.1724
     20 C          16.0337   35.0194    7.3187 C.ar    1  UNL1        0.1725
     21 C          14.9946   35.8722    7.7088 C.ar    1  UNL1        0.0446
     22 C          15.1810   36.8399    8.7033 C.ar    1  UNL1        0.0569
     23 C          16.4317   36.9555    9.3165 C.ar    1  UNL1        0.0078
     24 C          17.4794   36.1149    8.9415 C.ar    1  UNL1        0.0402
     25 C          19.6242   34.7973    7.1534 C.3     1  UNL1        0.2526
     26 O          18.3607   34.3045    7.5795 O.3     1  UNL1       -0.4684
     27 C          15.5854   32.6881    6.5260 C.3     1  UNL1        0.2526
     28 O          15.7466   34.0831    6.3140 O.3     1  UNL1       -0.4684
     29 C          14.2249   41.7595    7.7358 C.1     1  UNL1        0.1019
     30 N          15.0163   42.1038    6.9647 N.1     1  UNL1       -0.1908
@<TRIPOS>BOND
     1    25    26    1
     2    19    26    1
     3    20    28    1
     4    20    21   ar
     5    27    28    1
     6    22    23   ar
     7    22    15    1
     8    24    19   ar
     9    15    17   am
    10     1     6   ar
    11     2    29    1
    12     2     3   ar
    13     4     3    1
    14     5     6   ar
    15     5     7    1
    16     7    14   am
    17     8    14    1
    18     8     9    1
    19     9    10    1
    20    10    11    1
    21    11    12    1
    22    12    14    1
    23    17     1    1
    24    19    20   ar
    25    21    22   ar
    26    23    24   ar
    27    15    16    2
    28     1     2   ar
    29     3     5   ar
    30     7    13    2
    31    29    30    3
    32    17    18    1
@<TRIPOS>MOLECULE
MolPort-001-980-658 872057 MCULE-5666138328 PubChem-1131592 ZINC000000872057 ZINC00872057
 30 32 0 0 0
SMALL
GASTEIGER

@<TRIPOS>ATOM
      1 C          12.1137   40.5704   10.2648 C.ar    1  UNL1        0.0905
      2 C          12.3665   41.2542    9.0745 C.ar    1  UNL1        0.0847
      3 C          13.0172   40.4568    8.1140 C.ar    1  UNL1       -0.0001
      4 C          13.3738   40.9582    6.7518 C.3     1  UNL1        0.0325
      5 C          13.2438   39.1419    8.5391 C.ar    1  UNL1        0.0809
      6 S          12.6446   38.9879   10.1085 S.2     1  UNL1       -0.0673
      7 C          13.9365   38.0746    7.7799 C.2     1  UNL1        0.2548
      8 C          14.7459   36.8194    9.8210 C.3     1  UNL1        0.0937
      9 C          14.3319   35.3550    9.9361 C.3     1  UNL1        0.0216
     10 C          15.3105   34.4745    9.1603 C.3     1  UNL1        0.0035
     11 C          15.3678   34.9025    7.6945 C.3     1  UNL1        0.0216
     12 C          15.7720   36.3712    7.5952 C.3     1  UNL1        0.0937
     13 O          13.7166   37.9627    6.5431 O.2     1  UNL1       -0.2694
     14 N          14.8694   37.1799    8.4107 N.am    1  UNL1       -0.2757
     15 C           9.9869   41.2074   11.5069 C.2     1  UNL1        0.2500
     16 O           9.2800   41.2104   10.4623 O.2     1  UNL1       -0.2698
     17 N          11.4086   41.0562   11.4131 N.am    1  UNL1       -0.2749
     18 H          11.9435   41.3062   12.2009 H       1  UNL1        0.1557
     19 C           8.1525   41.8082   15.3411 C.ar    1  UNL1        0.1724
     20 C           8.8248   40.5927   15.0583 C.ar    1  UNL1        0.1725
     21 C           9.4157   40.4160   13.8019 C.ar    1  UNL1        0.0446
     22 C           9.3553   41.4139   12.8217 C.ar    1  UNL1        0.0569
     23 C           8.6916   42.6106   13.1067 C.ar    1  UNL1        0.0078
     24 C           8.0965   42.8053   14.3529 C.ar    1  UNL1        0.0402
     25 C           7.4717   43.2970   17.2036 C.3     1  UNL1        0.2526
     26 O           7.5502   42.0184   16.5870 O.3     1  UNL1       -0.4684
     27 C           7.8703   38.6936   16.3799 C.3     1  UNL1        0.2526
     28 O           8.9400   39.5338   15.9714 O.3     1  UNL1       -0.4684
     29 C          11.9149   42.5968    8.8026 C.1     1  UNL1        0.1019
     30 N          11.5513   43.6733    8.5827 N.1     1  UNL1       -0.1908
@<TRIPOS>BOND
     1    25    26    1
     2    19    26    1
     3    20    28    1
     4    20    21   ar
     5    27    28    1
     6    22    23   ar
     7    22    15    1
     8    24    19   ar
     9    15    17   am
    10     1     6   ar
    11     2    29    1
    12     2     3   ar
    13     4     3    1
    14     5     6   ar
    15     5     7    1
    16     7    14   am
    17     8    14    1
    18     8     9    1
    19     9    10    1
    20    10    11    1
    21    11    12    1
    22    12    14    1
    23    17     1    1
    24    19    20   ar
    25    21    22   ar
    26    23    24   ar
    27    15    16    2
    28     1     2   ar
    29     3     5   ar
    30     7    13    2
    31    29    30    3
    32    17    18    1
@<TRIPOS>MOLECULE
MolPort-001-980-658 872057 MCULE-5666138328 PubChem-1131592 ZINC000000872057 ZINC00872057
 30 32 0 0 0
SMALL
GASTEIGER

@<TRIPOS>ATOM
      1 C           9.9046   40.6946   10.0613 C.ar    1  UNL1        0.0905
      2 C          10.2733   40.0027    8.9066 C.ar    1  UNL1        0.0847
      3 C          11.6479   39.7017    8.8654 C.ar    1  UNL1       -0.0001
      4 C          12.2786   38.9462    7.7404 C.3     1  UNL1        0.0325
      5 C          12.3482   40.1278   10.0008 C.ar    1  UNL1        0.0809
      6 S          11.2541   40.8853   11.0377 S.2     1  UNL1       -0.0673
      7 C          13.8041   39.9958   10.2424 C.2     1  UNL1        0.2548
      8 C          14.5044   41.2296    8.1486 C.3     1  UNL1        0.0937
      9 C          15.4001   42.4507    8.3377 C.3     1  UNL1        0.0216
     10 C          16.8626   42.0159    8.4207 C.3     1  UNL1        0.0035
     11 C          17.0606   41.0226    9.5650 C.3     1  UNL1        0.0216
     12 C          16.1509   39.8125    9.3687 C.3     1  UNL1        0.0937
     13 O          14.2038   39.6189   11.3776 O.2     1  UNL1       -0.2694
     14 N          14.7702   40.2628    9.2111 N.am    1  UNL1       -0.2757
     15 C           7.7434   41.9953    9.7310 C.2     1  UNL1        0.2500
     16 O           8.2365   42.7507    8.8494 O.2     1  UNL1       -0.2698
     17 N           8.5847   41.0887   10.4542 N.am    1  UNL1       -0.2749
     18 H           8.2270   40.7060   11.2878 H       1  UNL1        0.1557
     19 C           3.5624   42.2514   10.6694 C.ar    1  UNL1        0.1724
     20 C           4.0931   42.9925    9.5839 C.ar    1  UNL1        0.1725
     21 C           5.4591   42.8960    9.2947 C.ar    1  UNL1        0.0446
     22 C           6.3091   42.0840   10.0552 C.ar    1  UNL1        0.0569
     23 C           5.7798   41.3548   11.1238 C.ar    1  UNL1        0.0078
     24 C           4.4212   41.4380   11.4276 C.ar    1  UNL1        0.0402
     25 C           1.7188   42.3739   12.3232 C.3     1  UNL1        0.2526
     26 O           2.2011   42.3245   10.9868 O.3     1  UNL1       -0.4684
     27 C           3.8563   44.8041    7.8733 C.3     1  UNL1        0.2526
     28 O           3.3258   43.8332    8.7636 O.3     1  UNL1       -0.4684
     29 C           9.3395   39.5402    7.9092 C.1     1  UNL1        0.1019
     30 N           8.5894   39.1714    7.1087 N.1     1  UNL1       -0.1908
@<TRIPOS>BOND
     1    25    26    1
     2    19    26    1
     3    20    28    1
     4    20    21   ar
     5    27    28    1
     6    22    23   ar
     7    22    15    1
     8    24    19   ar
     9    15    17   am
    10     1     6   ar
    11     2    29    1
    12     2     3   ar
    13     4     3    1
    14     5     6   ar
    15     5     7    1
    16     7    14   am
    17     8    14    1
    18     8     9    1
    19     9    10    1
    20    10    11    1
    21    11    12    1
    22    12    14    1
    23    17     1    1
    24    19    20   ar
    25    21    22   ar
    26    23    24   ar
    27    15    16    2
    28     1     2   ar
    29     3     5   ar
    30     7    13    2
    31    29    30    3
    32    17    18    1
@<TRIPOS>MOLECULE
MolPort-001-980-658 872057 MCULE-5666138328 PubChem-1131592 ZINC000000872057 ZINC00872057
 30 32 0 0 0
SMALL
GASTEIGER

@<TRIPOS>ATOM
      1 C           8.3225   40.9546    7.2780 C.ar    1  UNL1        0.0905
      2 C           8.9430   41.9905    7.9781 C.ar    1  UNL1        0.0847
      3 C           8.0349   42.7685    8.7210 C.ar    1  UNL1       -0.0001
      4 C           8.4619   43.9215    9.5710 C.3     1  UNL1        0.0325
      5 C           6.7106   42.3226    8.6293 C.ar    1  UNL1        0.0809
      6 S           6.6805   40.9743    7.6159 S.2     1  UNL1       -0.0673
      7 C           5.5227   42.9455    9.2590 C.2     1  UNL1        0.2548
      8 C           4.6316   40.7995   10.2578 C.3     1  UNL1        0.0937
      9 C           4.4220   40.7803   11.7694 C.3     1  UNL1        0.0216
     10 C           3.0517   41.3628   12.1126 C.3     1  UNL1        0.0035
     11 C           2.9255   42.7862   11.5713 C.3     1  UNL1        0.0216
     12 C           3.1484   42.7918   10.0612 C.3     1  UNL1        0.0937
     13 O           5.4626   44.2025    9.3411 O.2     1  UNL1       -0.2694
     14 N           4.4279   42.1565    9.7563 N.am    1  UNL1       -0.2757
     15 C           8.7418   38.5297    6.6331 C.2     1  UNL1        0.2500
     16 O           8.2110   38.0731    7.6822 O.2     1  UNL1       -0.2698
     17 N           8.9534   39.9393    6.4886 N.am    1  UNL1       -0.2749
     18 H           9.5826   40.2337    5.7909 H       1  UNL1        0.1557
     19 C          10.0667   35.8440    3.5576 C.ar    1  UNL1        0.1724
     20 C          10.0543   37.2418    3.3226 C.ar    1  UNL1        0.1725
     21 C           9.6181   38.1007    4.3379 C.ar    1  UNL1        0.0446
     22 C           9.1944   37.6069    5.5777 C.ar    1  UNL1        0.0569
     23 C           9.2096   36.2276    5.8038 C.ar    1  UNL1        0.0078
     24 C           9.6409   35.3558    4.8043 C.ar    1  UNL1        0.0402
     25 C          11.3063   33.8204    2.8385 C.3     1  UNL1        0.2526
     26 O          10.4966   34.9563    2.5644 O.3     1  UNL1       -0.4684
     27 C          10.2803   39.2034    1.7846 C.3     1  UNL1        0.2526
     28 O          10.4581   37.8341    2.1165 O.3     1  UNL1       -0.4684
     29 C          10.3710   42.1857    8.0342 C.1     1  UNL1        0.1019
     30 N          11.5166   42.3432    8.0813 N.1     1  UNL1       -0.1908
@<TRIPOS>BOND
     1    25    26    1
     2    19    26    1
     3    20    28    1
     4    20    21   ar
     5    27    28    1
     6    22    23   ar
     7    22    15    1
     8    24    19   ar
     9    15    17   am
    10     1     6   ar
    11     2    29    1
    12     2     3   ar
    13     4     3    1
    14     5     6   ar
    15     5     7    1
    16     7    14   am
    17     8    14    1
    18     8     9    1
    19     9    10    1
    20    10    11    1
    21    11    12    1
    22    12    14    1
    23    17     1    1
    24    19    20   ar
    25    21    22   ar
    26    23    24   ar
    27    15    16    2
    28     1     2   ar
    29     3     5   ar
    30     7    13    2
    31    29    30    3
    32    17    18    1
@<TRIPOS>MOLECULE
MolPort-001-980-658 872057 MCULE-5666138328 PubChem-1131592 ZINC000000872057 ZINC00872057
 30 32 0 0 0
SMALL
GASTEIGER

@<TRIPOS>ATOM
      1 C          10.3805   41.8184    9.4859 C.ar    1  UNL1        0.0905
      2 C          10.6411   41.1214   10.6667 C.ar    1  UNL1        0.0847
      3 C          11.9482   40.6010   10.7169 C.ar    1  UNL1       -0.0001
      4 C          12.4713   39.8358   11.8895 C.3     1  UNL1        0.0325
      5 C          12.7202   40.9183    9.5924 C.ar    1  UNL1        0.0809
      6 S          11.7661   41.8308    8.5422 S.2     1  UNL1       -0.0673
      7 C          14.1136   40.4897    9.3274 C.2     1  UNL1        0.2548
      8 C          14.3122   39.0410   11.3911 C.3     1  UNL1        0.0937
      9 C          14.6721   37.5746   11.1692 C.3     1  UNL1        0.0216
     10 C          16.1889   37.4203   11.0670 C.3     1  UNL1        0.0035
     11 C          16.7387   38.2854    9.9337 C.3     1  UNL1        0.0216
     12 C          16.3619   39.7468   10.1629 C.3     1  UNL1        0.0937
     13 O          14.6148   40.7079    8.1909 O.2     1  UNL1       -0.2694
     14 N          14.9156   39.8541   10.3380 N.am    1  UNL1       -0.2757
     15 C           8.0437   41.9624    8.4906 C.2     1  UNL1        0.2500
     16 O           8.1403   40.8550    7.8946 O.2     1  UNL1       -0.2698
     17 N           9.1859   42.5306    9.1427 N.am    1  UNL1       -0.2749
     18 H           9.1466   43.4868    9.3735 H       1  UNL1        0.1557
     19 C           4.3268   44.1091    8.4366 C.ar    1  UNL1        0.1724
     20 C           4.4906   42.9947    9.2971 C.ar    1  UNL1        0.1725
     21 C           5.7100   42.3076    9.2992 C.ar    1  UNL1        0.0446
     22 C           6.7679   42.6987    8.4697 C.ar    1  UNL1        0.0569
     23 C           6.6007   43.7989    7.6240 C.ar    1  UNL1        0.0078
     24 C           5.3930   44.4963    7.6076 C.ar    1  UNL1        0.0402
     25 C           2.6619   45.5217    7.2612 C.3     1  UNL1        0.2526
     26 O           3.1208   44.8191    8.4087 O.3     1  UNL1       -0.4684
     27 C           3.7234   42.0261   11.4737 C.3     1  UNL1        0.2526
     28 O           3.4927   42.5247   10.1641 O.3     1  UNL1       -0.4684
     29 C           9.7191   41.0322   11.7724 C.1     1  UNL1        0.1019
     30 N           8.9810   40.9597   12.6609 N.1     1  UNL1       -0.1908
@<TRIPOS>BOND
     1    25    26    1
     2    19    26    1
     3    20    28    1
     4    20    21   ar
     5    27    28    1
     6    22    23   ar
     7    22    15    1
     8    24    19   ar
     9    15    17   am
    10     1     6   ar
    11     2    29    1
    12     2     3   ar
    13     4     3    1
    14     5     6   ar
    15     5     7    1
    16     7    14   am
    17     8    14    1
    18     8     9    1
    19     9    10    1
    20    10    11    1
    21    11    12    1
    22    12    14    1
    23    17     1    1
    24    19    20   ar
    25    21    22   ar
    26    23    24   ar
    27    15    16    2
    28     1     2   ar
    29     3     5   ar
    30     7    13    2
    31    29    30    3
    32    17    18    1
