@<TRIPOS>MOLECULE
MolPort-035-706-980 CSSS03437789235 MCULE-4626765719 PubChem-91938305
 24 25 0 0 0
SMALL
GASTEIGER

@<TRIPOS>ATOM
      1 C          10.6525   40.2505    9.3489 C.3     1  UNL1        0.2880
      2 C          10.6621   38.7748    9.7220 C.3     1  UNL1        0.0650
      3 C          12.5537   41.3212    8.0960 C.ar    1  UNL1        0.1542
      4 C          13.8823   41.7556    8.1166 C.ar    1  UNL1        0.0529
      5 C          14.4325   42.4110    7.0091 C.ar    1  UNL1        0.0534
      6 C          13.6364   42.6261    5.8733 C.ar    1  UNL1        0.0161
      7 C          12.3087   42.1903    5.8478 C.ar    1  UNL1        0.0190
      8 C          11.7690   41.5391    6.9592 C.ar    1  UNL1        0.0850
      9 C           9.8542   40.4281    8.0727 C.2     1  UNL1        0.2732
     10 O          12.0205   40.6676    9.2121 O.3     1  UNL1       -0.4618
     11 O           8.6643   40.0169    8.0097 O.2     1  UNL1       -0.2704
     12 N          10.4226   41.0808    6.9375 N.am    1  UNL1       -0.2783
     13 H           9.8761   41.2154    6.1297 H       1  UNL1        0.1551
     14 C          16.3949   43.9141    6.3297 C.2     1  UNL1        0.2261
     15 O          15.7167   44.6126    5.5304 O.2     1  UNL1       -0.2748
     16 N          15.7988   42.8418    7.0716 N.am    1  UNL1       -0.2838
     17 H          16.3886   42.3502    7.6878 H       1  UNL1        0.1549
     18 C          17.8348   44.2277    6.5322 C.3     1  UNL1        0.0854
     19 C          18.2306   43.9302    7.9647 C.3     1  UNL1        0.0101
     20 C          10.0092   41.0532   10.4469 C.2     1  UNL1        0.3623
     21 O          10.0717   40.6564   11.6443 O.2     1  UNL1       -0.2457
     22 O           9.2946   42.2121   10.1243 O.3     1  UNL1       -0.4458
     23 C           8.8323   44.5663    9.8533 C.3     1  UNL1        0.0513
     24 C           9.7852   43.5188   10.3994 C.3     1  UNL1        0.2087
@<TRIPOS>BOND
     1    23    24    1
     2    24    22    1
     3    20    22    1
     4     1    20    1
     5     1     2    1
     6     1    10    1
     7     1     9    1
     8     3    10    1
     9     4     5   ar
    10     5    16    1
    11    18    14    1
    12    18    19    1
    13     6     7   ar
    14     8    12    1
    15     8     3   ar
    16    16    14   am
    17    12     9   am
    18    20    21    2
    19     3     4   ar
    20     5     6   ar
    21    14    15    2
    22     7     8   ar
    23     9    11    2
    24    16    17    1
    25    12    13    1
@<TRIPOS>MOLECULE
MolPort-035-706-980 CSSS03437789235 MCULE-4626765719 PubChem-91938305
 24 25 0 0 0
SMALL
GASTEIGER

@<TRIPOS>ATOM
      1 C           8.3082   41.2930    6.4393 C.3     1  UNL1        0.2880
      2 C           7.3377   42.4302    6.1530 C.3     1  UNL1        0.0650
      3 C          10.7495   41.7051    6.8880 C.ar    1  UNL1        0.1542
      4 C          11.9925   42.0920    6.3785 C.ar    1  UNL1        0.0529
      5 C          13.1332   42.0603    7.1886 C.ar    1  UNL1        0.0534
      6 C          13.0167   41.6379    8.5221 C.ar    1  UNL1        0.0161
      7 C          11.7751   41.2534    9.0359 C.ar    1  UNL1        0.0190
      8 C          10.6434   41.2869    8.2181 C.ar    1  UNL1        0.0850
      9 C           8.2121   40.9241    7.9063 C.2     1  UNL1        0.2732
     10 O           9.6198   41.7433    6.0635 O.3     1  UNL1       -0.4618
     11 O           7.0998   40.6033    8.4052 O.2     1  UNL1       -0.2704
     12 N           9.3735   40.9096    8.7360 N.am    1  UNL1       -0.2783
     13 H           9.2947   40.6352    9.6782 H       1  UNL1        0.1551
     14 C          14.6544   43.6683    5.8955 C.2     1  UNL1        0.2261
     15 O          13.7515   44.5233    5.6939 O.2     1  UNL1       -0.2748
     16 N          14.3893   42.4639    6.6268 N.am    1  UNL1       -0.2838
     17 H          15.1482   41.8505    6.7568 H       1  UNL1        0.1549
     18 C          16.0302   43.9274    5.3928 C.3     1  UNL1        0.0854
     19 C          16.9822   44.0960    6.5601 C.3     1  UNL1        0.0101
     20 C           7.9517   40.0921    5.6060 C.2     1  UNL1        0.3623
     21 O           6.9905   39.3462    5.9449 O.2     1  UNL1       -0.2457
     22 O           8.7275   39.7771    4.4850 O.3     1  UNL1       -0.4458
     23 C           9.7143   38.1067    3.0479 C.3     1  UNL1        0.0513
     24 C           9.6190   38.6690    4.4544 C.3     1  UNL1        0.2087
@<TRIPOS>BOND
     1    23    24    1
     2    24    22    1
     3    20    22    1
     4     1    20    1
     5     1     2    1
     6     1    10    1
     7     1     9    1
     8     3    10    1
     9     4     5   ar
    10     5    16    1
    11    18    14    1
    12    18    19    1
    13     6     7   ar
    14     8    12    1
    15     8     3   ar
    16    16    14   am
    17    12     9   am
    18    20    21    2
    19     3     4   ar
    20     5     6   ar
    21    14    15    2
    22     7     8   ar
    23     9    11    2
    24    16    17    1
    25    12    13    1
@<TRIPOS>MOLECULE
MolPort-035-706-980 CSSS03437789235 MCULE-4626765719 PubChem-91938305
 24 25 0 0 0
SMALL
GASTEIGER

@<TRIPOS>ATOM
      1 C           7.7936   42.1841    8.8533 C.3     1  UNL1        0.2880
      2 C           7.3754   41.6849   10.2291 C.3     1  UNL1        0.0650
      3 C          10.1323   41.8766    7.9776 C.ar    1  UNL1        0.1542
      4 C          11.4807   42.2351    8.0664 C.ar    1  UNL1        0.0529
      5 C          12.4145   41.7161    7.1625 C.ar    1  UNL1        0.0534
      6 C          11.9840   40.8275    6.1649 C.ar    1  UNL1        0.0161
      7 C          10.6374   40.4643    6.0750 C.ar    1  UNL1        0.0190
      8 C           9.7134   40.9897    6.9810 C.ar    1  UNL1        0.0850
      9 C           7.3860   41.1580    7.8148 C.2     1  UNL1        0.2732
     10 O           9.2127   42.4052    8.8899 O.3     1  UNL1       -0.4618
     11 O           6.1840   40.7877    7.7308 O.2     1  UNL1       -0.2704
     12 N           8.3431   40.6158    6.9050 N.am    1  UNL1       -0.2783
     13 H           8.0513   39.9753    6.2167 H       1  UNL1        0.1551
     14 C          14.3991   43.2786    6.7246 C.2     1  UNL1        0.2261
     15 O          13.7306   44.1067    6.0507 O.2     1  UNL1       -0.2748
     16 N          13.7876   42.1104    7.2873 N.am    1  UNL1       -0.2838
     17 H          14.3708   41.5174    7.8141 H       1  UNL1        0.1549
     18 C          15.8442   43.5336    6.9684 C.3     1  UNL1        0.0854
     19 C          16.4045   42.4757    7.8980 C.3     1  UNL1        0.0101
     20 C           7.1082   43.4888    8.5506 C.2     1  UNL1        0.3623
     21 O           7.6337   44.5805    8.9077 O.2     1  UNL1       -0.2457
     22 O           5.8589   43.4804    7.9207 O.3     1  UNL1       -0.4458
     23 C           3.9066   44.8960    7.8024 C.3     1  UNL1        0.0513
     24 C           4.6574   43.8396    8.5924 C.3     1  UNL1        0.2087
@<TRIPOS>BOND
     1    23    24    1
     2    24    22    1
     3    20    22    1
     4     1    20    1
     5     1     2    1
     6     1    10    1
     7     1     9    1
     8     3    10    1
     9     4     5   ar
    10     5    16    1
    11    18    14    1
    12    18    19    1
    13     6     7   ar
    14     8    12    1
    15     8     3   ar
    16    16    14   am
    17    12     9   am
    18    20    21    2
    19     3     4   ar
    20     5     6   ar
    21    14    15    2
    22     7     8   ar
    23     9    11    2
    24    16    17    1
    25    12    13    1
@<TRIPOS>MOLECULE
MolPort-035-706-980 CSSS03437789235 MCULE-4626765719 PubChem-91938305
 24 25 0 0 0
SMALL
GASTEIGER

@<TRIPOS>ATOM
      1 C          14.4677   37.7480   10.6096 C.3     1  UNL1        0.2880
      2 C          13.3720   37.7394   11.6661 C.3     1  UNL1        0.0650
      3 C          15.1561   39.8555    9.4198 C.ar    1  UNL1        0.1542
      4 C          14.8227   40.8492    8.4947 C.ar    1  UNL1        0.0529
      5 C          15.7463   41.8457    8.1591 C.ar    1  UNL1        0.0534
      6 C          17.0129   41.8397    8.7638 C.ar    1  UNL1        0.0161
      7 C          17.3486   40.8498    9.6916 C.ar    1  UNL1        0.0190
      8 C          16.4202   39.8588   10.0178 C.ar    1  UNL1        0.0850
      9 C          15.8144   37.8271   11.3007 C.2     1  UNL1        0.2732
     10 O          14.2202   38.8672    9.7434 O.3     1  UNL1       -0.4618
     11 O          16.1323   36.9661   12.1647 O.2     1  UNL1       -0.2704
     12 N          16.7485   38.8547   10.9704 N.am    1  UNL1       -0.2783
     13 H          17.6306   38.8688   11.4072 H       1  UNL1        0.1551
     14 C          16.0170   44.1010    6.9708 C.2     1  UNL1        0.2261
     15 O          17.0478   44.4326    7.6144 O.2     1  UNL1       -0.2748
     16 N          15.3651   42.8456    7.2046 N.am    1  UNL1       -0.2838
     17 H          14.5737   42.6499    6.6527 H       1  UNL1        0.1549
     18 C          15.4839   45.0151    5.9253 C.3     1  UNL1        0.0854
     19 C          14.3051   44.3672    5.2267 C.3     1  UNL1        0.0101
     20 C          14.4061   36.4837    9.7962 C.2     1  UNL1        0.3623
     21 O          13.2904   36.0111    9.4397 O.2     1  UNL1       -0.2457
     22 O          15.5904   35.8065    9.4857 O.3     1  UNL1       -0.4458
     23 C          17.0492   34.2257    8.3891 C.3     1  UNL1        0.0513
     24 C          15.7041   34.9284    8.3722 C.3     1  UNL1        0.2087
@<TRIPOS>BOND
     1    23    24    1
     2    24    22    1
     3    20    22    1
     4     1    20    1
     5     1     2    1
     6     1    10    1
     7     1     9    1
     8     3    10    1
     9     4     5   ar
    10     5    16    1
    11    18    14    1
    12    18    19    1
    13     6     7   ar
    14     8    12    1
    15     8     3   ar
    16    16    14   am
    17    12     9   am
    18    20    21    2
    19     3     4   ar
    20     5     6   ar
    21    14    15    2
    22     7     8   ar
    23     9    11    2
    24    16    17    1
    25    12    13    1
@<TRIPOS>MOLECULE
MolPort-035-706-980 CSSS03437789235 MCULE-4626765719 PubChem-91938305
 24 25 0 0 0
SMALL
GASTEIGER

@<TRIPOS>ATOM
      1 C          14.8153   38.1953   10.1268 C.3     1  UNL1        0.2880
      2 C          15.0296   36.6976   10.2935 C.3     1  UNL1        0.0650
      3 C          12.5965   39.1549    9.4289 C.ar    1  UNL1        0.1542
      4 C          11.6516   39.3209    8.4120 C.ar    1  UNL1        0.0529
      5 C          10.5081   40.0991    8.6251 C.ar    1  UNL1        0.0534
      6 C          10.3168   40.7107    9.8739 C.ar    1  UNL1        0.0161
      7 C          11.2577   40.5444   10.8940 C.ar    1  UNL1        0.0190
      8 C          12.3964   39.7674   10.6700 C.ar    1  UNL1        0.0850
      9 C          14.5287   38.8036   11.4852 C.2     1  UNL1        0.2732
     10 O          13.7337   38.3734    9.1980 O.3     1  UNL1       -0.4618
     11 O          15.3440   38.6440   12.4333 O.2     1  UNL1       -0.2704
     12 N          13.3528   39.5821   11.7064 N.am    1  UNL1       -0.2783
     13 H          13.2021   39.9959   12.5869 H       1  UNL1        0.1551
     14 C           8.8041   39.2005    6.9338 C.2     1  UNL1        0.2261
     15 O           8.9016   38.0042    7.3161 O.2     1  UNL1       -0.2748
     16 N           9.5644   40.2450    7.5554 N.am    1  UNL1       -0.2838
     17 H           9.4239   41.1570    7.2123 H       1  UNL1        0.1549
     18 C           7.8583   39.5414    5.8375 C.3     1  UNL1        0.0854
     19 C           6.5141   39.9315    6.4192 C.3     1  UNL1        0.0101
     20 C          16.0536   38.8304    9.5551 C.2     1  UNL1        0.3623
     21 O          17.1218   38.1639    9.4560 O.2     1  UNL1       -0.2457
     22 O          16.0277   40.1798    9.1862 O.3     1  UNL1       -0.4458
     23 C          17.0726   42.2269    8.4465 C.3     1  UNL1        0.0513
     24 C          17.1210   41.0604    9.4163 C.3     1  UNL1        0.2087
@<TRIPOS>BOND
     1    23    24    1
     2    24    22    1
     3    20    22    1
     4     1    20    1
     5     1     2    1
     6     1    10    1
     7     1     9    1
     8     3    10    1
     9     4     5   ar
    10     5    16    1
    11    18    14    1
    12    18    19    1
    13     6     7   ar
    14     8    12    1
    15     8     3   ar
    16    16    14   am
    17    12     9   am
    18    20    21    2
    19     3     4   ar
    20     5     6   ar
    21    14    15    2
    22     7     8   ar
    23     9    11    2
    24    16    17    1
    25    12    13    1
@<TRIPOS>MOLECULE
MolPort-035-706-980 CSSS03437789235 MCULE-4626765719 PubChem-91938305
 24 25 0 0 0
SMALL
GASTEIGER

@<TRIPOS>ATOM
      1 C          15.8445   35.4543    8.2878 C.3     1  UNL1        0.2880
      2 C          15.6111   33.9783    8.5775 C.3     1  UNL1        0.0650
      3 C          14.2735   37.2392    9.1107 C.ar    1  UNL1        0.1542
      4 C          13.0148   37.8390    9.0101 C.ar    1  UNL1        0.0529
      5 C          12.7039   38.9697    9.7739 C.ar    1  UNL1        0.0534
      6 C          13.6694   39.4957   10.6464 C.ar    1  UNL1        0.0161
      7 C          14.9278   38.8968   10.7520 C.ar    1  UNL1        0.0190
      8 C          15.2284   37.7699    9.9837 C.ar    1  UNL1        0.0850
      9 C          16.8273   36.0035    9.3026 C.2     1  UNL1        0.2732
     10 O          14.5668   36.1092    8.3396 O.3     1  UNL1       -0.4618
     11 O          17.9583   35.4646    9.4423 O.2     1  UNL1       -0.2704
     12 N          16.5020   37.1462   10.0940 N.am    1  UNL1       -0.2783
     13 H          17.1672   37.5069   10.7238 H       1  UNL1        0.1551
     14 C          10.8102   40.0656    8.4378 C.2     1  UNL1        0.2261
     15 O          11.4214   40.0190    7.3373 O.2     1  UNL1       -0.2748
     16 N          11.4018   39.5554    9.6400 N.am    1  UNL1       -0.2838
     17 H          10.8577   39.6131   10.4584 H       1  UNL1        0.1549
     18 C           9.4355   40.6317    8.4857 C.3     1  UNL1        0.0854
     19 C           9.4915   42.1364    8.3128 C.3     1  UNL1        0.0101
     20 C          16.4185   35.6217    6.9071 C.2     1  UNL1        0.3623
     21 O          17.6058   36.0254    6.7571 O.2     1  UNL1       -0.2457
     22 O          15.6095   35.3802    5.7914 O.3     1  UNL1       -0.4458
     23 C          16.3031   35.9692    3.5550 C.3     1  UNL1        0.0513
     24 C          16.1201   34.8567    4.5711 C.3     1  UNL1        0.2087
@<TRIPOS>BOND
     1    23    24    1
     2    24    22    1
     3    20    22    1
     4     1    20    1
     5     1     2    1
     6     1    10    1
     7     1     9    1
     8     3    10    1
     9     4     5   ar
    10     5    16    1
    11    18    14    1
    12    18    19    1
    13     6     7   ar
    14     8    12    1
    15     8     3   ar
    16    16    14   am
    17    12     9   am
    18    20    21    2
    19     3     4   ar
    20     5     6   ar
    21    14    15    2
    22     7     8   ar
    23     9    11    2
    24    16    17    1
    25    12    13    1
@<TRIPOS>MOLECULE
MolPort-035-706-980 CSSS03437789235 MCULE-4626765719 PubChem-91938305
 24 25 0 0 0
SMALL
GASTEIGER

@<TRIPOS>ATOM
      1 C          13.7650   36.6964    9.9269 C.3     1  UNL1        0.2880
      2 C          13.3139   35.2798   10.2535 C.3     1  UNL1        0.0650
      3 C          12.1240   38.5324    9.4101 C.ar    1  UNL1        0.1542
      4 C          11.1907   39.0610    8.5134 C.ar    1  UNL1        0.0529
      5 C          10.5720   40.2889    8.7740 C.ar    1  UNL1        0.0534
      6 C          10.8959   40.9853    9.9488 C.ar    1  UNL1        0.0161
      7 C          11.8261   40.4585   10.8492 C.ar    1  UNL1        0.0190
      8 C          12.4393   39.2332   10.5784 C.ar    1  UNL1        0.0850
      9 C          14.0232   37.4396   11.2224 C.2     1  UNL1        0.2732
     10 O          12.7327   37.3035    9.1333 O.3     1  UNL1       -0.4618
     11 O          14.8335   36.9728   12.0676 O.2     1  UNL1       -0.2704
     12 N          13.3776   38.6832   11.4951 N.am    1  UNL1       -0.2783
     13 H          13.5842   39.1661   12.3277 H       1  UNL1        0.1551
     14 C           8.9316   42.0515    7.8942 C.2     1  UNL1        0.2261
     15 O           9.1343   42.8603    8.8385 O.2     1  UNL1       -0.2748
     16 N           9.6214   40.7964    7.8279 N.am    1  UNL1       -0.2838
     17 H           9.4219   40.2237    7.0524 H       1  UNL1        0.1549
     18 C           7.9820   42.4190    6.8098 C.3     1  UNL1        0.0854
     19 C           7.3110   41.1726    6.2680 C.3     1  UNL1        0.0101
     20 C          15.0350   36.6574    9.1210 C.2     1  UNL1        0.3623
     21 O          15.3664   35.6042    8.5077 O.2     1  UNL1       -0.2457
     22 O          15.8728   37.7779    9.1019 O.3     1  UNL1       -0.4458
     23 C          17.3368   39.0504   10.5395 C.3     1  UNL1        0.0513
     24 C          17.1559   37.7883    9.7161 C.3     1  UNL1        0.2087
@<TRIPOS>BOND
     1    23    24    1
     2    24    22    1
     3    20    22    1
     4     1    20    1
     5     1     2    1
     6     1    10    1
     7     1     9    1
     8     3    10    1
     9     4     5   ar
    10     5    16    1
    11    18    14    1
    12    18    19    1
    13     6     7   ar
    14     8    12    1
    15     8     3   ar
    16    16    14   am
    17    12     9   am
    18    20    21    2
    19     3     4   ar
    20     5     6   ar
    21    14    15    2
    22     7     8   ar
    23     9    11    2
    24    16    17    1
    25    12    13    1
@<TRIPOS>MOLECULE
MolPort-035-706-980 CSSS03437789235 MCULE-4626765719 PubChem-91938305
 24 25 0 0 0
SMALL
GASTEIGER

@<TRIPOS>ATOM
      1 C          13.6321   39.2909    9.4700 C.3     1  UNL1        0.2880
      2 C          13.7992   37.8573    8.9866 C.3     1  UNL1        0.0650
      3 C          11.3993   40.4509    9.4557 C.ar    1  UNL1        0.1542
      4 C          10.3715   41.0196    8.6976 C.ar    1  UNL1        0.0529
      5 C           9.2858   41.6404    9.3257 C.ar    1  UNL1        0.0534
      6 C           9.2369   41.6843   10.7278 C.ar    1  UNL1        0.0161
      7 C          10.2610   41.1140   11.4889 C.ar    1  UNL1        0.0190
      8 C          11.3410   40.4987   10.8520 C.ar    1  UNL1        0.0850
      9 C          13.4986   39.2867   10.9798 C.2     1  UNL1        0.2732
     10 O          12.4769   39.8343    8.8108 O.3     1  UNL1       -0.4618
     11 O          14.3913   38.7520   11.6912 O.2     1  UNL1       -0.2704
     12 N          12.3814   39.9045   11.6186 N.am    1  UNL1       -0.2783
     13 H          12.3304   39.9195   12.6017 H       1  UNL1        0.1551
     14 C           7.8255   43.5809    8.5049 C.2     1  UNL1        0.2261
     15 O           8.3702   44.4401    9.2477 O.2     1  UNL1       -0.2748
     16 N           8.2533   42.2125    8.5115 N.am    1  UNL1       -0.2838
     17 H           7.7902   41.6024    7.8930 H       1  UNL1        0.1549
     18 C           6.7389   43.9999    7.5795 C.3     1  UNL1        0.0854
     19 C           6.8231   43.2045    6.2920 C.3     1  UNL1        0.0101
     20 C          14.8368   40.1059    9.0853 C.2     1  UNL1        0.3623
     21 O          14.6925   41.2602    8.5932 O.2     1  UNL1       -0.2457
     22 O          16.1148   39.5537    9.2251 O.3     1  UNL1       -0.4458
     23 C          18.0518   39.1020   10.5938 C.3     1  UNL1        0.0513
     24 C          17.1320   40.1604   10.0131 C.3     1  UNL1        0.2087
@<TRIPOS>BOND
     1    23    24    1
     2    24    22    1
     3    20    22    1
     4     1    20    1
     5     1     2    1
     6     1    10    1
     7     1     9    1
     8     3    10    1
     9     4     5   ar
    10     5    16    1
    11    18    14    1
    12    18    19    1
    13     6     7   ar
    14     8    12    1
    15     8     3   ar
    16    16    14   am
    17    12     9   am
    18    20    21    2
    19     3     4   ar
    20     5     6   ar
    21    14    15    2
    22     7     8   ar
    23     9    11    2
    24    16    17    1
    25    12    13    1
@<TRIPOS>MOLECULE
MolPort-035-706-980 CSSS03437789235 MCULE-4626765719 PubChem-91938305
 24 25 0 0 0
SMALL
GASTEIGER

@<TRIPOS>ATOM
      1 C          13.8813   37.4541   10.2022 C.3     1  UNL1        0.2880
      2 C          13.7781   36.0678   10.8223 C.3     1  UNL1        0.0650
      3 C          11.8427   38.7966    9.5916 C.ar    1  UNL1        0.1542
      4 C          10.7410   38.9472    8.7442 C.ar    1  UNL1        0.0529
      5 C           9.8971   40.0569    8.8670 C.ar    1  UNL1        0.0534
      6 C          10.1663   41.0184    9.8535 C.ar    1  UNL1        0.0161
      7 C          11.2648   40.8695   10.7046 C.ar    1  UNL1        0.0190
      8 C          12.1018   39.7593   10.5722 C.ar    1  UNL1        0.0850
      9 C          14.0871   38.4712   11.3070 C.2     1  UNL1        0.2732
     10 O          12.6755   37.6808    9.4546 O.3     1  UNL1       -0.4618
     11 O          15.0512   38.3457   12.1092 O.2     1  UNL1       -0.2704
     12 N          13.2147   39.5930   11.4422 N.am    1  UNL1       -0.2783
     13 H          13.3855   40.2597   12.1462 H       1  UNL1        0.1551
     14 C           8.2899   39.1711    7.0770 C.2     1  UNL1        0.2261
     15 O           8.8290   38.0347    7.0088 O.2     1  UNL1       -0.2748
     16 N           8.7789   40.1743    7.9770 N.am    1  UNL1       -0.2838
     17 H           8.2970   41.0328    7.9849 H       1  UNL1        0.1549
     18 C           7.1030   39.4678    6.2307 C.3     1  UNL1        0.0854
     19 C           6.8489   40.9618    6.2052 C.3     1  UNL1        0.0101
     20 C          15.0526   37.5086    9.2594 C.2     1  UNL1        0.3623
     21 O          15.7184   38.5745    9.1341 O.2     1  UNL1       -0.2457
     22 O          15.3636   36.3874    8.4823 O.3     1  UNL1       -0.4458
     23 C          16.5895   34.3074    8.4681 C.3     1  UNL1        0.0513
     24 C          16.6685   35.8228    8.4359 C.3     1  UNL1        0.2087
@<TRIPOS>BOND
     1    23    24    1
     2    24    22    1
     3    20    22    1
     4     1    20    1
     5     1     2    1
     6     1    10    1
     7     1     9    1
     8     3    10    1
     9     4     5   ar
    10     5    16    1
    11    18    14    1
    12    18    19    1
    13     6     7   ar
    14     8    12    1
    15     8     3   ar
    16    16    14   am
    17    12     9   am
    18    20    21    2
    19     3     4   ar
    20     5     6   ar
    21    14    15    2
    22     7     8   ar
    23     9    11    2
    24    16    17    1
    25    12    13    1
@<TRIPOS>MOLECULE
MolPort-035-706-980 CSSS03437789235 MCULE-4626765719 PubChem-91938305
 24 25 0 0 0
SMALL
GASTEIGER

@<TRIPOS>ATOM
      1 C           8.9277   41.8930   10.1464 C.3     1  UNL1        0.2880
      2 C           7.8980   41.8491   11.2666 C.3     1  UNL1        0.0650
      3 C          11.0199   40.4964   10.2032 C.ar    1  UNL1        0.1542
      4 C          12.2688   40.2678   10.7883 C.ar    1  UNL1        0.0529
      5 C          13.1110   39.2646   10.2956 C.ar    1  UNL1        0.0534
      6 C          12.6876   38.4859    9.2072 C.ar    1  UNL1        0.0161
      7 C          11.4383   38.7094    8.6218 C.ar    1  UNL1        0.0190
      8 C          10.6065   39.7145    9.1201 C.ar    1  UNL1        0.0850
      9 C           8.4751   40.9752    9.0283 C.2     1  UNL1        0.2732
     10 O          10.1910   41.5036   10.7091 O.3     1  UNL1       -0.4618
     11 O           7.3406   41.1328    8.5021 O.2     1  UNL1       -0.2704
     12 N           9.3281   39.9406    8.5388 N.am    1  UNL1       -0.2783
     13 H           9.0280   39.3767    7.7897 H       1  UNL1        0.1551
     14 C          15.6712   39.3717   10.3711 C.2     1  UNL1        0.2261
     15 O          15.7857   39.8902    9.2288 O.2     1  UNL1       -0.2748
     16 N          14.3845   39.0636   10.9234 N.am    1  UNL1       -0.2838
     17 H          14.3742   38.6736   11.8273 H       1  UNL1        0.1549
     18 C          16.8928   39.1031   11.1763 C.3     1  UNL1        0.0854
     19 C          18.1247   39.2346   10.3033 C.3     1  UNL1        0.0101
     20 C           9.0469   43.2951    9.6137 C.2     1  UNL1        0.3623
     21 O           9.8911   44.0934   10.1090 O.2     1  UNL1       -0.2457
     22 O           8.1782   43.7242    8.6043 O.3     1  UNL1       -0.4458
     23 C           5.9122   44.3794    8.0893 C.3     1  UNL1        0.0513
     24 C           7.1987   44.7347    8.8120 C.3     1  UNL1        0.2087
@<TRIPOS>BOND
     1    23    24    1
     2    24    22    1
     3    20    22    1
     4     1    20    1
     5     1     2    1
     6     1    10    1
     7     1     9    1
     8     3    10    1
     9     4     5   ar
    10     5    16    1
    11    18    14    1
    12    18    19    1
    13     6     7   ar
    14     8    12    1
    15     8     3   ar
    16    16    14   am
    17    12     9   am
    18    20    21    2
    19     3     4   ar
    20     5     6   ar
    21    14    15    2
    22     7     8   ar
    23     9    11    2
    24    16    17    1
    25    12    13    1
