@<TRIPOS>MOLECULE
MolPort-007-710-788 ChemDiv-D481-2654 MCULE-8647870878 PubChem-46269941 ZINC000033019576 ZINC33019576
 31 33 0 0 0
SMALL
GASTEIGER

@<TRIPOS>ATOM
      1 C           8.7385   41.2631    6.5717 C.ar    1  UNL1        0.1975
      2 C          10.8438   41.4561    6.4552 C.ar    1  UNL1        0.1706
      3 N           9.0875   40.9719    5.3059 N.ar    1  UNL1       -0.1218
      4 N          10.4040   41.0967    5.2314 N.ar    1  UNL1       -0.1279
      5 N           9.8136   41.5677    7.3271 N.ar    1  UNL1       -0.2690
      6 C           9.8401   41.7833    8.7460 C.ar    1  UNL1        0.0672
      7 C          10.0184   40.7036    9.6228 C.ar    1  UNL1        0.0176
      8 C          10.0354   40.9137   11.0046 C.ar    1  UNL1        0.0015
      9 C           9.8689   42.2028   11.5177 C.ar    1  UNL1        0.0001
     10 C           9.6851   43.2827   10.6494 C.ar    1  UNL1        0.0015
     11 C           9.6694   43.0734    9.2674 C.ar    1  UNL1        0.0176
     12 C          12.2658   41.7489    6.7377 C.ar    1  UNL1        0.0364
     13 C          12.9080   42.7865    6.0490 C.ar    1  UNL1        0.0043
     14 C          14.2426   43.0986    6.3225 C.ar    1  UNL1        0.0148
     15 C          14.9528   42.3828    7.2973 C.ar    1  UNL1        0.0503
     16 C          14.3082   41.3585    7.9965 C.ar    1  UNL1        0.0148
     17 C          12.9738   41.0473    7.7230 C.ar    1  UNL1        0.0043
     18 C          17.0502   43.8553    7.2606 C.2     1  UNL1        0.2266
     19 C          18.4911   43.9541    7.6097 C.3     1  UNL1        0.0949
     20 N          16.3268   42.6644    7.5955 N.am    1  UNL1       -0.2839
     21 O          16.4884   44.8214    6.6804 O.2     1  UNL1       -0.2748
     22 H          16.8249   41.9673    8.0806 H       1  UNL1        0.1549
     23 S           7.0526   41.1484    7.1748 S.3     1  UNL1       -0.0655
     24 C           6.7945   42.9471    7.0978 C.3     1  UNL1        0.1498
     25 C           5.7815   43.3670    8.1045 C.2     1  UNL1        0.2339
     26 N           4.7105   42.4824    8.4417 N.am    1  UNL1       -0.3036
     27 O           5.8603   44.5098    8.6302 O.2     1  UNL1       -0.2741
     28 H           4.6484   41.6176    7.9754 H       1  UNL1        0.1495
     29 C           3.7073   42.8071    9.4462 C.3     1  UNL1        0.0894
     30 C           3.7592   40.5379   10.4702 C.3     1  UNL1        0.0018
     31 C           2.8844   41.5798    9.8008 C.3     1  UNL1        0.0212
@<TRIPOS>BOND
     1    30    31    1
     2    31    29    1
     3    29    26    1
     4    24    25    1
     5    24    23    1
     6     1    23    1
     7     2     5   ar
     8     2    12    1
     9     7     8   ar
    10     9    10   ar
    11    11     6   ar
    12    13    14   ar
    13    15    20    1
    14    15    16   ar
    15    19    18    1
    16    17    12   ar
    17    26    25   am
    18     3     4   ar
    19     5     6    1
    20     5     1   ar
    21    20    18   am
    22    25    27    2
    23     1     3   ar
    24     2     4   ar
    25     6     7   ar
    26     8     9   ar
    27    10    11   ar
    28    12    13   ar
    29    14    15   ar
    30    18    21    2
    31    16    17   ar
    32    26    28    1
    33    20    22    1
@<TRIPOS>MOLECULE
MolPort-007-710-788 ChemDiv-D481-2654 MCULE-8647870878 PubChem-46269941 ZINC000033019576 ZINC33019576
 31 33 0 0 0
SMALL
GASTEIGER

@<TRIPOS>ATOM
      1 C           4.1131   42.0126   11.1954 C.ar    1  UNL1        0.1975
      2 C           5.8429   41.2985   10.2051 C.ar    1  UNL1        0.1706
      3 N           4.6055   41.0100   11.9445 N.ar    1  UNL1       -0.1218
      4 N           5.6851   40.5600   11.3232 N.ar    1  UNL1       -0.1279
      5 N           4.8646   42.2286   10.0964 N.ar    1  UNL1       -0.2690
      6 C           4.7295   43.3031    9.1543 C.ar    1  UNL1        0.0672
      7 C           3.4579   43.7437    8.7607 C.ar    1  UNL1        0.0176
      8 C           3.3277   44.7844    7.8367 C.ar    1  UNL1        0.0015
      9 C           4.4674   45.3866    7.2971 C.ar    1  UNL1        0.0001
     10 C           5.7381   44.9485    7.6810 C.ar    1  UNL1        0.0015
     11 C           5.8689   43.9088    8.6060 C.ar    1  UNL1        0.0176
     12 C           6.9173   41.0387    9.2224 C.ar    1  UNL1        0.0364
     13 C           6.6014   40.4434    7.9939 C.ar    1  UNL1        0.0043
     14 C           7.5972   40.2166    7.0398 C.ar    1  UNL1        0.0148
     15 C           8.9240   40.5914    7.2968 C.ar    1  UNL1        0.0503
     16 C           9.2373   41.2003    8.5152 C.ar    1  UNL1        0.0148
     17 C           8.2413   41.4271    9.4685 C.ar    1  UNL1        0.0043
     18 C           9.8226   40.0536    4.9575 C.2     1  UNL1        0.2266
     19 C          11.0313   39.7988    4.1317 C.3     1  UNL1        0.0949
     20 N           9.9751   40.3620    6.3487 N.am    1  UNL1       -0.2839
     21 O           8.6853   39.9984    4.4198 O.2     1  UNL1       -0.2748
     22 H          10.8970   40.4228    6.6887 H       1  UNL1        0.1549
     23 S           2.6899   42.9913   11.6810 S.3     1  UNL1       -0.0655
     24 C           2.0476   41.6962   12.7847 C.3     1  UNL1        0.1498
     25 C           0.8868   42.2093   13.5625 C.2     1  UNL1        0.2339
     26 N           1.0357   42.4835   14.9574 N.am    1  UNL1       -0.3036
     27 O          -0.2250   42.3709   12.9912 O.2     1  UNL1       -0.2741
     28 H           1.9030   42.2980   15.3847 H       1  UNL1        0.1495
     29 C          -0.0421   43.0258   15.7730 C.3     1  UNL1        0.0894
     30 C           1.7716   44.2602   16.9509 C.3     1  UNL1        0.0018
     31 C           0.3660   44.3532   16.3900 C.3     1  UNL1        0.0212
@<TRIPOS>BOND
     1    30    31    1
     2    31    29    1
     3    29    26    1
     4    24    25    1
     5    24    23    1
     6     1    23    1
     7     2     5   ar
     8     2    12    1
     9     7     8   ar
    10     9    10   ar
    11    11     6   ar
    12    13    14   ar
    13    15    20    1
    14    15    16   ar
    15    19    18    1
    16    17    12   ar
    17    26    25   am
    18     3     4   ar
    19     5     6    1
    20     5     1   ar
    21    20    18   am
    22    25    27    2
    23     1     3   ar
    24     2     4   ar
    25     6     7   ar
    26     8     9   ar
    27    10    11   ar
    28    12    13   ar
    29    14    15   ar
    30    18    21    2
    31    16    17   ar
    32    26    28    1
    33    20    22    1
@<TRIPOS>MOLECULE
MolPort-007-710-788 ChemDiv-D481-2654 MCULE-8647870878 PubChem-46269941 ZINC000033019576 ZINC33019576
 31 33 0 0 0
SMALL
GASTEIGER

@<TRIPOS>ATOM
      1 C           8.7712   41.0791   10.5290 C.ar    1  UNL1        0.1975
      2 C          10.6547   41.1369    9.5637 C.ar    1  UNL1        0.1706
      3 N           9.3218   39.8607   10.6748 N.ar    1  UNL1       -0.1218
      4 N          10.4982   39.8950   10.0673 N.ar    1  UNL1       -0.1279
      5 N           9.5792   41.9116    9.8411 N.ar    1  UNL1       -0.2690
      6 C           9.3889   43.3178    9.6244 C.ar    1  UNL1        0.0672
      7 C          10.4627   44.2079    9.7686 C.ar    1  UNL1        0.0176
      8 C          10.2741   45.5780    9.5657 C.ar    1  UNL1        0.0015
      9 C           9.0105   46.0663    9.2231 C.ar    1  UNL1        0.0001
     10 C           7.9345   45.1851    9.0833 C.ar    1  UNL1        0.0015
     11 C           8.1228   43.8148    9.2847 C.ar    1  UNL1        0.0176
     12 C          11.8324   41.5291    8.7592 C.ar    1  UNL1        0.0364
     13 C          13.1177   41.1981    9.2084 C.ar    1  UNL1        0.0043
     14 C          14.2417   41.5333    8.4485 C.ar    1  UNL1        0.0148
     15 C          14.0961   42.1968    7.2215 C.ar    1  UNL1        0.0503
     16 C          12.8135   42.5127    6.7646 C.ar    1  UNL1        0.0148
     17 C          11.6901   42.1769    7.5246 C.ar    1  UNL1        0.0043
     18 C          16.1638   43.6175    6.6971 C.2     1  UNL1        0.2266
     19 C          17.2524   43.8948    5.7246 C.3     1  UNL1        0.0949
     20 N          15.2259   42.5697    6.4210 N.am    1  UNL1       -0.2839
     21 O          16.0867   44.3050    7.7493 O.2     1  UNL1       -0.2748
     22 H          15.3724   42.0523    5.5963 H       1  UNL1        0.1549
     23 S           7.1997   41.5387   11.2627 S.3     1  UNL1       -0.0655
     24 C           6.2356   40.6407   10.0089 C.3     1  UNL1        0.1498
     25 C           6.2964   41.3527    8.7031 C.2     1  UNL1        0.2339
     26 N           5.4772   42.5039    8.4863 N.am    1  UNL1       -0.3036
     27 O           7.0483   40.9183    7.7896 O.2     1  UNL1       -0.2741
     28 H           4.8629   42.7871    9.2016 H       1  UNL1        0.1495
     29 C           5.5133   43.2752    7.2516 C.3     1  UNL1        0.0894
     30 C           3.7154   44.4260    8.5337 C.3     1  UNL1        0.0018
     31 C           4.7059   44.5547    7.3929 C.3     1  UNL1        0.0212
@<TRIPOS>BOND
     1    30    31    1
     2    31    29    1
     3    29    26    1
     4    24    25    1
     5    24    23    1
     6     1    23    1
     7     2     5   ar
     8     2    12    1
     9     7     8   ar
    10     9    10   ar
    11    11     6   ar
    12    13    14   ar
    13    15    20    1
    14    15    16   ar
    15    19    18    1
    16    17    12   ar
    17    26    25   am
    18     3     4   ar
    19     5     6    1
    20     5     1   ar
    21    20    18   am
    22    25    27    2
    23     1     3   ar
    24     2     4   ar
    25     6     7   ar
    26     8     9   ar
    27    10    11   ar
    28    12    13   ar
    29    14    15   ar
    30    18    21    2
    31    16    17   ar
    32    26    28    1
    33    20    22    1
@<TRIPOS>MOLECULE
MolPort-007-710-788 ChemDiv-D481-2654 MCULE-8647870878 PubChem-46269941 ZINC000033019576 ZINC33019576
 31 33 0 0 0
SMALL
GASTEIGER

@<TRIPOS>ATOM
      1 C           8.6438   41.9832    6.7224 C.ar    1  UNL1        0.1975
      2 C          10.7564   41.9778    6.5820 C.ar    1  UNL1        0.1706
      3 N           8.9478   41.8489    5.4192 N.ar    1  UNL1       -0.1218
      4 N          10.2693   41.8498    5.3304 N.ar    1  UNL1       -0.1279
      5 N           9.7523   42.0625    7.4867 N.ar    1  UNL1       -0.2690
      6 C           9.8153   42.0618    8.9208 C.ar    1  UNL1        0.0672
      7 C           9.9772   40.8581    9.6216 C.ar    1  UNL1        0.0176
      8 C          10.0298   40.8579   11.0184 C.ar    1  UNL1        0.0015
      9 C           9.9156   42.0596   11.7223 C.ar    1  UNL1        0.0001
     10 C           9.7485   43.2624   11.0301 C.ar    1  UNL1        0.0015
     11 C           9.6972   43.2635    9.6332 C.ar    1  UNL1        0.0176
     12 C          12.2039   42.0804    6.8682 C.ar    1  UNL1        0.0364
     13 C          12.7791   41.2424    7.8326 C.ar    1  UNL1        0.0043
     14 C          14.1502   41.3029    8.0967 C.ar    1  UNL1        0.0148
     15 C          14.9692   42.1971    7.3921 C.ar    1  UNL1        0.0503
     16 C          14.3993   43.0220    6.4182 C.ar    1  UNL1        0.0148
     17 C          13.0285   42.9607    6.1544 C.ar    1  UNL1        0.0043
     18 C          17.1479   43.5030    7.7342 C.2     1  UNL1        0.2266
     19 C          18.6143   43.4141    7.9563 C.3     1  UNL1        0.0949
     20 N          16.3771   42.2981    7.6451 N.am    1  UNL1       -0.2839
     21 O          16.6069   44.6355    7.6326 O.2     1  UNL1       -0.2748
     22 H          16.8646   41.4521    7.7705 H       1  UNL1        0.1549
     23 S           6.9613   41.9513    7.3447 S.3     1  UNL1       -0.0655
     24 C           7.0498   40.1892    7.7866 C.3     1  UNL1        0.1498
     25 C           7.3544   39.3694    6.5821 C.2     1  UNL1        0.2339
     26 N           8.6890   38.9087    6.3591 N.am    1  UNL1       -0.3036
     27 O           6.4394   39.1120    5.7545 O.2     1  UNL1       -0.2741
     28 H           9.3912   39.1702    6.9977 H       1  UNL1        0.1495
     29 C           9.0535   38.0687    5.2266 C.3     1  UNL1        0.0894
     30 C          10.9623   38.8523    3.8327 C.3     1  UNL1        0.0018
     31 C           9.4611   38.9193    4.0352 C.3     1  UNL1        0.0212
@<TRIPOS>BOND
     1    30    31    1
     2    31    29    1
     3    29    26    1
     4    24    25    1
     5    24    23    1
     6     1    23    1
     7     2     5   ar
     8     2    12    1
     9     7     8   ar
    10     9    10   ar
    11    11     6   ar
    12    13    14   ar
    13    15    20    1
    14    15    16   ar
    15    19    18    1
    16    17    12   ar
    17    26    25   am
    18     3     4   ar
    19     5     6    1
    20     5     1   ar
    21    20    18   am
    22    25    27    2
    23     1     3   ar
    24     2     4   ar
    25     6     7   ar
    26     8     9   ar
    27    10    11   ar
    28    12    13   ar
    29    14    15   ar
    30    18    21    2
    31    16    17   ar
    32    26    28    1
    33    20    22    1
@<TRIPOS>MOLECULE
MolPort-007-710-788 ChemDiv-D481-2654 MCULE-8647870878 PubChem-46269941 ZINC000033019576 ZINC33019576
 31 33 0 0 0
SMALL
GASTEIGER

@<TRIPOS>ATOM
      1 C           8.5978   41.4106   11.4890 C.ar    1  UNL1        0.1975
      2 C          10.4644   41.6162   10.5110 C.ar    1  UNL1        0.1706
      3 N           9.5296   40.9053   12.3168 N.ar    1  UNL1       -0.1218
      4 N          10.6970   41.0297   11.7036 N.ar    1  UNL1       -0.1279
      5 N           9.1449   41.8722   10.3458 N.ar    1  UNL1       -0.2690
      6 C           8.4823   42.6061    9.3052 C.ar    1  UNL1        0.0672
      7 C           8.1874   41.9888    8.0813 C.ar    1  UNL1        0.0176
      8 C           7.5498   42.7070    7.0656 C.ar    1  UNL1        0.0015
      9 C           7.2087   44.0473    7.2657 C.ar    1  UNL1        0.0001
     10 C           7.5049   44.6703    8.4814 C.ar    1  UNL1        0.0015
     11 C           8.1411   43.9522    9.4979 C.ar    1  UNL1        0.0176
     12 C          11.5345   41.8597    9.5194 C.ar    1  UNL1        0.0364
     13 C          12.5386   40.8998    9.3362 C.ar    1  UNL1        0.0043
     14 C          13.5419   41.0971    8.3835 C.ar    1  UNL1        0.0148
     15 C          13.5502   42.2548    7.5918 C.ar    1  UNL1        0.0503
     16 C          12.5397   43.2053    7.7623 C.ar    1  UNL1        0.0148
     17 C          11.5367   43.0072    8.7147 C.ar    1  UNL1        0.0043
     18 C          14.6707   43.6338    5.7448 C.2     1  UNL1        0.2266
     19 C          15.7769   43.6967    4.7547 C.3     1  UNL1        0.0949
     20 N          14.5706   42.4991    6.6144 N.am    1  UNL1       -0.2839
     21 O          13.8428   44.5807    5.8057 O.2     1  UNL1       -0.2748
     22 H          15.2754   41.8166    6.5322 H       1  UNL1        0.1549
     23 S           6.8623   41.5360   11.9267 S.3     1  UNL1       -0.0655
     24 C           6.3071   40.8350   10.3429 C.3     1  UNL1        0.1498
     25 C           4.9920   41.4140    9.9545 C.2     1  UNL1        0.2339
     26 N           4.8098   42.8316    9.9740 N.am    1  UNL1       -0.3036
     27 O           4.0417   40.6487    9.6389 O.2     1  UNL1       -0.2741
     28 H           5.5561   43.3990   10.2746 H       1  UNL1        0.1495
     29 C           3.5664   43.4717    9.5677 C.3     1  UNL1        0.0894
     30 C           3.9457   45.3033    7.9240 C.3     1  UNL1        0.0018
     31 C           3.6055   43.8354    8.0929 C.3     1  UNL1        0.0212
@<TRIPOS>BOND
     1    30    31    1
     2    31    29    1
     3    29    26    1
     4    24    25    1
     5    24    23    1
     6     1    23    1
     7     2     5   ar
     8     2    12    1
     9     7     8   ar
    10     9    10   ar
    11    11     6   ar
    12    13    14   ar
    13    15    20    1
    14    15    16   ar
    15    19    18    1
    16    17    12   ar
    17    26    25   am
    18     3     4   ar
    19     5     6    1
    20     5     1   ar
    21    20    18   am
    22    25    27    2
    23     1     3   ar
    24     2     4   ar
    25     6     7   ar
    26     8     9   ar
    27    10    11   ar
    28    12    13   ar
    29    14    15   ar
    30    18    21    2
    31    16    17   ar
    32    26    28    1
    33    20    22    1
@<TRIPOS>MOLECULE
MolPort-007-710-788 ChemDiv-D481-2654 MCULE-8647870878 PubChem-46269941 ZINC000033019576 ZINC33019576
 31 33 0 0 0
SMALL
GASTEIGER

@<TRIPOS>ATOM
      1 C           6.9408   41.2534    8.5922 C.ar    1  UNL1        0.1975
      2 C           8.8217   41.5312    7.6605 C.ar    1  UNL1        0.1706
      3 N           6.7224   41.2545    7.2651 N.ar    1  UNL1       -0.1218
      4 N           7.8982   41.4327    6.6819 N.ar    1  UNL1       -0.1279
      5 N           8.2476   41.4195    8.8819 N.ar    1  UNL1       -0.2690
      6 C           8.8656   41.3228   10.1739 C.ar    1  UNL1        0.0672
      7 C           8.2268   41.8498   11.3054 C.ar    1  UNL1        0.0176
      8 C           8.8336   41.7625   12.5616 C.ar    1  UNL1        0.0015
      9 C          10.0842   41.1532   12.6928 C.ar    1  UNL1        0.0001
     10 C          10.7291   40.6307   11.5681 C.ar    1  UNL1        0.0015
     11 C          10.1221   40.7164   10.3118 C.ar    1  UNL1        0.0176
     12 C          10.2501   41.7991    7.3855 C.ar    1  UNL1        0.0364
     13 C          10.8177   41.3556    6.1836 C.ar    1  UNL1        0.0043
     14 C          12.1577   41.6243    5.8915 C.ar    1  UNL1        0.0148
     15 C          12.9485   42.3501    6.7941 C.ar    1  UNL1        0.0503
     16 C          12.3789   42.8072    7.9859 C.ar    1  UNL1        0.0148
     17 C          11.0390   42.5386    8.2772 C.ar    1  UNL1        0.0043
     18 C          14.8646   43.8168    5.9302 C.2     1  UNL1        0.2266
     19 C          16.3284   43.9176    5.6961 C.3     1  UNL1        0.0949
     20 N          14.3304   42.6330    6.5360 N.am    1  UNL1       -0.2839
     21 O          14.1190   44.7752    5.5964 O.2     1  UNL1       -0.2748
     22 H          14.9794   41.9423    6.8025 H       1  UNL1        0.1549
     23 S           5.6456   40.9591    9.7984 S.3     1  UNL1       -0.0655
     24 C           5.6048   42.6980   10.3301 C.3     1  UNL1        0.1498
     25 C           5.6967   43.6010    9.1503 C.2     1  UNL1        0.2339
     26 N           4.7438   43.4809    8.0917 N.am    1  UNL1       -0.3036
     27 O           6.6304   44.4448    9.0814 O.2     1  UNL1       -0.2741
     28 H           4.0577   42.7775    8.1522 H       1  UNL1        0.1495
     29 C           4.7456   44.3556    6.9273 C.3     1  UNL1        0.0894
     30 C           2.5161   45.3531    7.4123 C.3     1  UNL1        0.0018
     31 C           3.9921   45.6423    7.2201 C.3     1  UNL1        0.0212
@<TRIPOS>BOND
     1    30    31    1
     2    31    29    1
     3    29    26    1
     4    24    25    1
     5    24    23    1
     6     1    23    1
     7     2     5   ar
     8     2    12    1
     9     7     8   ar
    10     9    10   ar
    11    11     6   ar
    12    13    14   ar
    13    15    20    1
    14    15    16   ar
    15    19    18    1
    16    17    12   ar
    17    26    25   am
    18     3     4   ar
    19     5     6    1
    20     5     1   ar
    21    20    18   am
    22    25    27    2
    23     1     3   ar
    24     2     4   ar
    25     6     7   ar
    26     8     9   ar
    27    10    11   ar
    28    12    13   ar
    29    14    15   ar
    30    18    21    2
    31    16    17   ar
    32    26    28    1
    33    20    22    1
@<TRIPOS>MOLECULE
MolPort-007-710-788 ChemDiv-D481-2654 MCULE-8647870878 PubChem-46269941 ZINC000033019576 ZINC33019576
 31 33 0 0 0
SMALL
GASTEIGER

@<TRIPOS>ATOM
      1 C           8.1458   41.1532    6.5141 C.ar    1  UNL1        0.1975
      2 C           6.5019   41.1242    7.8481 C.ar    1  UNL1        0.1706
      3 N           7.1397   40.5253    5.8797 N.ar    1  UNL1       -0.1218
      4 N           6.1124   40.5030    6.7155 N.ar    1  UNL1       -0.1279
      5 N           7.7839   41.5496    7.7515 N.ar    1  UNL1       -0.2690
      6 C           8.5417   42.3711    8.6522 C.ar    1  UNL1        0.0672
      7 C           9.6416   41.8390    9.3402 C.ar    1  UNL1        0.0176
      8 C          10.3736   42.6377   10.2235 C.ar    1  UNL1        0.0015
      9 C          10.0070   43.9705   10.4281 C.ar    1  UNL1        0.0001
     10 C           8.9081   44.5056    9.7498 C.ar    1  UNL1        0.0015
     11 C           8.1767   43.7078    8.8653 C.ar    1  UNL1        0.0176
     12 C           5.6295   41.2356    9.0373 C.ar    1  UNL1        0.0364
     13 C           6.2013   41.2366   10.3165 C.ar    1  UNL1        0.0043
     14 C           5.3972   41.3707   11.4517 C.ar    1  UNL1        0.0148
     15 C           4.0082   41.5159   11.3237 C.ar    1  UNL1        0.0503
     16 C           3.4385   41.5317   10.0475 C.ar    1  UNL1        0.0148
     17 C           4.2429   41.3979    8.9129 C.ar    1  UNL1        0.0043
     18 C           1.7930   42.1044   12.4707 C.2     1  UNL1        0.2266
     19 C           1.0670   42.2150   13.7624 C.3     1  UNL1        0.0949
     20 N           3.1494   41.6417   12.4652 N.am    1  UNL1       -0.2839
     21 O           1.2027   42.4151   11.4027 O.2     1  UNL1       -0.2748
     22 H           3.5311   41.3834   13.3351 H       1  UNL1        0.1549
     23 S           9.7281   41.4978    5.7416 S.3     1  UNL1       -0.0655
     24 C          10.1215   39.7354    5.5249 C.3     1  UNL1        0.1498
     25 C          10.3122   39.0822    6.8488 C.2     1  UNL1        0.2339
     26 N          11.5182   39.3085    7.5820 N.am    1  UNL1       -0.3036
     27 O           9.4214   38.3129    7.2995 O.2     1  UNL1       -0.2741
     28 H          12.2162   39.8738    7.1790 H       1  UNL1        0.1495
     29 C          11.7576   38.7377    8.9002 C.3     1  UNL1        0.0894
     30 C          12.8014   39.9258   10.8236 C.3     1  UNL1        0.0018
     31 C          13.0586   39.2616    9.4851 C.3     1  UNL1        0.0212
@<TRIPOS>BOND
     1    30    31    1
     2    31    29    1
     3    29    26    1
     4    24    25    1
     5    24    23    1
     6     1    23    1
     7     2     5   ar
     8     2    12    1
     9     7     8   ar
    10     9    10   ar
    11    11     6   ar
    12    13    14   ar
    13    15    20    1
    14    15    16   ar
    15    19    18    1
    16    17    12   ar
    17    26    25   am
    18     3     4   ar
    19     5     6    1
    20     5     1   ar
    21    20    18   am
    22    25    27    2
    23     1     3   ar
    24     2     4   ar
    25     6     7   ar
    26     8     9   ar
    27    10    11   ar
    28    12    13   ar
    29    14    15   ar
    30    18    21    2
    31    16    17   ar
    32    26    28    1
    33    20    22    1
@<TRIPOS>MOLECULE
MolPort-007-710-788 ChemDiv-D481-2654 MCULE-8647870878 PubChem-46269941 ZINC000033019576 ZINC33019576
 31 33 0 0 0
SMALL
GASTEIGER

@<TRIPOS>ATOM
      1 C           9.2383   40.1428    6.7221 C.ar    1  UNL1        0.1975
      2 C          11.3123   40.5686    6.7223 C.ar    1  UNL1        0.1706
      3 N           9.7406   39.6364    5.5818 N.ar    1  UNL1       -0.1218
      4 N          11.0372   39.9064    5.5794 N.ar    1  UNL1       -0.1279
      5 N          10.1944   40.7323    7.4688 N.ar    1  UNL1       -0.2690
      6 C          10.0562   41.2446    8.8026 C.ar    1  UNL1        0.0672
      7 C          10.3505   40.4322    9.9069 C.ar    1  UNL1        0.0176
      8 C          10.2074   40.9296   11.2054 C.ar    1  UNL1        0.0015
      9 C           9.7643   42.2394   11.4072 C.ar    1  UNL1        0.0001
     10 C           9.4639   43.0528   10.3108 C.ar    1  UNL1        0.0015
     11 C           9.6081   42.5564    9.0121 C.ar    1  UNL1        0.0176
     12 C          12.6600   41.0901    7.0376 C.ar    1  UNL1        0.0364
     13 C          13.1497   42.2047    6.3439 C.ar    1  UNL1        0.0043
     14 C          14.4084   42.7310    6.6474 C.ar    1  UNL1        0.0148
     15 C          15.1929   42.1555    7.6574 C.ar    1  UNL1        0.0503
     16 C          14.6985   41.0538    8.3612 C.ar    1  UNL1        0.0148
     17 C          13.4399   40.5283    8.0576 C.ar    1  UNL1        0.0043
     18 C          17.0943   43.8673    7.5048 C.2     1  UNL1        0.2266
     19 C          18.4799   44.2081    7.9190 C.3     1  UNL1        0.0949
     20 N          16.4946   42.6584    7.9873 N.am    1  UNL1       -0.2839
     21 O          16.4691   44.6487    6.7405 O.2     1  UNL1       -0.2748
     22 H          17.0320   42.1172    8.6098 H       1  UNL1        0.1549
     23 S           7.5223   39.9482    7.2087 S.3     1  UNL1       -0.0655
     24 C           6.9414   41.2173    6.0426 C.3     1  UNL1        0.1498
     25 C           6.6222   42.4775    6.7677 C.2     1  UNL1        0.2339
     26 N           5.8024   42.4322    7.9377 N.am    1  UNL1       -0.3036
     27 O           7.0539   43.5770    6.3281 O.2     1  UNL1       -0.2741
     28 H           5.4388   41.5638    8.2256 H       1  UNL1        0.1495
     29 C           5.4825   43.6170    8.7218 C.3     1  UNL1        0.0894
     30 C           3.6821   45.0464    7.7648 C.3     1  UNL1        0.0018
     31 C           3.9880   43.8907    8.6975 C.3     1  UNL1        0.0212
@<TRIPOS>BOND
     1    30    31    1
     2    31    29    1
     3    29    26    1
     4    24    25    1
     5    24    23    1
     6     1    23    1
     7     2     5   ar
     8     2    12    1
     9     7     8   ar
    10     9    10   ar
    11    11     6   ar
    12    13    14   ar
    13    15    20    1
    14    15    16   ar
    15    19    18    1
    16    17    12   ar
    17    26    25   am
    18     3     4   ar
    19     5     6    1
    20     5     1   ar
    21    20    18   am
    22    25    27    2
    23     1     3   ar
    24     2     4   ar
    25     6     7   ar
    26     8     9   ar
    27    10    11   ar
    28    12    13   ar
    29    14    15   ar
    30    18    21    2
    31    16    17   ar
    32    26    28    1
    33    20    22    1
@<TRIPOS>MOLECULE
MolPort-007-710-788 ChemDiv-D481-2654 MCULE-8647870878 PubChem-46269941 ZINC000033019576 ZINC33019576
 31 33 0 0 0
SMALL
GASTEIGER

@<TRIPOS>ATOM
      1 C           4.5321   41.6450   10.9723 C.ar    1  UNL1        0.1975
      2 C           6.6240   41.7068   10.6514 C.ar    1  UNL1        0.1706
      3 N           5.0964   40.8896   11.9314 N.ar    1  UNL1       -0.1218
      4 N           6.4048   40.9244   11.7284 N.ar    1  UNL1       -0.1279
      5 N           5.4582   42.1804   10.1508 N.ar    1  UNL1       -0.2690
      6 C           5.2382   43.1497    9.1152 C.ar    1  UNL1        0.0672
      7 C           3.9906   43.7768    8.9861 C.ar    1  UNL1        0.0176
      8 C           3.7750   44.7142    7.9719 C.ar    1  UNL1        0.0015
      9 C           4.8030   45.0259    7.0782 C.ar    1  UNL1        0.0001
     10 C           6.0473   44.4004    7.1978 C.ar    1  UNL1        0.0015
     11 C           6.2640   43.4639    8.2127 C.ar    1  UNL1        0.0176
     12 C           7.9733   41.9279   10.0872 C.ar    1  UNL1        0.0364
     13 C           8.8039   42.9086   10.6454 C.ar    1  UNL1        0.0043
     14 C          10.0932   43.1128   10.1462 C.ar    1  UNL1        0.0148
     15 C          10.5752   42.3313    9.0861 C.ar    1  UNL1        0.0503
     16 C           9.7536   41.3417    8.5393 C.ar    1  UNL1        0.0148
     17 C           8.4648   41.1377    9.0391 C.ar    1  UNL1        0.0043
     18 C          12.6060   41.6074    7.7003 C.2     1  UNL1        0.2266
     19 C          13.9832   41.9522    7.2617 C.3     1  UNL1        0.0949
     20 N          11.8866   42.5210    8.5379 N.am    1  UNL1       -0.2839
     21 O          12.0931   40.5204    7.3248 O.2     1  UNL1       -0.2748
     22 H          12.3396   43.3664    8.7599 H       1  UNL1        0.1549
     23 S           2.7688   41.9659   10.8880 S.3     1  UNL1       -0.0655
     24 C           2.5071   41.5566   12.6407 C.3     1  UNL1        0.1498
     25 C           1.3107   42.2707   13.1647 C.2     1  UNL1        0.2339
     26 N           1.1720   42.4804   14.5718 N.am    1  UNL1       -0.3036
     27 O           0.4164   42.6595   12.3662 O.2     1  UNL1       -0.2741
     28 H           1.8631   42.1192   15.1728 H       1  UNL1        0.1495
     29 C           0.0513   43.2059   15.1534 C.3     1  UNL1        0.0894
     30 C          -1.0587   45.4003   14.7625 C.3     1  UNL1        0.0018
     31 C           0.2616   44.7061   15.0340 C.3     1  UNL1        0.0212
@<TRIPOS>BOND
     1    30    31    1
     2    31    29    1
     3    29    26    1
     4    24    25    1
     5    24    23    1
     6     1    23    1
     7     2     5   ar
     8     2    12    1
     9     7     8   ar
    10     9    10   ar
    11    11     6   ar
    12    13    14   ar
    13    15    20    1
    14    15    16   ar
    15    19    18    1
    16    17    12   ar
    17    26    25   am
    18     3     4   ar
    19     5     6    1
    20     5     1   ar
    21    20    18   am
    22    25    27    2
    23     1     3   ar
    24     2     4   ar
    25     6     7   ar
    26     8     9   ar
    27    10    11   ar
    28    12    13   ar
    29    14    15   ar
    30    18    21    2
    31    16    17   ar
    32    26    28    1
    33    20    22    1
@<TRIPOS>MOLECULE
MolPort-007-710-788 ChemDiv-D481-2654 MCULE-8647870878 PubChem-46269941 ZINC000033019576 ZINC33019576
 31 33 0 0 0
SMALL
GASTEIGER

@<TRIPOS>ATOM
      1 C           8.2268   41.4153    6.5597 C.ar    1  UNL1        0.1975
      2 C           6.5759   41.2412    7.8739 C.ar    1  UNL1        0.1706
      3 N           7.2860   40.7050    5.9123 N.ar    1  UNL1       -0.1218
      4 N           6.2547   40.5921    6.7357 N.ar    1  UNL1       -0.1279
      5 N           7.8177   41.7756    7.7934 N.ar    1  UNL1       -0.2690
      6 C           8.4914   42.6567    8.7046 C.ar    1  UNL1        0.0672
      7 C           9.5624   42.1895    9.4796 C.ar    1  UNL1        0.0176
      8 C          10.2121   43.0463   10.3728 C.ar    1  UNL1        0.0015
      9 C           9.7914   44.3727   10.5001 C.ar    1  UNL1        0.0001
     10 C           8.7208   44.8434    9.7346 C.ar    1  UNL1        0.0015
     11 C           8.0716   43.9875    8.8402 C.ar    1  UNL1        0.0176
     12 C           5.6833   41.2738    9.0529 C.ar    1  UNL1        0.0364
     13 C           6.2355   41.3956   10.3349 C.ar    1  UNL1        0.0043
     14 C           5.4081   41.4581   11.4595 C.ar    1  UNL1        0.0148
     15 C           4.0137   41.4095   11.3176 C.ar    1  UNL1        0.0503
     16 C           3.4613   41.3047   10.0380 C.ar    1  UNL1        0.0148
     17 C           4.2890   41.2426    8.9139 C.ar    1  UNL1        0.0043
     18 C           1.8197   42.0283   12.4889 C.2     1  UNL1        0.2266
     19 C           1.0654   42.0292   13.7691 C.3     1  UNL1        0.0949
     20 N           3.1332   41.4566   12.4483 N.am    1  UNL1       -0.2839
     21 O           1.2900   42.5260   11.4606 O.2     1  UNL1       -0.2748
     22 H           3.4653   41.0544   13.2833 H       1  UNL1        0.1549
     23 S           9.7825   41.8970    5.8067 S.3     1  UNL1       -0.0655
     24 C          10.7229   40.6117    6.6852 C.3     1  UNL1        0.1498
     25 C          10.4546   39.2755    6.0867 C.2     1  UNL1        0.2339
     26 N          10.9236   38.9838    4.7683 N.am    1  UNL1       -0.3036
     27 O           9.7919   38.4224    6.7360 O.2     1  UNL1       -0.2741
     28 H          11.3936   39.6896    4.2680 H       1  UNL1        0.1495
     29 C          10.7354   37.6864    4.1343 C.3     1  UNL1        0.0894
     30 C           8.9709   38.9883    2.9545 C.3     1  UNL1        0.0018
     31 C           9.9399   37.8270    2.8473 C.3     1  UNL1        0.0212
@<TRIPOS>BOND
     1    30    31    1
     2    31    29    1
     3    29    26    1
     4    24    25    1
     5    24    23    1
     6     1    23    1
     7     2     5   ar
     8     2    12    1
     9     7     8   ar
    10     9    10   ar
    11    11     6   ar
    12    13    14   ar
    13    15    20    1
    14    15    16   ar
    15    19    18    1
    16    17    12   ar
    17    26    25   am
    18     3     4   ar
    19     5     6    1
    20     5     1   ar
    21    20    18   am
    22    25    27    2
    23     1     3   ar
    24     2     4   ar
    25     6     7   ar
    26     8     9   ar
    27    10    11   ar
    28    12    13   ar
    29    14    15   ar
    30    18    21    2
    31    16    17   ar
    32    26    28    1
    33    20    22    1
