@<TRIPOS>MOLECULE
MolPort-005-042-860 12430712 CHEMBL1307508 CSSS00159470275 MCULE-3771434084 PubChem-24791307 PubChem-44251546 ZINC000012430712
 32 35 0 0 0
SMALL
GASTEIGER

@<TRIPOS>ATOM
      1 C          11.9294   41.0396    6.6516 C.ar    1  UNL1        0.1328
      2 C          11.3715   40.8334    5.4039 C.ar    1  UNL1        0.0565
      3 C          10.0477   40.5198    5.6919 C.ar    1  UNL1        0.1230
      4 N           9.8545   40.5422    7.0278 N.ar    1  UNL1       -0.1666
      5 N          11.0001   40.8653    7.6010 N.ar    1  UNL1       -0.2394
      6 C          11.2223   40.9548    9.0426 C.3     1  UNL1        0.1093
      7 C          11.7333   42.3481    9.4450 C.3     1  UNL1        0.0418
      8 C          10.6254   43.2578    9.9833 C.3     1  UNL1        0.0741
      9 C           8.9176   41.6227    9.9832 C.3     1  UNL1        0.0741
     10 C           9.9732   40.5140    9.8203 C.3     1  UNL1        0.0418
     11 N           9.3427   42.8916    9.3936 N.3     1  UNL1       -0.2725
     12 C           8.3732   43.8974    9.7947 C.3     1  UNL1        0.0724
     13 C           7.6152   44.3999    8.5777 C.3     1  UNL1        0.0220
     14 C           7.0427   43.2277    7.7965 C.3     1  UNL1        0.0278
     15 C           5.7449   42.7894    8.3823 C.ar    1  UNL1       -0.0221
     16 C           5.5274   41.4444    8.7095 C.ar    1  UNL1       -0.0043
     17 C           4.2995   41.0439    9.2449 C.ar    1  UNL1       -0.0003
     18 C           3.2855   41.9850    9.4495 C.ar    1  UNL1       -0.0000
     19 C           3.4986   43.3262    9.1167 C.ar    1  UNL1       -0.0003
     20 C           4.7264   43.7275    8.5816 C.ar    1  UNL1       -0.0043
     21 C          13.9037   42.6576    6.7299 C.2     1  UNL1        0.2535
     22 O          13.2183   43.6154    6.2772 O.2     1  UNL1       -0.2697
     23 N          13.2938   41.3763    6.9335 N.am    1  UNL1       -0.2659
     24 H          13.8641   40.6626    7.3005 H       1  UNL1        0.1566
     25 C          16.0118   42.1661    8.0745 C.ar    1  UNL1        0.1430
     26 C          15.3371   42.8747    7.0490 C.ar    1  UNL1        0.0876
     27 C          16.0498   43.8237    6.2975 C.ar    1  UNL1        0.0076
     28 C          17.3991   44.0749    6.5486 C.ar    1  UNL1        0.0003
     29 C          18.0602   43.3784    7.5581 C.ar    1  UNL1        0.0031
     30 C          17.3715   42.4308    8.3151 C.ar    1  UNL1        0.0371
     31 C          16.0013   40.1920    9.5768 C.3     1  UNL1        0.2525
     32 O          15.3348   41.2101    8.8420 O.3     1  UNL1       -0.4713
@<TRIPOS>BOND
     1    31    32    1
     2    25    32    1
     3    26    27   ar
     4    26    21    1
     5    28    29   ar
     6    30    25   ar
     7    21    23   am
     8     2     3   ar
     9     6     5    1
    10     6     7    1
    11     7     8    1
    12     8    11    1
    13    12    11    1
    14    12    13    1
    15    13    14    1
    16    14    15    1
    17    16    17   ar
    18    18    19   ar
    19    20    15   ar
    20     9    11    1
    21     9    10    1
    22    10     6    1
    23    23     1    1
    24     5     4   ar
    25     5     1   ar
    26    25    26   ar
    27    27    28   ar
    28    29    30   ar
    29    21    22    2
    30     1     2   ar
    31     3     4   ar
    32    15    16   ar
    33    17    18   ar
    34    19    20   ar
    35    23    24    1
@<TRIPOS>MOLECULE
MolPort-005-042-860 12430712 CHEMBL1307508 CSSS00159470275 MCULE-3771434084 PubChem-24791307 PubChem-44251546 ZINC000012430712
 32 35 0 0 0
SMALL
GASTEIGER

@<TRIPOS>ATOM
      1 C          12.0435   40.5077    8.1960 C.ar    1  UNL1        0.1328
      2 C          11.5955   39.6042    7.2509 C.ar    1  UNL1        0.0565
      3 C          10.2767   39.3736    7.6269 C.ar    1  UNL1        0.1230
      4 N           9.9825   40.1005    8.7257 N.ar    1  UNL1       -0.1666
      5 N          11.0587   40.7906    9.0593 N.ar    1  UNL1       -0.2394
      6 C          11.1655   41.6704   10.2212 C.3     1  UNL1        0.1093
      7 C          10.7311   43.1052    9.8789 C.3     1  UNL1        0.0418
      8 C           9.2927   43.4113   10.3055 C.3     1  UNL1        0.0741
      9 C           8.9118   41.3691   11.4346 C.3     1  UNL1        0.0741
     10 C          10.4238   41.0793   11.4293 C.3     1  UNL1        0.0418
     11 N           8.4951   42.1902   10.2985 N.3     1  UNL1       -0.2725
     12 C           7.1111   42.5698   10.5282 C.3     1  UNL1        0.0724
     13 C           6.2591   41.3270   10.7227 C.3     1  UNL1        0.0220
     14 C           5.3338   41.1346    9.5314 C.3     1  UNL1        0.0278
     15 C           5.1233   42.4242    8.8158 C.ar    1  UNL1       -0.0221
     16 C           6.0657   42.8882    7.8885 C.ar    1  UNL1       -0.0043
     17 C           5.8631   44.1075    7.2349 C.ar    1  UNL1       -0.0003
     18 C           4.7218   44.8672    7.5101 C.ar    1  UNL1       -0.0000
     19 C           3.7842   44.4090    8.4405 C.ar    1  UNL1       -0.0003
     20 C           3.9859   43.1896    9.0944 C.ar    1  UNL1       -0.0043
     21 C          13.9479   41.9835    7.3489 C.2     1  UNL1        0.2535
     22 O          13.2872   42.3693    6.3455 O.2     1  UNL1       -0.2697
     23 N          13.3584   41.0714    8.2848 N.am    1  UNL1       -0.2659
     24 H          13.9066   40.8083    9.0590 H       1  UNL1        0.1566
     25 C          16.3112   41.7678    8.2771 C.ar    1  UNL1        0.1430
     26 C          15.3309   42.4853    7.5471 C.ar    1  UNL1        0.0876
     27 C          15.6763   43.7246    6.9831 C.ar    1  UNL1        0.0076
     28 C          16.9593   44.2517    7.1340 C.ar    1  UNL1        0.0003
     29 C          17.9212   43.5456    7.8533 C.ar    1  UNL1        0.0031
     30 C          17.5994   42.3126    8.4203 C.ar    1  UNL1        0.0371
     31 C          16.6543   40.0283   10.0122 C.3     1  UNL1        0.2525
     32 O          16.0044   40.5276    8.8508 O.3     1  UNL1       -0.4713
@<TRIPOS>BOND
     1    31    32    1
     2    25    32    1
     3    26    27   ar
     4    26    21    1
     5    28    29   ar
     6    30    25   ar
     7    21    23   am
     8     2     3   ar
     9     6     5    1
    10     6     7    1
    11     7     8    1
    12     8    11    1
    13    12    11    1
    14    12    13    1
    15    13    14    1
    16    14    15    1
    17    16    17   ar
    18    18    19   ar
    19    20    15   ar
    20     9    11    1
    21     9    10    1
    22    10     6    1
    23    23     1    1
    24     5     4   ar
    25     5     1   ar
    26    25    26   ar
    27    27    28   ar
    28    29    30   ar
    29    21    22    2
    30     1     2   ar
    31     3     4   ar
    32    15    16   ar
    33    17    18   ar
    34    19    20   ar
    35    23    24    1
@<TRIPOS>MOLECULE
MolPort-005-042-860 12430712 CHEMBL1307508 CSSS00159470275 MCULE-3771434084 PubChem-24791307 PubChem-44251546 ZINC000012430712
 32 35 0 0 0
SMALL
GASTEIGER

@<TRIPOS>ATOM
      1 C           8.3042   42.0652   11.2287 C.ar    1  UNL1        0.1328
      2 C           8.2115   41.7830   12.5785 C.ar    1  UNL1        0.0565
      3 C           9.3089   40.9612   12.8109 C.ar    1  UNL1        0.1230
      4 N           9.9931   40.7790   11.6615 N.ar    1  UNL1       -0.1666
      5 N           9.3797   41.4583   10.7088 N.ar    1  UNL1       -0.2394
      6 C           9.7828   41.4862    9.3044 C.3     1  UNL1        0.1093
      7 C          10.8938   42.5211    9.0612 C.3     1  UNL1        0.0418
      8 C          12.2913   41.8968    9.0146 C.3     1  UNL1        0.0741
      9 C          11.5794   39.6456    9.1399 C.3     1  UNL1        0.0741
     10 C          10.1399   40.0779    8.8063 C.3     1  UNL1        0.0418
     11 N          12.3312   40.6906    9.8336 N.3     1  UNL1       -0.2725
     12 C          13.7151   40.2517    9.8996 C.3     1  UNL1        0.0724
     13 C          14.4404   40.6325    8.6201 C.3     1  UNL1        0.0220
     14 C          15.8550   41.0917    8.9367 C.3     1  UNL1        0.0278
     15 C          16.2443   42.2347    8.0640 C.ar    1  UNL1       -0.0221
     16 C          17.4967   42.8468    8.2056 C.ar    1  UNL1       -0.0043
     17 C          17.8437   43.9281    7.3901 C.ar    1  UNL1       -0.0003
     18 C          16.9385   44.4029    6.4358 C.ar    1  UNL1       -0.0000
     19 C          15.6856   43.7979    6.2982 C.ar    1  UNL1       -0.0003
     20 C          15.3380   42.7161    7.1132 C.ar    1  UNL1       -0.0043
     21 C           6.2548   42.3932    9.7406 C.2     1  UNL1        0.2535
     22 O           5.9603   41.1666    9.7675 O.2     1  UNL1       -0.2697
     23 N           7.4009   42.8687   10.4587 N.am    1  UNL1       -0.2659
     24 H           7.5842   43.8352   10.4194 H       1  UNL1        0.1566
     25 C           3.9971   43.4012    9.1239 C.ar    1  UNL1        0.1430
     26 C           5.4036   43.3298    8.9647 C.ar    1  UNL1        0.0876
     27 C           6.0258   44.1798    8.0353 C.ar    1  UNL1        0.0076
     28 C           5.2818   45.0820    7.2743 C.ar    1  UNL1        0.0003
     29 C           3.8990   45.1498    7.4311 C.ar    1  UNL1        0.0031
     30 C           3.2616   44.3157    8.3495 C.ar    1  UNL1        0.0371
     31 C           2.6542   41.3870    9.6655 C.3     1  UNL1        0.2525
     32 O           3.3425   42.5720   10.0431 O.3     1  UNL1       -0.4713
@<TRIPOS>BOND
     1    31    32    1
     2    25    32    1
     3    26    27   ar
     4    26    21    1
     5    28    29   ar
     6    30    25   ar
     7    21    23   am
     8     2     3   ar
     9     6     5    1
    10     6     7    1
    11     7     8    1
    12     8    11    1
    13    12    11    1
    14    12    13    1
    15    13    14    1
    16    14    15    1
    17    16    17   ar
    18    18    19   ar
    19    20    15   ar
    20     9    11    1
    21     9    10    1
    22    10     6    1
    23    23     1    1
    24     5     4   ar
    25     5     1   ar
    26    25    26   ar
    27    27    28   ar
    28    29    30   ar
    29    21    22    2
    30     1     2   ar
    31     3     4   ar
    32    15    16   ar
    33    17    18   ar
    34    19    20   ar
    35    23    24    1
@<TRIPOS>MOLECULE
MolPort-005-042-860 12430712 CHEMBL1307508 CSSS00159470275 MCULE-3771434084 PubChem-24791307 PubChem-44251546 ZINC000012430712
 32 35 0 0 0
SMALL
GASTEIGER

@<TRIPOS>ATOM
      1 C           9.3389   41.5528   10.0812 C.ar    1  UNL1        0.1328
      2 C           9.9447   41.7462   11.3083 C.ar    1  UNL1        0.0565
      3 C          10.9259   40.7613   11.3409 C.ar    1  UNL1        0.1230
      4 N          10.8865   40.0412   10.1997 N.ar    1  UNL1       -0.1666
      5 N           9.9250   40.5334    9.4390 N.ar    1  UNL1       -0.2394
      6 C           9.5317   40.0040    8.1349 C.3     1  UNL1        0.1093
      7 C           9.1007   41.1299    7.1803 C.3     1  UNL1        0.0418
      8 C          10.2088   41.5456    6.2086 C.3     1  UNL1        0.0741
      9 C          11.7498   39.8633    6.8299 C.3     1  UNL1        0.0741
     10 C          10.6281   39.0979    7.5553 C.3     1  UNL1        0.0418
     11 N          11.5178   41.3070    6.8062 N.3     1  UNL1       -0.2725
     12 C          12.5150   41.8874    5.9225 C.3     1  UNL1        0.0724
     13 C          13.1449   43.1031    6.5808 C.3     1  UNL1        0.0220
     14 C          14.4171   43.4961    5.8463 C.3     1  UNL1        0.0278
     15 C          15.6058   43.3319    6.7294 C.ar    1  UNL1       -0.0221
     16 C          16.7009   44.1993    6.6209 C.ar    1  UNL1       -0.0043
     17 C          17.8163   44.0250    7.4456 C.ar    1  UNL1       -0.0003
     18 C          17.8418   42.9814    8.3761 C.ar    1  UNL1       -0.0000
     19 C          16.7529   42.1107    8.4804 C.ar    1  UNL1       -0.0003
     20 C          15.6368   42.2845    7.6562 C.ar    1  UNL1       -0.0043
     21 C           6.8625   42.1559    9.9206 C.2     1  UNL1        0.2535
     22 O           6.5372   41.3250   10.8128 O.2     1  UNL1       -0.2697
     23 N           8.2384   42.2974    9.5437 N.am    1  UNL1       -0.2659
     24 H           8.4464   42.9671    8.8526 H       1  UNL1        0.1566
     25 C           4.4262   42.7703    9.4955 C.ar    1  UNL1        0.1430
     26 C           5.8104   42.9802    9.2746 C.ar    1  UNL1        0.0876
     27 C           6.2112   44.0117    8.4093 C.ar    1  UNL1        0.0076
     28 C           5.2714   44.8214    7.7706 C.ar    1  UNL1        0.0003
     29 C           3.9111   44.6125    7.9878 C.ar    1  UNL1        0.0031
     30 C           3.4918   43.5947    8.8442 C.ar    1  UNL1        0.0371
     31 C           3.1977   42.0008   11.5086 C.3     1  UNL1        0.2525
     32 O           3.9893   41.7538   10.3540 O.3     1  UNL1       -0.4713
@<TRIPOS>BOND
     1    31    32    1
     2    25    32    1
     3    26    27   ar
     4    26    21    1
     5    28    29   ar
     6    30    25   ar
     7    21    23   am
     8     2     3   ar
     9     6     5    1
    10     6     7    1
    11     7     8    1
    12     8    11    1
    13    12    11    1
    14    12    13    1
    15    13    14    1
    16    14    15    1
    17    16    17   ar
    18    18    19   ar
    19    20    15   ar
    20     9    11    1
    21     9    10    1
    22    10     6    1
    23    23     1    1
    24     5     4   ar
    25     5     1   ar
    26    25    26   ar
    27    27    28   ar
    28    29    30   ar
    29    21    22    2
    30     1     2   ar
    31     3     4   ar
    32    15    16   ar
    33    17    18   ar
    34    19    20   ar
    35    23    24    1
@<TRIPOS>MOLECULE
MolPort-005-042-860 12430712 CHEMBL1307508 CSSS00159470275 MCULE-3771434084 PubChem-24791307 PubChem-44251546 ZINC000012430712
 32 35 0 0 0
SMALL
GASTEIGER

@<TRIPOS>ATOM
      1 C          11.2662   41.8481    7.5159 C.ar    1  UNL1        0.1328
      2 C          10.5951   41.2313    6.4770 C.ar    1  UNL1        0.0565
      3 C           9.3065   41.0739    6.9755 C.ar    1  UNL1        0.1230
      4 N           9.2394   41.5696    8.2294 N.ar    1  UNL1       -0.1666
      5 N          10.4315   42.0433    8.5458 N.ar    1  UNL1       -0.2394
      6 C          10.7874   42.6280    9.8369 C.3     1  UNL1        0.1093
      7 C           9.8060   43.7423   10.2366 C.3     1  UNL1        0.0418
      8 C           8.7329   43.2680   11.2206 C.3     1  UNL1        0.0741
      9 C           9.6173   41.1003   11.5514 C.3     1  UNL1        0.0741
     10 C          10.9456   41.5396   10.9091 C.3     1  UNL1        0.0418
     11 N           8.4710   41.8455   11.0325 N.3     1  UNL1       -0.2725
     12 C           7.3250   41.4985   11.8563 C.3     1  UNL1        0.0724
     13 C           6.0857   41.3627   10.9881 C.3     1  UNL1        0.0220
     14 C           6.4560   41.5074    9.5204 C.3     1  UNL1        0.0278
     15 C           5.7038   42.6321    8.8969 C.ar    1  UNL1       -0.0221
     16 C           6.3175   43.4636    7.9508 C.ar    1  UNL1       -0.0043
     17 C           5.6047   44.5247    7.3844 C.ar    1  UNL1       -0.0003
     18 C           4.2800   44.7599    7.7657 C.ar    1  UNL1       -0.0000
     19 C           3.6687   43.9354    8.7151 C.ar    1  UNL1       -0.0003
     20 C           4.3807   42.8738    9.2818 C.ar    1  UNL1       -0.0043
     21 C          13.7415   41.3982    7.9546 C.2     1  UNL1        0.2535
     22 O          13.5241   40.2148    8.3345 O.2     1  UNL1       -0.2697
     23 N          12.6486   42.2264    7.5365 N.am    1  UNL1       -0.2659
     24 H          12.8674   43.1381    7.2361 H       1  UNL1        0.1566
     25 C          15.5464   42.9899    7.1163 C.ar    1  UNL1        0.1430
     26 C          15.1328   41.9157    7.9433 C.ar    1  UNL1        0.0876
     27 C          16.0746   41.3108    8.7922 C.ar    1  UNL1        0.0076
     28 C          17.3984   41.7501    8.8279 C.ar    1  UNL1        0.0003
     29 C          17.8034   42.8053    8.0131 C.ar    1  UNL1        0.0031
     30 C          16.8839   43.4207    7.1639 C.ar    1  UNL1        0.0371
     31 C          14.9107   44.8491    5.6020 C.3     1  UNL1        0.2525
     32 O          14.6348   43.6195    6.2597 O.3     1  UNL1       -0.4713
@<TRIPOS>BOND
     1    31    32    1
     2    25    32    1
     3    26    27   ar
     4    26    21    1
     5    28    29   ar
     6    30    25   ar
     7    21    23   am
     8     2     3   ar
     9     6     5    1
    10     6     7    1
    11     7     8    1
    12     8    11    1
    13    12    11    1
    14    12    13    1
    15    13    14    1
    16    14    15    1
    17    16    17   ar
    18    18    19   ar
    19    20    15   ar
    20     9    11    1
    21     9    10    1
    22    10     6    1
    23    23     1    1
    24     5     4   ar
    25     5     1   ar
    26    25    26   ar
    27    27    28   ar
    28    29    30   ar
    29    21    22    2
    30     1     2   ar
    31     3     4   ar
    32    15    16   ar
    33    17    18   ar
    34    19    20   ar
    35    23    24    1
@<TRIPOS>MOLECULE
MolPort-005-042-860 12430712 CHEMBL1307508 CSSS00159470275 MCULE-3771434084 PubChem-24791307 PubChem-44251546 ZINC000012430712
 32 35 0 0 0
SMALL
GASTEIGER

@<TRIPOS>ATOM
      1 C          13.1174   36.8972    9.8388 C.ar    1  UNL1        0.1328
      2 C          12.5065   35.9528   10.6421 C.ar    1  UNL1        0.0565
      3 C          11.1526   36.2338   10.4954 C.ar    1  UNL1        0.1230
      4 N          10.9927   37.2803    9.6577 N.ar    1  UNL1       -0.1666
      5 N          12.1901   37.6714    9.2593 N.ar    1  UNL1       -0.2394
      6 C          12.4526   38.8064    8.3769 C.3     1  UNL1        0.1093
      7 C          11.1443   39.4487    7.8865 C.3     1  UNL1        0.0418
      8 C          10.7566   40.6970    8.6841 C.3     1  UNL1        0.0741
      9 C          12.7235   40.7961    9.9925 C.3     1  UNL1        0.0741
     10 C          13.4140   39.8059    9.0370 C.3     1  UNL1        0.0418
     11 N          11.2745   40.6060   10.0446 N.3     1  UNL1       -0.2725
     12 C          10.7225   41.7190   10.7987 C.3     1  UNL1        0.0724
     13 C          10.5318   42.9185    9.8860 C.3     1  UNL1        0.0220
     14 C           9.4453   43.8285   10.4372 C.3     1  UNL1        0.0278
     15 C           8.1766   43.6529    9.6763 C.ar    1  UNL1       -0.0221
     16 C           7.5177   42.4163    9.6626 C.ar    1  UNL1       -0.0043
     17 C           6.3357   42.2610    8.9323 C.ar    1  UNL1       -0.0003
     18 C           5.8128   43.3386    8.2107 C.ar    1  UNL1       -0.0000
     19 C           6.4730   44.5711    8.2175 C.ar    1  UNL1       -0.0003
     20 C           7.6550   44.7273    8.9479 C.ar    1  UNL1       -0.0043
     21 C          15.5016   37.2909   10.6652 C.2     1  UNL1        0.2535
     22 O          15.1426   37.3363   11.8740 O.2     1  UNL1       -0.2697
     23 N          14.5265   37.0672    9.6383 N.am    1  UNL1       -0.2659
     24 H          14.8545   37.0267    8.7110 H       1  UNL1        0.1566
     25 C          17.6826   36.4925    9.6167 C.ar    1  UNL1        0.1430
     26 C          16.9355   37.4674   10.3240 C.ar    1  UNL1        0.0876
     27 C          17.5727   38.6546   10.7212 C.ar    1  UNL1        0.0076
     28 C          18.9187   38.8808   10.4319 C.ar    1  UNL1        0.0003
     29 C          19.6519   37.9206    9.7378 C.ar    1  UNL1        0.0031
     30 C          19.0381   36.7354    9.3330 C.ar    1  UNL1        0.0371
     31 C          17.8086   34.2208    8.6278 C.3     1  UNL1        0.2525
     32 O          17.0803   35.2983    9.2017 O.3     1  UNL1       -0.4713
@<TRIPOS>BOND
     1    31    32    1
     2    25    32    1
     3    26    27   ar
     4    26    21    1
     5    28    29   ar
     6    30    25   ar
     7    21    23   am
     8     2     3   ar
     9     6     5    1
    10     6     7    1
    11     7     8    1
    12     8    11    1
    13    12    11    1
    14    12    13    1
    15    13    14    1
    16    14    15    1
    17    16    17   ar
    18    18    19   ar
    19    20    15   ar
    20     9    11    1
    21     9    10    1
    22    10     6    1
    23    23     1    1
    24     5     4   ar
    25     5     1   ar
    26    25    26   ar
    27    27    28   ar
    28    29    30   ar
    29    21    22    2
    30     1     2   ar
    31     3     4   ar
    32    15    16   ar
    33    17    18   ar
    34    19    20   ar
    35    23    24    1
@<TRIPOS>MOLECULE
MolPort-005-042-860 12430712 CHEMBL1307508 CSSS00159470275 MCULE-3771434084 PubChem-24791307 PubChem-44251546 ZINC000012430712
 32 35 0 0 0
SMALL
GASTEIGER

@<TRIPOS>ATOM
      1 C          11.9504   40.6130    7.5248 C.ar    1  UNL1        0.1328
      2 C          11.4962   39.7283    6.5650 C.ar    1  UNL1        0.0565
      3 C          10.3442   39.1985    7.1359 C.ar    1  UNL1        0.1230
      4 N          10.1470   39.7448    8.3545 N.ar    1  UNL1       -0.1666
      5 N          11.1228   40.6068    8.5786 N.ar    1  UNL1       -0.2394
      6 C          11.2962   41.3784    9.8075 C.3     1  UNL1        0.1093
      7 C          11.3133   42.8893    9.5222 C.3     1  UNL1        0.0418
      8 C           9.9637   43.5622    9.7876 C.3     1  UNL1        0.0741
      9 C           8.8964   41.6617   10.7037 C.3     1  UNL1        0.0741
     10 C          10.2613   40.9681   10.8656 C.3     1  UNL1        0.0418
     11 N           8.8782   42.6084    9.5893 N.3     1  UNL1       -0.2725
     12 C           7.6278   43.3446    9.6721 C.3     1  UNL1        0.0724
     13 C           6.8595   43.2079    8.3685 C.3     1  UNL1        0.0220
     14 C           6.1499   41.8639    8.3173 C.3     1  UNL1        0.0278
     15 C           5.1380   41.7621    9.4060 C.ar    1  UNL1       -0.0221
     16 C           3.9855   42.5587    9.3862 C.ar    1  UNL1       -0.0043
     17 C           3.0511   42.4639   10.4219 C.ar    1  UNL1       -0.0003
     18 C           3.2688   41.5772   11.4811 C.ar    1  UNL1       -0.0000
     19 C           4.4218   40.7869   11.5059 C.ar    1  UNL1       -0.0003
     20 C           5.3567   40.8809   10.4704 C.ar    1  UNL1       -0.0043
     21 C          14.3909   41.1326    8.0688 C.2     1  UNL1        0.2535
     22 O          14.5337   40.0719    8.7371 O.2     1  UNL1       -0.2697
     23 N          13.1302   41.4236    7.4513 N.am    1  UNL1       -0.2659
     24 H          13.0693   42.2560    6.9292 H       1  UNL1        0.1566
     25 C          15.5415   43.1452    7.0111 C.ar    1  UNL1        0.1430
     26 C          15.5372   42.0654    7.9291 C.ar    1  UNL1        0.0876
     27 C          16.6621   41.8642    8.7460 C.ar    1  UNL1        0.0076
     28 C          17.7721   42.7054    8.6626 C.ar    1  UNL1        0.0003
     29 C          17.7752   43.7655    7.7584 C.ar    1  UNL1        0.0031
     30 C          16.6678   43.9838    6.9390 C.ar    1  UNL1        0.0371
     31 C          14.2829   44.5622    5.4104 C.3     1  UNL1        0.2525
     32 O          14.4366   43.3789    6.1829 O.3     1  UNL1       -0.4713
@<TRIPOS>BOND
     1    31    32    1
     2    25    32    1
     3    26    27   ar
     4    26    21    1
     5    28    29   ar
     6    30    25   ar
     7    21    23   am
     8     2     3   ar
     9     6     5    1
    10     6     7    1
    11     7     8    1
    12     8    11    1
    13    12    11    1
    14    12    13    1
    15    13    14    1
    16    14    15    1
    17    16    17   ar
    18    18    19   ar
    19    20    15   ar
    20     9    11    1
    21     9    10    1
    22    10     6    1
    23    23     1    1
    24     5     4   ar
    25     5     1   ar
    26    25    26   ar
    27    27    28   ar
    28    29    30   ar
    29    21    22    2
    30     1     2   ar
    31     3     4   ar
    32    15    16   ar
    33    17    18   ar
    34    19    20   ar
    35    23    24    1
@<TRIPOS>MOLECULE
MolPort-005-042-860 12430712 CHEMBL1307508 CSSS00159470275 MCULE-3771434084 PubChem-24791307 PubChem-44251546 ZINC000012430712
 32 35 0 0 0
SMALL
GASTEIGER

@<TRIPOS>ATOM
      1 C          12.4441   40.1996    8.6813 C.ar    1  UNL1        0.1328
      2 C          12.2812   39.5993    9.9155 C.ar    1  UNL1        0.0565
      3 C          11.1723   38.7809    9.7307 C.ar    1  UNL1        0.1230
      4 N          10.7214   38.9038    8.4642 N.ar    1  UNL1       -0.1666
      5 N          11.5037   39.7614    7.8334 N.ar    1  UNL1       -0.2394
      6 C          11.3255   40.2013    6.4512 C.3     1  UNL1        0.1093
      7 C          10.4034   39.2469    5.6744 C.3     1  UNL1        0.0418
      8 C           8.9620   39.7549    5.5796 C.3     1  UNL1        0.0741
      9 C           9.3577   41.8608    6.5791 C.3     1  UNL1        0.0741
     10 C          10.8739   41.6683    6.3944 C.3     1  UNL1        0.0418
     11 N           8.6467   40.5920    6.7316 N.3     1  UNL1       -0.2725
     12 C           7.2247   40.8883    6.6815 C.3     1  UNL1        0.0724
     13 C           6.8747   41.9252    7.7354 C.3     1  UNL1        0.0220
     14 C           6.7877   41.2708    9.1052 C.3     1  UNL1        0.0278
     15 C           5.4723   41.5591    9.7427 C.ar    1  UNL1       -0.0221
     16 C           5.1567   41.0275   11.0002 C.ar    1  UNL1       -0.0043
     17 C           3.9129   41.2936   11.5806 C.ar    1  UNL1       -0.0003
     18 C           2.9808   42.0867   10.9039 C.ar    1  UNL1       -0.0000
     19 C           3.2915   42.6118    9.6460 C.ar    1  UNL1       -0.0003
     20 C           4.5354   42.3464    9.0650 C.ar    1  UNL1       -0.0043
     21 C          14.8617   40.9936    8.4643 C.2     1  UNL1        0.2535
     22 O          15.3242   39.9146    8.9269 O.2     1  UNL1       -0.2697
     23 N          13.4449   41.1612    8.3231 N.am    1  UNL1       -0.2659
     24 H          13.1308   42.0145    7.9457 H       1  UNL1        0.1566
     25 C          15.4931   43.0224    7.0576 C.ar    1  UNL1        0.1430
     26 C          15.7968   42.0764    8.0684 C.ar    1  UNL1        0.0876
     27 C          17.0335   42.1621    8.7291 C.ar    1  UNL1        0.0076
     28 C          17.9566   43.1563    8.4030 C.ar    1  UNL1        0.0003
     29 C          17.6568   44.0844    7.4080 C.ar    1  UNL1        0.0031
     30 C          16.4339   44.0179    6.7406 C.ar    1  UNL1        0.0371
     31 C          13.8321   43.9877    5.4882 C.3     1  UNL1        0.2525
     32 O          14.2688   42.9703    6.3797 O.3     1  UNL1       -0.4713
@<TRIPOS>BOND
     1    31    32    1
     2    25    32    1
     3    26    27   ar
     4    26    21    1
     5    28    29   ar
     6    30    25   ar
     7    21    23   am
     8     2     3   ar
     9     6     5    1
    10     6     7    1
    11     7     8    1
    12     8    11    1
    13    12    11    1
    14    12    13    1
    15    13    14    1
    16    14    15    1
    17    16    17   ar
    18    18    19   ar
    19    20    15   ar
    20     9    11    1
    21     9    10    1
    22    10     6    1
    23    23     1    1
    24     5     4   ar
    25     5     1   ar
    26    25    26   ar
    27    27    28   ar
    28    29    30   ar
    29    21    22    2
    30     1     2   ar
    31     3     4   ar
    32    15    16   ar
    33    17    18   ar
    34    19    20   ar
    35    23    24    1
@<TRIPOS>MOLECULE
MolPort-005-042-860 12430712 CHEMBL1307508 CSSS00159470275 MCULE-3771434084 PubChem-24791307 PubChem-44251546 ZINC000012430712
 32 35 0 0 0
SMALL
GASTEIGER

@<TRIPOS>ATOM
      1 C           9.2304   41.0269   10.3538 C.ar    1  UNL1        0.1328
      2 C           9.8522   41.4746   11.5041 C.ar    1  UNL1        0.0565
      3 C          11.1625   41.0339   11.3532 C.ar    1  UNL1        0.1230
      4 N          11.2879   40.3695   10.1848 N.ar    1  UNL1       -0.1666
      5 N          10.1121   40.3766    9.5825 N.ar    1  UNL1       -0.2394
      6 C           9.8168   39.7236    8.3089 C.3     1  UNL1        0.1093
      7 C           9.2127   40.7133    7.2990 C.3     1  UNL1        0.0418
      8 C          10.2429   41.2536    6.3032 C.3     1  UNL1        0.0741
      9 C          12.0345   39.8796    7.0050 C.3     1  UNL1        0.0741
     10 C          11.0492   38.9798    7.7730 C.3     1  UNL1        0.0418
     11 N          11.5703   41.2629    6.9076 N.3     1  UNL1       -0.2725
     12 C          12.4638   41.9519    5.9915 C.3     1  UNL1        0.0724
     13 C          13.1929   43.0676    6.7208 C.3     1  UNL1        0.0220
     14 C          14.4335   43.4782    5.9434 C.3     1  UNL1        0.0278
     15 C          15.6554   43.3174    6.7805 C.ar    1  UNL1       -0.0221
     16 C          15.7327   42.3021    7.7431 C.ar    1  UNL1       -0.0043
     17 C          16.8794   42.1715    8.5323 C.ar    1  UNL1       -0.0003
     18 C          17.9482   43.0575    8.3647 C.ar    1  UNL1       -0.0000
     19 C          17.8696   44.0755    7.4096 C.ar    1  UNL1       -0.0003
     20 C          16.7233   44.2066    6.6197 C.ar    1  UNL1       -0.0043
     21 C           6.7837   41.4970   10.9149 C.2     1  UNL1        0.2535
     22 O           7.0287   41.6483   12.1434 O.2     1  UNL1       -0.2697
     23 N           7.8507   41.1979   10.0052 N.am    1  UNL1       -0.2659
     24 H           7.6141   41.1013    9.0544 H       1  UNL1        0.1566
     25 C           4.9790   42.6711    9.5517 C.ar    1  UNL1        0.1430
     26 C           5.3881   41.6349   10.4280 C.ar    1  UNL1        0.0876
     27 C           4.4376   40.6939   10.8572 C.ar    1  UNL1        0.0076
     28 C           3.1095   40.7687   10.4363 C.ar    1  UNL1        0.0003
     29 C           2.7089   41.7889    9.5761 C.ar    1  UNL1        0.0031
     30 C           3.6370   42.7328    9.1369 C.ar    1  UNL1        0.0371
     31 C           6.4429   43.6177    7.7868 C.3     1  UNL1        0.2525
     32 O           5.8993   43.6252    9.1002 O.3     1  UNL1       -0.4713
@<TRIPOS>BOND
     1    31    32    1
     2    25    32    1
     3    26    27   ar
     4    26    21    1
     5    28    29   ar
     6    30    25   ar
     7    21    23   am
     8     2     3   ar
     9     6     5    1
    10     6     7    1
    11     7     8    1
    12     8    11    1
    13    12    11    1
    14    12    13    1
    15    13    14    1
    16    14    15    1
    17    16    17   ar
    18    18    19   ar
    19    20    15   ar
    20     9    11    1
    21     9    10    1
    22    10     6    1
    23    23     1    1
    24     5     4   ar
    25     5     1   ar
    26    25    26   ar
    27    27    28   ar
    28    29    30   ar
    29    21    22    2
    30     1     2   ar
    31     3     4   ar
    32    15    16   ar
    33    17    18   ar
    34    19    20   ar
    35    23    24    1
@<TRIPOS>MOLECULE
MolPort-005-042-860 12430712 CHEMBL1307508 CSSS00159470275 MCULE-3771434084 PubChem-24791307 PubChem-44251546 ZINC000012430712
 32 35 0 0 0
SMALL
GASTEIGER

@<TRIPOS>ATOM
      1 C           9.6045   41.1737   11.4128 C.ar    1  UNL1        0.1328
      2 C           8.7564   40.7408   12.4145 C.ar    1  UNL1        0.0565
      3 C           7.5317   41.2966   12.0610 C.ar    1  UNL1        0.1230
      4 N           7.6667   42.0097   10.9227 N.ar    1  UNL1       -0.1666
      5 N           8.9263   41.9234   10.5334 N.ar    1  UNL1       -0.2394
      6 C           9.4918   42.5930    9.3640 C.3     1  UNL1        0.1093
      7 C           8.8386   42.0957    8.0637 C.3     1  UNL1        0.0418
      8 C           7.7437   43.0342    7.5489 C.3     1  UNL1        0.0741
      9 C           8.0894   44.7442    9.1447 C.3     1  UNL1        0.0741
     10 C           9.4436   44.1195    9.5270 C.3     1  UNL1        0.0418
     11 N           7.1310   43.7509    8.6616 N.3     1  UNL1       -0.2725
     12 C           5.9870   44.4780    8.1374 C.3     1  UNL1        0.0724
     13 C           4.6990   43.8493    8.6414 C.3     1  UNL1        0.0220
     14 C           4.8339   42.3351    8.6759 C.3     1  UNL1        0.0278
     15 C           4.1978   41.7786    9.9027 C.ar    1  UNL1       -0.0221
     16 C           3.2890   42.5439   10.6455 C.ar    1  UNL1       -0.0043
     17 C           2.7105   42.0150   11.8033 C.ar    1  UNL1       -0.0003
     18 C           3.0426   40.7232   12.2235 C.ar    1  UNL1       -0.0000
     19 C           3.9548   39.9611   11.4874 C.ar    1  UNL1       -0.0003
     20 C           4.5335   40.4892   10.3293 C.ar    1  UNL1       -0.0043
     21 C          11.5898   39.7335   10.7009 C.2     1  UNL1        0.2535
     22 O          10.8469   38.8462   10.1980 O.2     1  UNL1       -0.2697
     23 N          11.0066   40.8980   11.3003 N.am    1  UNL1       -0.2659
     24 H          11.6255   41.5694   11.6682 H       1  UNL1        0.1566
     25 C          13.8604   40.0005    9.5755 C.ar    1  UNL1        0.1430
     26 C          13.0633   39.5583   10.6608 C.ar    1  UNL1        0.0876
     27 C          13.6882   38.9274   11.7493 C.ar    1  UNL1        0.0076
     28 C          15.0695   38.7319   11.7721 C.ar    1  UNL1        0.0003
     29 C          15.8512   39.1659   10.7035 C.ar    1  UNL1        0.0031
     30 C          15.2509   39.7958    9.6135 C.ar    1  UNL1        0.0371
     31 C          12.0953   40.1567    7.8393 C.3     1  UNL1        0.2525
     32 O          13.2730   40.6364    8.4747 O.3     1  UNL1       -0.4713
@<TRIPOS>BOND
     1    31    32    1
     2    25    32    1
     3    26    27   ar
     4    26    21    1
     5    28    29   ar
     6    30    25   ar
     7    21    23   am
     8     2     3   ar
     9     6     5    1
    10     6     7    1
    11     7     8    1
    12     8    11    1
    13    12    11    1
    14    12    13    1
    15    13    14    1
    16    14    15    1
    17    16    17   ar
    18    18    19   ar
    19    20    15   ar
    20     9    11    1
    21     9    10    1
    22    10     6    1
    23    23     1    1
    24     5     4   ar
    25     5     1   ar
    26    25    26   ar
    27    27    28   ar
    28    29    30   ar
    29    21    22    2
    30     1     2   ar
    31     3     4   ar
    32    15    16   ar
    33    17    18   ar
    34    19    20   ar
    35    23    24    1
