@<TRIPOS>MOLECULE
MolPort-047-177-047 306144065 LN01336858 MCULE-1155020106 MCULE-6648016997 PubChem-124247674 PubChem-155828265 ZINC000306144065
 32 36 0 0 0
SMALL
GASTEIGER

@<TRIPOS>ATOM
      1 C           0.4203   43.8960   15.3517 C.ar    1  UNL1        0.1523
      2 C           0.9879   42.7548   13.6199 C.ar    1  UNL1        0.1555
      3 C          -0.6508   40.9221   13.8139 C.ar    1  UNL1        0.0815
      4 C          -1.7269   40.4654   14.5877 C.ar    1  UNL1        0.0191
      5 C          -2.1332   41.2055   15.7129 C.ar    1  UNL1        0.0031
      6 C          -1.4657   42.3880   16.0654 C.ar    1  UNL1        0.0193
      7 C          -0.3899   42.7802   15.2689 C.ar    1  UNL1        0.0875
      8 N           1.2783   43.8885   14.3045 N.ar    1  UNL1       -0.2213
      9 N          -0.0273   42.0690   14.1903 N.ar    1  UNL1       -0.2883
     10 C           3.1445   46.0468   19.2472 C.3     1  UNL1        0.0610
     11 C           1.7378   46.6935   19.1675 C.3     1  UNL1        0.0375
     12 C           0.6580   45.7089   18.7201 C.3     1  UNL1        0.0951
     13 C           0.3646   44.9865   16.3440 C.2     1  UNL1        0.2683
     14 C           2.4405   44.3004   17.5907 C.3     1  UNL1        0.0951
     15 C           3.1593   44.5515   18.9145 C.3     1  UNL1        0.0375
     16 N           1.1215   44.9430   17.5634 N.am    1  UNL1       -0.2747
     17 O          -0.3571   45.9903   16.0967 O.2     1  UNL1       -0.2682
     18 C           5.2932   46.2007   20.3364 C.3     1  UNL1        0.0896
     19 C           3.4453   45.3102   21.4881 C.3     1  UNL1        0.0896
     20 N           3.8490   46.3080   20.5101 N.3     1  UNL1       -0.2715
     21 C           1.7104   42.3640   12.3939 C.ar    1  UNL1        0.0856
     22 C           1.1014   41.8661   11.2443 C.ar    1  UNL1        0.1104
     23 C           3.2421   41.8566   10.5636 C.ar    1  UNL1        0.1657
     24 N           1.9617   41.5848   10.2293 N.ar    1  UNL1       -0.2223
     25 S           3.3725   42.4576   12.1241 S.2     1  UNL1       -0.0483
     26 C           5.0729   42.7206    9.0304 C.2     1  UNL1        0.2270
     27 N           4.3586   41.6677    9.6896 N.am    1  UNL1       -0.2641
     28 O           4.7061   43.9211    9.1482 O.2     1  UNL1       -0.2747
     29 H           4.6591   40.7441    9.5287 H       1  UNL1        0.1567
     30 C           6.2349   42.3867    8.1527 C.3     1  UNL1        0.0769
     31 C           7.3062   41.6763    8.9606 C.3     1  UNL1        0.0096
     32 C           6.3944   40.8802    8.0552 C.3     1  UNL1        0.0096
@<TRIPOS>BOND
     1    18    20    1
     2    19    20    1
     3    10    20    1
     4    10    11    1
     5    11    12    1
     6    12    16    1
     7    13     1    1
     8     1     8   ar
     9     2    21    1
    10     2     9   ar
    11    21    25   ar
    12    22    24   ar
    13    23    27    1
    14    23    25   ar
    15    30    26    1
    16    30    31    1
    17    31    32    1
    18    32    30    1
    19     4     5   ar
    20     6     7   ar
    21     7     9   ar
    22    14    16    1
    23    14    15    1
    24    15    10    1
    25    16    13   am
    26    27    26   am
    27     9     3   ar
    28    13    17    2
    29     2     8   ar
    30    21    22   ar
    31    23    24   ar
    32    26    28    2
    33     3     4   ar
    34     5     6   ar
    35     7     1   ar
    36    27    29    1
@<TRIPOS>MOLECULE
MolPort-047-177-047 306144065 LN01336858 MCULE-1155020106 MCULE-6648016997 PubChem-124247674 PubChem-155828265 ZINC000306144065
 32 36 0 0 0
SMALL
GASTEIGER

@<TRIPOS>ATOM
      1 C           7.2021   42.1120    8.7150 C.ar    1  UNL1        0.1523
      2 C           5.3882   42.0306    9.8670 C.ar    1  UNL1        0.1555
      3 C           4.1532   43.8606    8.7681 C.ar    1  UNL1        0.0815
      4 C           4.2410   44.8007    7.7318 C.ar    1  UNL1        0.0191
      5 C           5.4078   44.8594    6.9482 C.ar    1  UNL1        0.0031
      6 C           6.4798   43.9910    7.2023 C.ar    1  UNL1        0.0193
      7 C           6.3413   43.0918    8.2596 C.ar    1  UNL1        0.0875
      8 N           6.5960   41.4332    9.7175 N.ar    1  UNL1       -0.2213
      9 N           5.2141   43.0403    8.9858 N.ar    1  UNL1       -0.2883
     10 C           9.5545   39.3909    4.9357 C.3     1  UNL1        0.0610
     11 C          10.6117   39.9330    5.9315 C.3     1  UNL1        0.0375
     12 C          10.0963   39.9905    7.3691 C.3     1  UNL1        0.0951
     13 C           8.5378   41.7637    8.1940 C.2     1  UNL1        0.2683
     14 C           7.7192   40.1026    6.4897 C.3     1  UNL1        0.0951
     15 C           8.2355   38.9770    5.5959 C.3     1  UNL1        0.0375
     16 N           8.7609   40.5864    7.4029 N.am    1  UNL1       -0.2747
     17 O           9.5016   42.5383    8.4401 O.2     1  UNL1       -0.2682
     18 C          11.4942   38.4497    3.8500 C.3     1  UNL1        0.0896
     19 C           9.4099   38.4438    2.7592 C.3     1  UNL1        0.0896
     20 N          10.0558   38.3251    4.0569 N.3     1  UNL1       -0.2715
     21 C           4.4059   41.5875   10.8751 C.ar    1  UNL1        0.0856
     22 C           4.2377   40.2670   11.2854 C.ar    1  UNL1        0.1104
     23 C           2.6957   41.2579   12.5840 C.ar    1  UNL1        0.1657
     24 N           3.2822   40.0914   12.2372 N.ar    1  UNL1       -0.2223
     25 S           3.3287   42.5589   11.7356 S.2     1  UNL1       -0.0483
     26 C           0.5725   42.3040   13.5041 C.2     1  UNL1        0.2270
     27 N           1.6639   41.3776   13.5675 N.am    1  UNL1       -0.2641
     28 O           0.4881   43.1379   12.5622 O.2     1  UNL1       -0.2747
     29 H           1.7068   40.7780   14.3471 H       1  UNL1        0.1567
     30 C          -0.4495   42.3157   14.5937 C.3     1  UNL1        0.0769
     31 C          -1.8445   42.2998   13.9948 C.3     1  UNL1        0.0096
     32 C          -1.2546   41.0291   14.5625 C.3     1  UNL1        0.0096
@<TRIPOS>BOND
     1    18    20    1
     2    19    20    1
     3    10    20    1
     4    10    11    1
     5    11    12    1
     6    12    16    1
     7    13     1    1
     8     1     8   ar
     9     2    21    1
    10     2     9   ar
    11    21    25   ar
    12    22    24   ar
    13    23    27    1
    14    23    25   ar
    15    30    26    1
    16    30    31    1
    17    31    32    1
    18    32    30    1
    19     4     5   ar
    20     6     7   ar
    21     7     9   ar
    22    14    16    1
    23    14    15    1
    24    15    10    1
    25    16    13   am
    26    27    26   am
    27     9     3   ar
    28    13    17    2
    29     2     8   ar
    30    21    22   ar
    31    23    24   ar
    32    26    28    2
    33     3     4   ar
    34     5     6   ar
    35     7     1   ar
    36    27    29    1
@<TRIPOS>MOLECULE
MolPort-047-177-047 306144065 LN01336858 MCULE-1155020106 MCULE-6648016997 PubChem-124247674 PubChem-155828265 ZINC000306144065
 32 36 0 0 0
SMALL
GASTEIGER

@<TRIPOS>ATOM
      1 C           8.4797   42.0037    9.9250 C.ar    1  UNL1        0.1523
      2 C           6.3609   41.7613   10.2004 C.ar    1  UNL1        0.1555
      3 C           5.5872   42.6654    8.0405 C.ar    1  UNL1        0.0815
      4 C           6.0435   43.1931    6.8244 C.ar    1  UNL1        0.0191
      5 C           7.4259   43.3408    6.6097 C.ar    1  UNL1        0.0031
      6 C           8.3437   42.9707    7.6040 C.ar    1  UNL1        0.0193
      7 C           7.8283   42.4712    8.8001 C.ar    1  UNL1        0.0875
      8 N           7.5565   41.5422   10.8012 N.ar    1  UNL1       -0.2213
      9 N           6.5069   42.3231    8.9800 N.ar    1  UNL1       -0.2883
     10 C          12.5348   38.7444    9.5314 C.3     1  UNL1        0.0610
     11 C          12.9709   40.0437   10.2560 C.3     1  UNL1        0.0375
     12 C          11.8592   40.6436   11.1161 C.3     1  UNL1        0.0951
     13 C           9.9334   41.9243   10.1649 C.2     1  UNL1        0.2683
     14 C          10.1367   39.4642    9.6744 C.3     1  UNL1        0.0951
     15 C          11.1066   38.2996    9.8619 C.3     1  UNL1        0.0375
     16 N          10.6019   40.6701   10.3691 N.am    1  UNL1       -0.2747
     17 O          10.6027   42.9928   10.1703 O.2     1  UNL1       -0.2682
     18 C          14.4596   37.6164    8.6096 C.3     1  UNL1        0.0896
     19 C          12.7408   36.3775    9.6317 C.3     1  UNL1        0.0896
     20 N          13.4789   37.6294    9.6891 N.3     1  UNL1       -0.2715
     21 C           5.0788   41.3989   10.8347 C.ar    1  UNL1        0.0856
     22 C           4.7351   40.1111   11.2395 C.ar    1  UNL1        0.1104
     23 C           2.8776   41.2059   11.8698 C.ar    1  UNL1        0.1657
     24 N           3.5066   40.0116   11.8144 N.ar    1  UNL1       -0.2223
     25 S           3.8068   42.4391   11.2148 S.2     1  UNL1       -0.0483
     26 C           1.1072   42.6313   13.0024 C.2     1  UNL1        0.2270
     27 N           1.5767   41.4040   12.4308 N.am    1  UNL1       -0.2641
     28 O           1.8678   43.6327   13.0943 O.2     1  UNL1       -0.2747
     29 H           0.9570   40.6392   12.4237 H       1  UNL1        0.1567
     30 C          -0.2838   42.7092   13.5420 C.3     1  UNL1        0.0769
     31 C          -0.3042   42.2479   14.9883 C.3     1  UNL1        0.0096
     32 C          -0.3462   43.7247   14.6686 C.3     1  UNL1        0.0096
@<TRIPOS>BOND
     1    18    20    1
     2    19    20    1
     3    10    20    1
     4    10    11    1
     5    11    12    1
     6    12    16    1
     7    13     1    1
     8     1     8   ar
     9     2    21    1
    10     2     9   ar
    11    21    25   ar
    12    22    24   ar
    13    23    27    1
    14    23    25   ar
    15    30    26    1
    16    30    31    1
    17    31    32    1
    18    32    30    1
    19     4     5   ar
    20     6     7   ar
    21     7     9   ar
    22    14    16    1
    23    14    15    1
    24    15    10    1
    25    16    13   am
    26    27    26   am
    27     9     3   ar
    28    13    17    2
    29     2     8   ar
    30    21    22   ar
    31    23    24   ar
    32    26    28    2
    33     3     4   ar
    34     5     6   ar
    35     7     1   ar
    36    27    29    1
@<TRIPOS>MOLECULE
MolPort-047-177-047 306144065 LN01336858 MCULE-1155020106 MCULE-6648016997 PubChem-124247674 PubChem-155828265 ZINC000306144065
 32 36 0 0 0
SMALL
GASTEIGER

@<TRIPOS>ATOM
      1 C           0.5440   43.8992   14.2025 C.ar    1  UNL1        0.1523
      2 C           1.4778   42.7420   12.6492 C.ar    1  UNL1        0.1555
      3 C          -0.1346   40.8796   12.5360 C.ar    1  UNL1        0.0815
      4 C          -1.3402   40.4134   13.0789 C.ar    1  UNL1        0.0191
      5 C          -1.9835   41.1632   14.0804 C.ar    1  UNL1        0.0031
      6 C          -1.4237   42.3646   14.5397 C.ar    1  UNL1        0.0193
      7 C          -0.2126   42.7659   13.9759 C.ar    1  UNL1        0.0875
      8 N           1.6008   43.8923   13.3562 N.ar    1  UNL1       -0.2213
      9 N           0.3779   42.0450   13.0104 N.ar    1  UNL1       -0.2883
     10 C           1.1927   45.3256   19.1791 C.3     1  UNL1        0.0610
     11 C           0.2996   46.3594   18.4463 C.3     1  UNL1        0.0375
     12 C          -0.5883   45.7227   17.3777 C.3     1  UNL1        0.0951
     13 C           0.2653   45.0042   15.1396 C.2     1  UNL1        0.2683
     14 C           1.0462   43.7904   17.2014 C.3     1  UNL1        0.0951
     15 C           0.9691   43.8800   18.7240 C.3     1  UNL1        0.0375
     16 N           0.1932   44.7966   16.5585 N.am    1  UNL1       -0.2747
     17 O           0.1057   46.1646   14.6730 O.2     1  UNL1       -0.2682
     18 C           1.0056   44.1087   21.2554 C.3     1  UNL1        0.0896
     19 C          -0.0264   46.2095   21.0196 C.3     1  UNL1        0.0896
     20 N           1.1401   45.4261   20.6442 N.3     1  UNL1       -0.2715
     21 C           2.4455   42.3464   11.6077 C.ar    1  UNL1        0.0856
     22 C           2.9656   43.2090   10.6456 C.ar    1  UNL1        0.1104
     23 C           4.0423   41.3227   10.0729 C.ar    1  UNL1        0.1657
     24 N           3.8539   42.6308    9.7934 N.ar    1  UNL1       -0.2223
     25 S           3.1248   40.8191   11.3835 S.2     1  UNL1       -0.0483
     26 C           5.8406   40.8978    8.3308 C.2     1  UNL1        0.2270
     27 N           4.9282   40.4651    9.3474 N.am    1  UNL1       -0.2641
     28 O           5.8758   42.1044    7.9667 O.2     1  UNL1       -0.2747
     29 H           4.9095   39.5047    9.5630 H       1  UNL1        0.1567
     30 C           6.7247   39.8983    7.6590 C.3     1  UNL1        0.0769
     31 C           6.2306   39.6369    6.2474 C.3     1  UNL1        0.0096
     32 C           7.4226   40.5387    6.4728 C.3     1  UNL1        0.0096
@<TRIPOS>BOND
     1    18    20    1
     2    19    20    1
     3    10    20    1
     4    10    11    1
     5    11    12    1
     6    12    16    1
     7    13     1    1
     8     1     8   ar
     9     2    21    1
    10     2     9   ar
    11    21    25   ar
    12    22    24   ar
    13    23    27    1
    14    23    25   ar
    15    30    26    1
    16    30    31    1
    17    31    32    1
    18    32    30    1
    19     4     5   ar
    20     6     7   ar
    21     7     9   ar
    22    14    16    1
    23    14    15    1
    24    15    10    1
    25    16    13   am
    26    27    26   am
    27     9     3   ar
    28    13    17    2
    29     2     8   ar
    30    21    22   ar
    31    23    24   ar
    32    26    28    2
    33     3     4   ar
    34     5     6   ar
    35     7     1   ar
    36    27    29    1
@<TRIPOS>MOLECULE
MolPort-047-177-047 306144065 LN01336858 MCULE-1155020106 MCULE-6648016997 PubChem-124247674 PubChem-155828265 ZINC000306144065
 32 36 0 0 0
SMALL
GASTEIGER

@<TRIPOS>ATOM
      1 C           7.4638   41.0802    8.3258 C.ar    1  UNL1        0.1523
      2 C           5.6365   41.7771    9.2197 C.ar    1  UNL1        0.1555
      3 C           5.2573   43.7685    7.8153 C.ar    1  UNL1        0.0815
      4 C           5.7799   44.4822    6.7276 C.ar    1  UNL1        0.0191
      5 C           6.9619   44.0345    6.1101 C.ar    1  UNL1        0.0031
      6 C           7.6194   42.8877    6.5795 C.ar    1  UNL1        0.0193
      7 C           7.0624   42.2322    7.6776 C.ar    1  UNL1        0.0875
      8 N           6.5577   40.7846    9.2873 N.ar    1  UNL1       -0.2213
      9 N           5.9255   42.6657    8.2433 N.ar    1  UNL1       -0.2883
     10 C          12.2335   39.8804   10.0673 C.3     1  UNL1        0.0610
     11 C          11.9864   39.2010    8.6960 C.3     1  UNL1        0.0375
     12 C          11.1108   40.0420    7.7678 C.3     1  UNL1        0.0951
     13 C           8.6302   40.2284    8.0240 C.2     1  UNL1        0.2683
     14 C          10.1266   41.2126    9.7920 C.3     1  UNL1        0.0951
     15 C          11.5986   41.2688   10.1949 C.3     1  UNL1        0.0375
     16 N           9.9478   40.5504    8.4948 N.am    1  UNL1       -0.2747
     17 O           8.4515   39.1792    7.3480 O.2     1  UNL1       -0.2682
     18 C          14.5238   39.7570    9.3147 C.3     1  UNL1        0.0896
     19 C          13.9033   38.8035   11.3738 C.3     1  UNL1        0.0896
     20 N          13.6466   39.9132   10.4694 N.3     1  UNL1       -0.2715
     21 C           4.4652   41.8316   10.1156 C.ar    1  UNL1        0.0856
     22 C           3.1711   42.1415    9.7041 C.ar    1  UNL1        0.1104
     23 C           2.7913   41.7930   11.8905 C.ar    1  UNL1        0.1657
     24 N           2.2442   42.1189   10.6991 N.ar    1  UNL1       -0.2223
     25 S           4.4413   41.5160   11.7722 S.2     1  UNL1       -0.0483
     26 C           0.9176   42.4851   13.4586 C.2     1  UNL1        0.2270
     27 N           2.0532   41.6834   13.1110 N.am    1  UNL1       -0.2641
     28 O           0.5220   43.4083   12.6964 O.2     1  UNL1       -0.2747
     29 H           2.3479   41.0058   13.7615 H       1  UNL1        0.1567
     30 C           0.2255   42.2577   14.7630 C.3     1  UNL1        0.0769
     31 C          -1.1571   42.8841   14.7312 C.3     1  UNL1        0.0096
     32 C          -1.0030   41.3909   14.5533 C.3     1  UNL1        0.0096
@<TRIPOS>BOND
     1    18    20    1
     2    19    20    1
     3    10    20    1
     4    10    11    1
     5    11    12    1
     6    12    16    1
     7    13     1    1
     8     1     8   ar
     9     2    21    1
    10     2     9   ar
    11    21    25   ar
    12    22    24   ar
    13    23    27    1
    14    23    25   ar
    15    30    26    1
    16    30    31    1
    17    31    32    1
    18    32    30    1
    19     4     5   ar
    20     6     7   ar
    21     7     9   ar
    22    14    16    1
    23    14    15    1
    24    15    10    1
    25    16    13   am
    26    27    26   am
    27     9     3   ar
    28    13    17    2
    29     2     8   ar
    30    21    22   ar
    31    23    24   ar
    32    26    28    2
    33     3     4   ar
    34     5     6   ar
    35     7     1   ar
    36    27    29    1
@<TRIPOS>MOLECULE
MolPort-047-177-047 306144065 LN01336858 MCULE-1155020106 MCULE-6648016997 PubChem-124247674 PubChem-155828265 ZINC000306144065
 32 36 0 0 0
SMALL
GASTEIGER

@<TRIPOS>ATOM
      1 C          13.6770   40.1938    9.3815 C.ar    1  UNL1        0.1523
      2 C          11.7485   41.1348    9.5197 C.ar    1  UNL1        0.1555
      3 C          10.3309   39.1187    9.4376 C.ar    1  UNL1        0.0815
      4 C          10.3846   37.7193    9.3704 C.ar    1  UNL1        0.0191
      5 C          11.6345   37.0775    9.3024 C.ar    1  UNL1        0.0031
      6 C          12.8199   37.8277    9.2948 C.ar    1  UNL1        0.0193
      7 C          12.7013   39.2167    9.3429 C.ar    1  UNL1        0.0875
      8 N          13.0779   41.4012    9.5083 N.ar    1  UNL1       -0.2213
      9 N          11.5004   39.8099    9.4233 N.ar    1  UNL1       -0.2883
     10 C          17.3641   36.5022    9.3857 C.3     1  UNL1        0.0610
     11 C          18.0173   37.9002    9.5351 C.3     1  UNL1        0.0375
     12 C          17.1499   38.8773   10.3278 C.3     1  UNL1        0.0951
     13 C          15.1415   40.0151    9.3656 C.2     1  UNL1        0.2683
     14 C          15.0961   37.5224    9.7095 C.3     1  UNL1        0.0951
     15 C          16.0160   36.3680   10.1010 C.3     1  UNL1        0.0375
     16 N          15.7660   38.8195    9.8576 N.am    1  UNL1       -0.2747
     17 O          15.8561   40.9370    8.8869 O.2     1  UNL1       -0.2682
     18 C          19.6520   35.7429    9.5123 C.3     1  UNL1        0.0896
     19 C          17.9445   34.2510    8.8856 C.3     1  UNL1        0.0896
     20 N          18.2554   35.3881    9.7376 N.3     1  UNL1       -0.2715
     21 C          10.7302   42.1959    9.6404 C.ar    1  UNL1        0.0856
     22 C          10.9632   43.4539   10.1912 C.ar    1  UNL1        0.1104
     23 C           8.7987   43.6870    9.6376 C.ar    1  UNL1        0.1657
     24 N           9.8818   44.2786   10.1869 N.ar    1  UNL1       -0.2223
     25 S           9.1243   42.1217    9.1304 S.2     1  UNL1       -0.0483
     26 C           6.7116   44.2680    8.3126 C.2     1  UNL1        0.2270
     27 N           7.5242   44.3200    9.4918 N.am    1  UNL1       -0.2641
     28 O           7.1183   43.6796    7.2744 O.2     1  UNL1       -0.2747
     29 H           7.1791   44.8300   10.2599 H       1  UNL1        0.1567
     30 C           5.3891   44.9627    8.2969 C.3     1  UNL1        0.0769
     31 C           4.5683   44.4859    7.1120 C.3     1  UNL1        0.0096
     32 C           4.2720   43.9542    8.4957 C.3     1  UNL1        0.0096
@<TRIPOS>BOND
     1    18    20    1
     2    19    20    1
     3    10    20    1
     4    10    11    1
     5    11    12    1
     6    12    16    1
     7    13     1    1
     8     1     8   ar
     9     2    21    1
    10     2     9   ar
    11    21    25   ar
    12    22    24   ar
    13    23    27    1
    14    23    25   ar
    15    30    26    1
    16    30    31    1
    17    31    32    1
    18    32    30    1
    19     4     5   ar
    20     6     7   ar
    21     7     9   ar
    22    14    16    1
    23    14    15    1
    24    15    10    1
    25    16    13   am
    26    27    26   am
    27     9     3   ar
    28    13    17    2
    29     2     8   ar
    30    21    22   ar
    31    23    24   ar
    32    26    28    2
    33     3     4   ar
    34     5     6   ar
    35     7     1   ar
    36    27    29    1
@<TRIPOS>MOLECULE
MolPort-047-177-047 306144065 LN01336858 MCULE-1155020106 MCULE-6648016997 PubChem-124247674 PubChem-155828265 ZINC000306144065
 32 36 0 0 0
SMALL
GASTEIGER

@<TRIPOS>ATOM
      1 C           8.6765   40.9918    6.3975 C.ar    1  UNL1        0.1523
      2 C          10.8181   40.8904    6.5628 C.ar    1  UNL1        0.1555
      3 C          11.2732   39.3348    4.7042 C.ar    1  UNL1        0.0815
      4 C          10.6505   38.6104    3.6781 C.ar    1  UNL1        0.0191
      5 C           9.2527   38.6775    3.5337 C.ar    1  UNL1        0.0031
      6 C           8.4837   39.4564    4.4111 C.ar    1  UNL1        0.0193
      7 C           9.1580   40.1378    5.4244 C.ar    1  UNL1        0.0875
      8 N           9.7232   41.4782    7.1052 N.ar    1  UNL1       -0.2213
      9 N          10.4936   40.0737    5.5361 N.ar    1  UNL1       -0.2883
     10 C           5.3100   42.0943   10.2281 C.3     1  UNL1        0.0610
     11 C           4.5714   42.0785    8.8652 C.3     1  UNL1        0.0375
     12 C           5.1475   41.0511    7.8915 C.3     1  UNL1        0.0951
     13 C           7.2795   41.4040    6.6330 C.2     1  UNL1        0.2683
     14 C           7.3569   41.1432    9.1350 C.3     1  UNL1        0.0951
     15 C           6.4250   41.0499   10.3412 C.3     1  UNL1        0.0375
     16 N           6.6076   41.1364    7.8733 N.am    1  UNL1       -0.2747
     17 O           6.6722   42.0253    5.7193 O.2     1  UNL1       -0.2682
     18 C           4.2370   40.6543   11.8412 C.3     1  UNL1        0.0896
     19 C           3.1083   42.5423   11.0071 C.3     1  UNL1        0.0896
     20 N           4.4143   42.0303   11.3913 N.3     1  UNL1       -0.2715
     21 C          12.1835   41.1529    7.0570 C.ar    1  UNL1        0.0856
     22 C          12.8103   40.4261    8.0665 C.ar    1  UNL1        0.1104
     23 C          14.4558   41.8745    7.5763 C.ar    1  UNL1        0.1657
     24 N          14.0759   40.8349    8.3508 N.ar    1  UNL1       -0.2223
     25 S          13.2508   42.3362    6.5048 S.2     1  UNL1       -0.0483
     26 C          16.2161   43.5008    6.7365 C.2     1  UNL1        0.2270
     27 N          15.7382   42.5041    7.6483 N.am    1  UNL1       -0.2641
     28 O          15.5217   43.8543    5.7452 O.2     1  UNL1       -0.2747
     29 H          16.3381   42.2320    8.3800 H       1  UNL1        0.1567
     30 C          17.5742   44.0911    6.9341 C.3     1  UNL1        0.0769
     31 C          17.9080   44.1369    8.4145 C.3     1  UNL1        0.0096
     32 C          18.5050   43.0570    7.5413 C.3     1  UNL1        0.0096
@<TRIPOS>BOND
     1    18    20    1
     2    19    20    1
     3    10    20    1
     4    10    11    1
     5    11    12    1
     6    12    16    1
     7    13     1    1
     8     1     8   ar
     9     2    21    1
    10     2     9   ar
    11    21    25   ar
    12    22    24   ar
    13    23    27    1
    14    23    25   ar
    15    30    26    1
    16    30    31    1
    17    31    32    1
    18    32    30    1
    19     4     5   ar
    20     6     7   ar
    21     7     9   ar
    22    14    16    1
    23    14    15    1
    24    15    10    1
    25    16    13   am
    26    27    26   am
    27     9     3   ar
    28    13    17    2
    29     2     8   ar
    30    21    22   ar
    31    23    24   ar
    32    26    28    2
    33     3     4   ar
    34     5     6   ar
    35     7     1   ar
    36    27    29    1
@<TRIPOS>MOLECULE
MolPort-047-177-047 306144065 LN01336858 MCULE-1155020106 MCULE-6648016997 PubChem-124247674 PubChem-155828265 ZINC000306144065
 32 36 0 0 0
SMALL
GASTEIGER

@<TRIPOS>ATOM
      1 C           8.1015   41.8137   10.4412 C.ar    1  UNL1        0.1523
      2 C           5.9708   41.7175   10.7145 C.ar    1  UNL1        0.1555
      3 C           5.2783   43.1715    8.8469 C.ar    1  UNL1        0.0815
      4 C           5.7777   43.9229    7.7738 C.ar    1  UNL1        0.0191
      5 C           7.1667   43.9838    7.5591 C.ar    1  UNL1        0.0031
      6 C           8.0489   43.3053    8.4131 C.ar    1  UNL1        0.0193
      7 C           7.4934   42.5915    9.4751 C.ar    1  UNL1        0.0875
      8 N           7.1421   41.2506   11.2128 N.ar    1  UNL1       -0.2213
      9 N           6.1649   42.5326    9.6541 N.ar    1  UNL1       -0.2883
     10 C          12.6535   42.0236    7.9001 C.3     1  UNL1        0.0610
     11 C          12.8474   41.3303    9.2731 C.3     1  UNL1        0.0375
     12 C          11.6295   40.5121    9.7005 C.3     1  UNL1        0.0951
     13 C           9.5414   41.5417   10.6136 C.2     1  UNL1        0.2683
     14 C          10.1659   41.9523    8.2104 C.3     1  UNL1        0.0951
     15 C          11.3119   41.7092    7.2307 C.3     1  UNL1        0.0375
     16 N          10.4049   41.2854    9.4955 N.am    1  UNL1       -0.2747
     17 O          10.0221   41.5552   11.7791 O.2     1  UNL1       -0.2682
     18 C          15.0430   41.7712    7.6686 C.3     1  UNL1        0.0896
     19 C          13.8122   42.9261    6.0299 C.3     1  UNL1        0.0896
     20 N          13.7666   41.8124    6.9642 N.3     1  UNL1       -0.2715
     21 C           4.6627   41.3412   11.2844 C.ar    1  UNL1        0.0856
     22 C           4.2194   40.0303   11.4437 C.ar    1  UNL1        0.1104
     23 C           2.4503   41.1254   12.2906 C.ar    1  UNL1        0.1657
     24 N           2.9853   39.9185   12.0041 N.ar    1  UNL1       -0.2223
     25 S           3.4739   42.3853   11.8683 S.2     1  UNL1       -0.0483
     26 C           0.6441   42.5716   13.3370 C.2     1  UNL1        0.2270
     27 N           1.1671   41.3132   12.8942 N.am    1  UNL1       -0.2641
     28 O           1.3395   43.6208   13.2641 O.2     1  UNL1       -0.2747
     29 H           0.6002   40.5173   13.0145 H       1  UNL1        0.1567
     30 C          -0.7219   42.6322   13.9390 C.3     1  UNL1        0.0769
     31 C          -0.6218   42.5978   15.4535 C.3     1  UNL1        0.0096
     32 C          -0.8764   43.9089   14.7455 C.3     1  UNL1        0.0096
@<TRIPOS>BOND
     1    18    20    1
     2    19    20    1
     3    10    20    1
     4    10    11    1
     5    11    12    1
     6    12    16    1
     7    13     1    1
     8     1     8   ar
     9     2    21    1
    10     2     9   ar
    11    21    25   ar
    12    22    24   ar
    13    23    27    1
    14    23    25   ar
    15    30    26    1
    16    30    31    1
    17    31    32    1
    18    32    30    1
    19     4     5   ar
    20     6     7   ar
    21     7     9   ar
    22    14    16    1
    23    14    15    1
    24    15    10    1
    25    16    13   am
    26    27    26   am
    27     9     3   ar
    28    13    17    2
    29     2     8   ar
    30    21    22   ar
    31    23    24   ar
    32    26    28    2
    33     3     4   ar
    34     5     6   ar
    35     7     1   ar
    36    27    29    1
@<TRIPOS>MOLECULE
MolPort-047-177-047 306144065 LN01336858 MCULE-1155020106 MCULE-6648016997 PubChem-124247674 PubChem-155828265 ZINC000306144065
 32 36 0 0 0
SMALL
GASTEIGER

@<TRIPOS>ATOM
      1 C           9.3698   41.1816    8.6930 C.ar    1  UNL1        0.1523
      2 C           7.2713   41.3288    9.1385 C.ar    1  UNL1        0.1555
      3 C           6.3714   40.2676    7.1024 C.ar    1  UNL1        0.0815
      4 C           6.7551   39.6447    5.9065 C.ar    1  UNL1        0.0191
      5 C           8.1223   39.5150    5.6018 C.ar    1  UNL1        0.0031
      6 C           9.0971   40.0093    6.4812 C.ar    1  UNL1        0.0193
      7 C           8.6531   40.6371    7.6451 C.ar    1  UNL1        0.0875
      8 N           8.5002   41.6036    9.6410 N.ar    1  UNL1       -0.2213
      9 N           7.3448   40.7372    7.9257 N.ar    1  UNL1       -0.2883
     10 C          13.5917   38.1774    9.3036 C.3     1  UNL1        0.0610
     11 C          13.9815   39.6708    9.4489 C.3     1  UNL1        0.0375
     12 C          12.8766   40.5118   10.0871 C.3     1  UNL1        0.0951
     13 C          10.8351   41.2556    8.8489 C.2     1  UNL1        0.2683
     14 C          11.1636   38.8051    9.3192 C.3     1  UNL1        0.0951
     15 C          12.2097   37.8392    9.8716 C.3     1  UNL1        0.0375
     16 N          11.5868   40.2020    9.4706 N.am    1  UNL1       -0.2747
     17 O          11.4383   42.2692    8.4033 O.2     1  UNL1       -0.2682
     18 C          14.2176   35.8610    9.5665 C.3     1  UNL1        0.0896
     19 C          14.7311   37.4224   11.2495 C.3     1  UNL1        0.0896
     20 N          14.6076   37.2449    9.8112 N.3     1  UNL1       -0.2715
     21 C           6.0291   41.6420    9.8708 C.ar    1  UNL1        0.0856
     22 C           4.9094   42.2455    9.3030 C.ar    1  UNL1        0.1104
     23 C           4.1580   41.9711   11.4020 C.ar    1  UNL1        0.1657
     24 N           3.8714   42.4264   10.1628 N.ar    1  UNL1       -0.2223
     25 S           5.7024   41.3233   11.4944 S.2     1  UNL1       -0.0483
     26 C           1.8309   42.1806   12.3969 C.2     1  UNL1        0.2270
     27 N           3.2508   42.0217   12.5068 N.am    1  UNL1       -0.2641
     28 O           1.2854   42.3454   11.2722 O.2     1  UNL1       -0.2747
     29 H           3.6307   41.9412   13.4115 H       1  UNL1        0.1567
     30 C           0.9930   42.2021   13.6336 C.3     1  UNL1        0.0769
     31 C           0.4909   43.6111   13.8938 C.3     1  UNL1        0.0096
     32 C          -0.4348   42.5825   13.2853 C.3     1  UNL1        0.0096
@<TRIPOS>BOND
     1    18    20    1
     2    19    20    1
     3    10    20    1
     4    10    11    1
     5    11    12    1
     6    12    16    1
     7    13     1    1
     8     1     8   ar
     9     2    21    1
    10     2     9   ar
    11    21    25   ar
    12    22    24   ar
    13    23    27    1
    14    23    25   ar
    15    30    26    1
    16    30    31    1
    17    31    32    1
    18    32    30    1
    19     4     5   ar
    20     6     7   ar
    21     7     9   ar
    22    14    16    1
    23    14    15    1
    24    15    10    1
    25    16    13   am
    26    27    26   am
    27     9     3   ar
    28    13    17    2
    29     2     8   ar
    30    21    22   ar
    31    23    24   ar
    32    26    28    2
    33     3     4   ar
    34     5     6   ar
    35     7     1   ar
    36    27    29    1
@<TRIPOS>MOLECULE
MolPort-047-177-047 306144065 LN01336858 MCULE-1155020106 MCULE-6648016997 PubChem-124247674 PubChem-155828265 ZINC000306144065
 32 36 0 0 0
SMALL
GASTEIGER

@<TRIPOS>ATOM
      1 C          14.4481   40.3998    9.4449 C.ar    1  UNL1        0.1523
      2 C          12.4010   41.0559    9.3895 C.ar    1  UNL1        0.1555
      3 C          12.5714   42.6903    7.5508 C.ar    1  UNL1        0.0815
      4 C          13.4694   43.2347    6.6219 C.ar    1  UNL1        0.0191
      5 C          14.8092   42.8058    6.6217 C.ar    1  UNL1        0.0031
      6 C          15.2491   41.8465    7.5459 C.ar    1  UNL1        0.0193
      7 C          14.3141   41.3573    8.4582 C.ar    1  UNL1        0.0875
      8 N          13.2398   40.1984   10.0216 N.ar    1  UNL1       -0.2213
      9 N          13.0367   41.7672    8.4323 N.ar    1  UNL1       -0.2883
     10 C          16.7077   35.7405    8.8073 C.3     1  UNL1        0.0610
     11 C          17.5191   36.5856    9.8225 C.3     1  UNL1        0.0375
     12 C          16.6364   37.5014   10.6696 C.3     1  UNL1        0.0951
     13 C          15.6561   39.6353    9.8097 C.2     1  UNL1        0.2683
     14 C          14.8693   37.4457    8.8501 C.3     1  UNL1        0.0951
     15 C          15.1931   35.9540    8.8931 C.3     1  UNL1        0.0375
     16 N          15.6718   38.1996    9.8201 N.am    1  UNL1       -0.2747
     17 O          16.7059   40.2699   10.1013 O.2     1  UNL1       -0.2682
     18 C          18.0826   33.9956    7.8628 C.3     1  UNL1        0.0896
     19 C          15.8509   33.5498    8.4584 C.3     1  UNL1        0.0896
     20 N          17.0355   34.3081    8.8287 N.3     1  UNL1       -0.2715
     21 C          10.9684   41.1554    9.7290 C.ar    1  UNL1        0.0856
     22 C          10.4778   41.5031   10.9855 C.ar    1  UNL1        0.1104
     23 C           8.5351   41.2387    9.8892 C.ar    1  UNL1        0.1657
     24 N           9.1209   41.5463   11.0669 N.ar    1  UNL1       -0.2223
     25 S           9.6618   40.9013    8.6934 S.2     1  UNL1       -0.0483
     26 C           6.1339   41.4265   10.6943 C.2     1  UNL1        0.2270
     27 N           7.1206   41.2136    9.6772 N.am    1  UNL1       -0.2641
     28 O           6.4735   41.6024   11.8957 O.2     1  UNL1       -0.2747
     29 H           6.8007   41.0368    8.7631 H       1  UNL1        0.1567
     30 C           4.6842   41.3888   10.3352 C.3     1  UNL1        0.0769
     31 C           3.9904   40.2761   11.1005 C.3     1  UNL1        0.0096
     32 C           3.8399   41.7099   11.5552 C.3     1  UNL1        0.0096
@<TRIPOS>BOND
     1    18    20    1
     2    19    20    1
     3    10    20    1
     4    10    11    1
     5    11    12    1
     6    12    16    1
     7    13     1    1
     8     1     8   ar
     9     2    21    1
    10     2     9   ar
    11    21    25   ar
    12    22    24   ar
    13    23    27    1
    14    23    25   ar
    15    30    26    1
    16    30    31    1
    17    31    32    1
    18    32    30    1
    19     4     5   ar
    20     6     7   ar
    21     7     9   ar
    22    14    16    1
    23    14    15    1
    24    15    10    1
    25    16    13   am
    26    27    26   am
    27     9     3   ar
    28    13    17    2
    29     2     8   ar
    30    21    22   ar
    31    23    24   ar
    32    26    28    2
    33     3     4   ar
    34     5     6   ar
    35     7     1   ar
    36    27    29    1
