@<TRIPOS>MOLECULE
MolPort-051-671-642 MCULE-8642234493 PubChem-110111879
 28 31 0 0 0
SMALL
GASTEIGER

@<TRIPOS>ATOM
      1 C           7.9683   42.0886   10.6561 C.ar    1  UNL1        0.1329
      2 C           9.1395   41.4945   12.6400 C.ar    1  UNL1        0.1000
      3 C          10.1893   40.9641   11.8888 C.ar    1  UNL1        0.0165
      4 C          10.1186   41.0014   10.4903 C.ar    1  UNL1       -0.0168
      5 C           9.0009   41.5671    9.8727 C.ar    1  UNL1        0.0302
      6 N           8.0621   42.0400   12.0148 N.ar    1  UNL1       -0.2291
      7 C          11.2191   40.4459    9.6443 C.3     1  UNL1        0.0385
      8 C          12.5484   40.4373   10.4049 C.3     1  UNL1        0.0072
      9 C          13.7030   40.0089    9.4959 C.3     1  UNL1        0.0177
     10 C          13.5979   40.6091    8.0868 C.3     1  UNL1        0.0724
     11 C          11.3088   41.1855    8.2964 C.3     1  UNL1        0.0767
     12 N          12.6488   41.7215    8.0531 N.3     1  UNL1       -0.2673
     13 C          12.6509   42.2451    6.6955 C.3     1  UNL1        0.1203
     14 C          13.8146   43.1596    6.4642 C.ar    1  UNL1        0.0940
     15 C          15.1028   42.9872    6.9342 C.ar    1  UNL1        0.0934
     16 C          14.9639   44.8184    5.7770 C.ar    1  UNL1        0.1783
     17 C          17.2066   44.2996    6.7281 C.3     1  UNL1        0.1321
     18 N          15.7998   44.0421    6.4872 N.ar    1  UNL1       -0.3061
     19 N          13.7213   44.2961    5.7446 N.ar    1  UNL1       -0.2269
     20 N           6.8279   42.6659   10.0092 N.pl3   1  UNL1       -0.2834
     21 H           6.9759   43.4999    9.5074 H       1  UNL1        0.1550
     22 C           2.5103   42.1519   12.2679 C.3     1  UNL1        0.0521
     23 C           3.3870   41.8827   11.0987 C.ar    1  UNL1        0.0608
     24 C           5.4927   42.1466   10.0222 C.ar    1  UNL1        0.1328
     25 C           5.0448   41.3967    8.9315 C.ar    1  UNL1        0.0344
     26 C           3.7452   40.8870    8.9361 C.ar    1  UNL1        0.0041
     27 C           2.9073   41.1294   10.0255 C.ar    1  UNL1        0.0148
     28 N           4.6564   42.3705   11.0750 N.ar    1  UNL1       -0.2349
@<TRIPOS>BOND
     1    22    23    1
     2    24    28   ar
     3    24    20    1
     4    25    26   ar
     5    27    23   ar
     6     2     6   ar
     7     3     4   ar
     8     5     1   ar
     9     7     4    1
    10     7     8    1
    11     8     9    1
    12     9    10    1
    13    10    12    1
    14    11    12    1
    15    11     7    1
    16    13    12    1
    17    13    14    1
    18    14    19   ar
    19    15    18   ar
    20    17    18    1
    21    20     1    1
    22    18    16   ar
    23    23    28   ar
    24    24    25   ar
    25    26    27   ar
    26     1     6   ar
    27     2     3   ar
    28     4     5   ar
    29    14    15   ar
    30    16    19   ar
    31    20    21    1
@<TRIPOS>MOLECULE
MolPort-051-671-642 MCULE-8642234493 PubChem-110111879
 28 31 0 0 0
SMALL
GASTEIGER

@<TRIPOS>ATOM
      1 C           7.9095   41.7118   11.0041 C.ar    1  UNL1        0.1329
      2 C           9.3618   41.5258   12.8793 C.ar    1  UNL1        0.1000
      3 C          10.3886   41.0451   12.0654 C.ar    1  UNL1        0.0165
      4 C          10.1618   40.8979   10.6910 C.ar    1  UNL1       -0.0168
      5 C           8.9145   41.2336   10.1596 C.ar    1  UNL1        0.0302
      6 N           8.1563   41.8458   12.3377 N.ar    1  UNL1       -0.2291
      7 C          11.2317   40.3872    9.7800 C.3     1  UNL1        0.0385
      8 C          12.5933   40.3754   10.4810 C.3     1  UNL1        0.0072
      9 C          13.7126   39.9944    9.5089 C.3     1  UNL1        0.0177
     10 C          13.5366   40.6376    8.1260 C.3     1  UNL1        0.0724
     11 C          11.2510   41.1707    8.4543 C.3     1  UNL1        0.0767
     12 N          12.5711   41.7353    8.1701 N.3     1  UNL1       -0.2673
     13 C          12.5056   42.3019    6.8315 C.3     1  UNL1        0.1203
     14 C          13.6941   43.1676    6.5456 C.ar    1  UNL1        0.0940
     15 C          14.9621   43.0262    7.0771 C.ar    1  UNL1        0.0934
     16 C          14.8984   44.7245    5.7268 C.ar    1  UNL1        0.1783
     17 C          17.0971   44.2752    6.8074 C.3     1  UNL1        0.1321
     18 N          15.6944   44.0158    6.5452 N.ar    1  UNL1       -0.3061
     19 N          13.6476   44.2216    5.7059 N.ar    1  UNL1       -0.2269
     20 N           6.6351   42.0524   10.4454 N.pl3   1  UNL1       -0.2834
     21 H           5.8384   41.7719   10.9513 H       1  UNL1        0.1550
     22 C           3.8400   45.0279    7.7360 C.3     1  UNL1        0.0521
     23 C           5.0682   44.2050    7.8860 C.ar    1  UNL1        0.0608
     24 C           6.4081   42.7617    9.2215 C.ar    1  UNL1        0.1328
     25 C           7.3502   42.6628    8.1943 C.ar    1  UNL1        0.0344
     26 C           7.1368   43.3507    6.9984 C.ar    1  UNL1        0.0041
     27 C           5.9889   44.1283    6.8392 C.ar    1  UNL1        0.0148
     28 N           5.2946   43.5272    9.0432 N.ar    1  UNL1       -0.2349
@<TRIPOS>BOND
     1    22    23    1
     2    24    28   ar
     3    24    20    1
     4    25    26   ar
     5    27    23   ar
     6     2     6   ar
     7     3     4   ar
     8     5     1   ar
     9     7     4    1
    10     7     8    1
    11     8     9    1
    12     9    10    1
    13    10    12    1
    14    11    12    1
    15    11     7    1
    16    13    12    1
    17    13    14    1
    18    14    19   ar
    19    15    18   ar
    20    17    18    1
    21    20     1    1
    22    18    16   ar
    23    23    28   ar
    24    24    25   ar
    25    26    27   ar
    26     1     6   ar
    27     2     3   ar
    28     4     5   ar
    29    14    15   ar
    30    16    19   ar
    31    20    21    1
@<TRIPOS>MOLECULE
MolPort-051-671-642 MCULE-8642234493 PubChem-110111879
 28 31 0 0 0
SMALL
GASTEIGER

@<TRIPOS>ATOM
      1 C          15.6122   40.2684    9.7451 C.ar    1  UNL1        0.1329
      2 C          14.7314   38.7537   11.3546 C.ar    1  UNL1        0.1000
      3 C          13.4273   39.0612   10.9640 C.ar    1  UNL1        0.0165
      4 C          13.2205   39.9944    9.9400 C.ar    1  UNL1       -0.0168
      5 C          14.3206   40.6002    9.3286 C.ar    1  UNL1        0.0302
      6 N          15.7857   39.3572   10.7436 N.ar    1  UNL1       -0.2291
      7 C          11.8418   40.3550    9.4879 C.3     1  UNL1        0.0385
      8 C          11.8827   41.4272    8.3951 C.3     1  UNL1        0.0072
      9 C          10.4736   41.9043    8.0353 C.3     1  UNL1        0.0177
     10 C           9.5713   42.0601    9.2676 C.3     1  UNL1        0.0724
     11 C          10.9542   40.7544   10.6814 C.3     1  UNL1        0.0767
     12 N          10.3565   42.0783   10.5014 N.3     1  UNL1       -0.2673
     13 C           9.4224   42.2696   11.6006 C.3     1  UNL1        0.1203
     14 C           8.0294   41.8840   11.2074 C.ar    1  UNL1        0.0940
     15 C           7.4647   42.0072    9.9520 C.ar    1  UNL1        0.0934
     16 C           6.0300   41.1564   11.3411 C.ar    1  UNL1        0.1783
     17 C           5.2273   41.4714    9.0043 C.3     1  UNL1        0.1321
     18 N           6.2118   41.5431   10.0670 N.ar    1  UNL1       -0.3061
     19 N           7.1428   41.3563   12.0756 N.ar    1  UNL1       -0.2269
     20 N          16.7313   40.8975    9.1093 N.pl3   1  UNL1       -0.2834
     21 H          17.6141   40.4868    9.2545 H       1  UNL1        0.1550
     22 C          14.3165   43.7612    5.9509 C.3     1  UNL1        0.0521
     23 C          15.5376   43.4736    6.7473 C.ar    1  UNL1        0.0608
     24 C          16.6894   42.0667    8.2823 C.ar    1  UNL1        0.1328
     25 C          17.8015   42.9119    8.2441 C.ar    1  UNL1        0.0344
     26 C          17.7691   44.0532    7.4409 C.ar    1  UNL1        0.0041
     27 C          16.6311   44.3396    6.6856 C.ar    1  UNL1        0.0148
     28 N          15.5891   42.3668    7.5361 N.ar    1  UNL1       -0.2349
@<TRIPOS>BOND
     1    22    23    1
     2    24    28   ar
     3    24    20    1
     4    25    26   ar
     5    27    23   ar
     6     2     6   ar
     7     3     4   ar
     8     5     1   ar
     9     7     4    1
    10     7     8    1
    11     8     9    1
    12     9    10    1
    13    10    12    1
    14    11    12    1
    15    11     7    1
    16    13    12    1
    17    13    14    1
    18    14    19   ar
    19    15    18   ar
    20    17    18    1
    21    20     1    1
    22    18    16   ar
    23    23    28   ar
    24    24    25   ar
    25    26    27   ar
    26     1     6   ar
    27     2     3   ar
    28     4     5   ar
    29    14    15   ar
    30    16    19   ar
    31    20    21    1
@<TRIPOS>MOLECULE
MolPort-051-671-642 MCULE-8642234493 PubChem-110111879
 28 31 0 0 0
SMALL
GASTEIGER

@<TRIPOS>ATOM
      1 C          15.7932   39.9728    9.9515 C.ar    1  UNL1        0.1329
      2 C          15.1600   38.5966   11.7861 C.ar    1  UNL1        0.1000
      3 C          13.8299   38.6059   11.3636 C.ar    1  UNL1        0.0165
      4 C          13.4829   39.3171   10.2078 C.ar    1  UNL1       -0.0168
      5 C          14.4716   40.0038    9.4995 C.ar    1  UNL1        0.0302
      6 N          16.1042   39.2730   11.0789 N.ar    1  UNL1       -0.2291
      7 C          12.0712   39.3554    9.7168 C.3     1  UNL1        0.0385
      8 C          11.5972   37.9623    9.2922 C.3     1  UNL1        0.0072
      9 C          10.2079   38.0218    8.6527 C.3     1  UNL1        0.0177
     10 C          10.0360   39.2354    7.7282 C.3     1  UNL1        0.0724
     11 C          11.8996   40.4074    8.6052 C.3     1  UNL1        0.0767
     12 N          11.3279   39.8305    7.3877 N.3     1  UNL1       -0.2673
     13 C          11.0635   40.9387    6.4825 C.3     1  UNL1        0.1203
     14 C           9.7303   41.5635    6.7583 C.ar    1  UNL1        0.0940
     15 C           9.3596   42.2390    7.9057 C.ar    1  UNL1        0.0934
     16 C           7.7089   42.1884    6.4969 C.ar    1  UNL1        0.1783
     17 C           7.2674   43.3620    8.6490 C.3     1  UNL1        0.1321
     18 N           8.0880   42.6187    7.7122 N.ar    1  UNL1       -0.3061
     19 N           8.7088   41.5280    5.8788 N.ar    1  UNL1       -0.2269
     20 N          16.7971   40.6816    9.2152 N.pl3   1  UNL1       -0.2834
     21 H          17.7051   40.3012    9.2216 H       1  UNL1        0.1550
     22 C          14.1068   43.3675    6.1240 C.3     1  UNL1        0.0521
     23 C          15.3185   43.2143    6.9704 C.ar    1  UNL1        0.0608
     24 C          16.6070   41.8906    8.4704 C.ar    1  UNL1        0.1328
     25 C          17.5687   42.9006    8.5578 C.ar    1  UNL1        0.0344
     26 C          17.3912   44.0818    7.8352 C.ar    1  UNL1        0.0041
     27 C          16.2596   44.2437    7.0347 C.ar    1  UNL1        0.0148
     28 N          15.5099   42.0712    7.6822 N.ar    1  UNL1       -0.2349
@<TRIPOS>BOND
     1    22    23    1
     2    24    28   ar
     3    24    20    1
     4    25    26   ar
     5    27    23   ar
     6     2     6   ar
     7     3     4   ar
     8     5     1   ar
     9     7     4    1
    10     7     8    1
    11     8     9    1
    12     9    10    1
    13    10    12    1
    14    11    12    1
    15    11     7    1
    16    13    12    1
    17    13    14    1
    18    14    19   ar
    19    15    18   ar
    20    17    18    1
    21    20     1    1
    22    18    16   ar
    23    23    28   ar
    24    24    25   ar
    25    26    27   ar
    26     1     6   ar
    27     2     3   ar
    28     4     5   ar
    29    14    15   ar
    30    16    19   ar
    31    20    21    1
@<TRIPOS>MOLECULE
MolPort-051-671-642 MCULE-8642234493 PubChem-110111879
 28 31 0 0 0
SMALL
GASTEIGER

@<TRIPOS>ATOM
      1 C          13.0483   42.1219    6.3271 C.ar    1  UNL1        0.1329
      2 C          15.0620   43.3822    6.4584 C.ar    1  UNL1        0.1000
      3 C          15.4992   42.6142    7.5386 C.ar    1  UNL1        0.0165
      4 C          14.6861   41.5787    8.0170 C.ar    1  UNL1       -0.0168
      5 C          13.4542   41.3331    7.4064 C.ar    1  UNL1        0.0302
      6 N          13.8584   43.1230    5.8811 N.ar    1  UNL1       -0.2291
      7 C          15.1128   40.7295    9.1712 C.3     1  UNL1        0.0385
      8 C          16.6387   40.6992    9.2990 C.3     1  UNL1        0.0072
      9 C          17.0834   39.7160   10.3845 C.3     1  UNL1        0.0177
     10 C          16.2609   38.4197   10.3786 C.3     1  UNL1        0.0724
     11 C          14.4945   39.3218    9.0817 C.3     1  UNL1        0.0767
     12 N          15.5127   38.2716    9.1306 N.3     1  UNL1       -0.2673
     13 C          14.8035   37.0031    9.2047 C.3     1  UNL1        0.1203
     14 C          15.5547   35.9151    8.5006 C.ar    1  UNL1        0.0940
     15 C          15.3592   34.5544    8.6440 C.ar    1  UNL1        0.0934
     16 C          16.9524   34.9387    7.2208 C.ar    1  UNL1        0.1783
     17 C          16.4223   32.5414    7.6397 C.3     1  UNL1        0.1321
     18 N          16.2492   33.9688    7.8295 N.ar    1  UNL1       -0.3061
     19 N          16.5439   36.1608    7.6178 N.ar    1  UNL1       -0.2269
     20 N          11.7823   41.8587    5.7104 N.pl3   1  UNL1       -0.2834
     21 H          11.6268   42.2602    4.8250 H       1  UNL1        0.1550
     22 C           8.0524   41.3758    8.8508 C.3     1  UNL1        0.0521
     23 C           8.9051   40.8086    7.7740 C.ar    1  UNL1        0.0608
     24 C          10.7207   41.0677    6.2579 C.ar    1  UNL1        0.1328
     25 C          10.5114   39.7771    5.7648 C.ar    1  UNL1        0.0344
     26 C           9.4792   38.9995    6.2928 C.ar    1  UNL1        0.0041
     27 C           8.6681   39.5152    7.3047 C.ar    1  UNL1        0.0148
     28 N           9.9159   41.5501    7.2464 N.ar    1  UNL1       -0.2349
@<TRIPOS>BOND
     1    22    23    1
     2    24    28   ar
     3    24    20    1
     4    25    26   ar
     5    27    23   ar
     6     2     6   ar
     7     3     4   ar
     8     5     1   ar
     9     7     4    1
    10     7     8    1
    11     8     9    1
    12     9    10    1
    13    10    12    1
    14    11    12    1
    15    11     7    1
    16    13    12    1
    17    13    14    1
    18    14    19   ar
    19    15    18   ar
    20    17    18    1
    21    20     1    1
    22    18    16   ar
    23    23    28   ar
    24    24    25   ar
    25    26    27   ar
    26     1     6   ar
    27     2     3   ar
    28     4     5   ar
    29    14    15   ar
    30    16    19   ar
    31    20    21    1
@<TRIPOS>MOLECULE
MolPort-051-671-642 MCULE-8642234493 PubChem-110111879
 28 31 0 0 0
SMALL
GASTEIGER

@<TRIPOS>ATOM
      1 C          10.7280   39.4698    8.9489 C.ar    1  UNL1        0.1329
      2 C          11.0298   40.6835   10.9728 C.ar    1  UNL1        0.1000
      3 C          12.3653   40.2838   11.0402 C.ar    1  UNL1        0.0165
      4 C          12.8853   39.4586   10.0347 C.ar    1  UNL1       -0.0168
      5 C          12.0602   39.0505    8.9843 C.ar    1  UNL1        0.0302
      6 N          10.2471   40.2727    9.9396 N.ar    1  UNL1       -0.2291
      7 C          14.3098   39.0055   10.0647 C.3     1  UNL1        0.0385
      8 C          14.8023   38.8298   11.5041 C.3     1  UNL1        0.0072
      9 C          16.2987   38.5100   11.5416 C.3     1  UNL1        0.0177
     10 C          17.1022   39.3290   10.5215 C.3     1  UNL1        0.0724
     11 C          15.2075   39.9454    9.2385 C.3     1  UNL1        0.0767
     12 N          16.3272   40.4655   10.0246 N.3     1  UNL1       -0.2673
     13 C          17.1829   41.1969    9.1026 C.3     1  UNL1        0.1203
     14 C          16.3851   42.1133    8.2265 C.ar    1  UNL1        0.0940
     15 C          15.1139   41.8824    7.7356 C.ar    1  UNL1        0.0934
     16 C          15.8446   43.8091    7.0531 C.ar    1  UNL1        0.1783
     17 C          13.5599   43.1782    6.2875 C.3     1  UNL1        0.1321
     18 N          14.8022   42.9624    7.0043 N.ar    1  UNL1       -0.3061
     19 N          16.8453   43.3088    7.8056 N.ar    1  UNL1       -0.2269
     20 N           9.8931   39.0436    7.8656 N.pl3   1  UNL1       -0.2834
     21 H           9.1024   38.5053    8.0985 H       1  UNL1        0.1550
     22 C           9.6310   37.6347    3.1801 C.3     1  UNL1        0.0521
     23 C           9.9806   38.6643    4.1929 C.ar    1  UNL1        0.0608
     24 C          10.0979   39.3252    6.4759 C.ar    1  UNL1        0.1328
     25 C          10.6234   40.5655    6.1043 C.ar    1  UNL1        0.0344
     26 C          10.8262   40.8481    4.7523 C.ar    1  UNL1        0.0041
     27 C          10.5039   39.8934    3.7867 C.ar    1  UNL1        0.0148
     28 N           9.7906   38.4085    5.5152 N.ar    1  UNL1       -0.2349
@<TRIPOS>BOND
     1    22    23    1
     2    24    28   ar
     3    24    20    1
     4    25    26   ar
     5    27    23   ar
     6     2     6   ar
     7     3     4   ar
     8     5     1   ar
     9     7     4    1
    10     7     8    1
    11     8     9    1
    12     9    10    1
    13    10    12    1
    14    11    12    1
    15    11     7    1
    16    13    12    1
    17    13    14    1
    18    14    19   ar
    19    15    18   ar
    20    17    18    1
    21    20     1    1
    22    18    16   ar
    23    23    28   ar
    24    24    25   ar
    25    26    27   ar
    26     1     6   ar
    27     2     3   ar
    28     4     5   ar
    29    14    15   ar
    30    16    19   ar
    31    20    21    1
@<TRIPOS>MOLECULE
MolPort-051-671-642 MCULE-8642234493 PubChem-110111879
 28 31 0 0 0
SMALL
GASTEIGER

@<TRIPOS>ATOM
      1 C           7.6317   41.7857   11.1525 C.ar    1  UNL1        0.1329
      2 C           8.8842   41.2506   13.1033 C.ar    1  UNL1        0.1000
      3 C          10.0643   41.2007   12.3597 C.ar    1  UNL1        0.0165
      4 C          10.0175   41.4505   10.9822 C.ar    1  UNL1       -0.0168
      5 C           8.7933   41.7443   10.3773 C.ar    1  UNL1        0.0302
      6 N           7.7049   41.5390   12.4909 N.ar    1  UNL1       -0.2291
      7 C          11.2556   41.4086   10.1452 C.3     1  UNL1        0.0385
      8 C          10.9669   41.8603    8.7106 C.3     1  UNL1        0.0072
      9 C          12.1952   41.6785    7.8157 C.3     1  UNL1        0.0177
     10 C          12.9435   40.3686    8.1005 C.3     1  UNL1        0.0724
     11 C          11.9215   40.0214   10.2103 C.3     1  UNL1        0.0767
     12 N          12.1192   39.4451    8.8795 N.3     1  UNL1       -0.2673
     13 C          12.8951   38.2275    9.0608 C.3     1  UNL1        0.1203
     14 C          14.0470   38.4471    9.9928 C.ar    1  UNL1        0.0940
     15 C          15.3127   38.8828    9.6485 C.ar    1  UNL1        0.0934
     16 C          15.1928   38.5384   11.7883 C.ar    1  UNL1        0.1783
     17 C          17.3939   39.3333   10.9356 C.3     1  UNL1        0.1321
     18 N          16.0078   38.9304   10.7943 N.ar    1  UNL1       -0.3061
     19 N          13.9659   38.2308   11.3213 N.ar    1  UNL1       -0.2269
     20 N           6.3830   42.0884   10.5190 N.pl3   1  UNL1       -0.2834
     21 H           5.5668   41.7763   10.9727 H       1  UNL1        0.1550
     22 C           3.7397   45.1313    7.7331 C.3     1  UNL1        0.0521
     23 C           4.9416   44.2770    7.9166 C.ar    1  UNL1        0.0608
     24 C           6.2073   42.8014    9.2888 C.ar    1  UNL1        0.1328
     25 C           7.1735   42.6762    8.2872 C.ar    1  UNL1        0.0344
     26 C           7.0101   43.3675    7.0854 C.ar    1  UNL1        0.0041
     27 C           5.8876   44.1746    6.8948 C.ar    1  UNL1        0.0148
     28 N           5.1193   43.5954    9.0801 N.ar    1  UNL1       -0.2349
@<TRIPOS>BOND
     1    22    23    1
     2    24    28   ar
     3    24    20    1
     4    25    26   ar
     5    27    23   ar
     6     2     6   ar
     7     3     4   ar
     8     5     1   ar
     9     7     4    1
    10     7     8    1
    11     8     9    1
    12     9    10    1
    13    10    12    1
    14    11    12    1
    15    11     7    1
    16    13    12    1
    17    13    14    1
    18    14    19   ar
    19    15    18   ar
    20    17    18    1
    21    20     1    1
    22    18    16   ar
    23    23    28   ar
    24    24    25   ar
    25    26    27   ar
    26     1     6   ar
    27     2     3   ar
    28     4     5   ar
    29    14    15   ar
    30    16    19   ar
    31    20    21    1
@<TRIPOS>MOLECULE
MolPort-051-671-642 MCULE-8642234493 PubChem-110111879
 28 31 0 0 0
SMALL
GASTEIGER

@<TRIPOS>ATOM
      1 C          14.3709   40.3322    9.3556 C.ar    1  UNL1        0.1329
      2 C          12.8433   39.6174   11.0337 C.ar    1  UNL1        0.1000
      3 C          11.7770   39.7202   10.1391 C.ar    1  UNL1        0.0165
      4 C          12.0226   40.1391    8.8252 C.ar    1  UNL1       -0.0168
      5 C          13.3275   40.4464    8.4335 C.ar    1  UNL1        0.0302
      6 N          14.1048   39.9222   10.6278 N.ar    1  UNL1       -0.2291
      7 C          10.9121   40.2637    7.8319 C.3     1  UNL1        0.0385
      8 C          11.4086   40.8900    6.5255 C.3     1  UNL1        0.0072
      9 C          10.2483   41.1546    5.5629 C.3     1  UNL1        0.0177
     10 C           9.0005   41.6923    6.2775 C.3     1  UNL1        0.0724
     11 C           9.7115   41.0168    8.4349 C.3     1  UNL1        0.0767
     12 N           9.3231   42.1701    7.6217 N.3     1  UNL1       -0.2673
     13 C           8.0932   42.6934    8.1968 C.3     1  UNL1        0.1203
     14 C           7.8791   42.1815    9.5881 C.ar    1  UNL1        0.0940
     15 C           8.8228   42.1183   10.5960 C.ar    1  UNL1        0.0934
     16 C           6.9181   41.3520   11.3008 C.ar    1  UNL1        0.1783
     17 C           8.7780   41.3356   12.9574 C.3     1  UNL1        0.1321
     18 N           8.1910   41.5946   11.6566 N.ar    1  UNL1       -0.3061
     19 N           6.6932   41.7063   10.0194 N.ar    1  UNL1       -0.2269
     20 N          15.7045   40.6506    8.9401 N.pl3   1  UNL1       -0.2834
     21 H          16.3940   39.9650    9.0941 H       1  UNL1        0.1550
     22 C          14.8996   44.2882    5.7578 C.3     1  UNL1        0.0521
     23 C          15.7636   43.6480    6.7833 C.ar    1  UNL1        0.0608
     24 C          16.1314   41.8705    8.3220 C.ar    1  UNL1        0.1328
     25 C          17.3542   42.4316    8.6994 C.ar    1  UNL1        0.0344
     26 C          17.7778   43.6201    8.1020 C.ar    1  UNL1        0.0041
     27 C          16.9798   44.2358    7.1367 C.ar    1  UNL1        0.0148
     28 N          15.3689   42.4898    7.3771 N.ar    1  UNL1       -0.2349
@<TRIPOS>BOND
     1    22    23    1
     2    24    28   ar
     3    24    20    1
     4    25    26   ar
     5    27    23   ar
     6     2     6   ar
     7     3     4   ar
     8     5     1   ar
     9     7     4    1
    10     7     8    1
    11     8     9    1
    12     9    10    1
    13    10    12    1
    14    11    12    1
    15    11     7    1
    16    13    12    1
    17    13    14    1
    18    14    19   ar
    19    15    18   ar
    20    17    18    1
    21    20     1    1
    22    18    16   ar
    23    23    28   ar
    24    24    25   ar
    25    26    27   ar
    26     1     6   ar
    27     2     3   ar
    28     4     5   ar
    29    14    15   ar
    30    16    19   ar
    31    20    21    1
@<TRIPOS>MOLECULE
MolPort-051-671-642 MCULE-8642234493 PubChem-110111879
 28 31 0 0 0
SMALL
GASTEIGER

@<TRIPOS>ATOM
      1 C           8.2334   40.6198    8.0450 C.ar    1  UNL1        0.1329
      2 C           8.2669   39.7479    5.8316 C.ar    1  UNL1        0.1000
      3 C           9.6588   39.8417    5.7912 C.ar    1  UNL1        0.0165
      4 C          10.3451   40.3368    6.9075 C.ar    1  UNL1       -0.0168
      5 C           9.6263   40.7276    8.0395 C.ar    1  UNL1        0.0302
      6 N           7.5901   40.1347    6.9458 N.ar    1  UNL1       -0.2291
      7 C          11.8355   40.4552    6.9102 C.3     1  UNL1        0.0385
      8 C          12.3897   40.4069    8.3371 C.3     1  UNL1        0.0072
      9 C          13.8965   40.6753    8.3546 C.3     1  UNL1        0.0177
     10 C          14.3085   41.7873    7.3796 C.3     1  UNL1        0.0724
     11 C          12.2934   41.7048    6.1353 C.3     1  UNL1        0.0767
     12 N          13.1510   42.5697    6.9470 N.3     1  UNL1       -0.2673
     13 C          13.6466   43.6156    6.0651 C.3     1  UNL1        0.1203
     14 C          15.1289   43.7857    6.1980 C.ar    1  UNL1        0.0940
     15 C          15.8511   43.8189    7.3759 C.ar    1  UNL1        0.0934
     16 C          17.1776   44.0561    5.6742 C.ar    1  UNL1        0.1783
     17 C          18.2657   44.0843    7.9146 C.3     1  UNL1        0.1321
     18 N          17.1315   43.9891    7.0156 N.ar    1  UNL1       -0.3061
     19 N          15.9473   43.9331    5.1365 N.ar    1  UNL1       -0.2269
     20 N           7.5090   41.0242    9.2129 N.pl3   1  UNL1       -0.2834
     21 H           7.8995   40.7837   10.0841 H       1  UNL1        0.1550
     22 C           4.8099   44.8431    7.7507 C.3     1  UNL1        0.0521
     23 C           4.9400   43.5907    8.5398 C.ar    1  UNL1        0.0608
     24 C           6.2710   41.7450    9.2354 C.ar    1  UNL1        0.1328
     25 C           5.2115   41.2516   10.0013 C.ar    1  UNL1        0.0344
     26 C           4.0018   41.9478   10.0289 C.ar    1  UNL1        0.0041
     27 C           3.8610   43.1261    9.2944 C.ar    1  UNL1        0.0148
     28 N           6.1102   42.8977    8.5262 N.ar    1  UNL1       -0.2349
@<TRIPOS>BOND
     1    22    23    1
     2    24    28   ar
     3    24    20    1
     4    25    26   ar
     5    27    23   ar
     6     2     6   ar
     7     3     4   ar
     8     5     1   ar
     9     7     4    1
    10     7     8    1
    11     8     9    1
    12     9    10    1
    13    10    12    1
    14    11    12    1
    15    11     7    1
    16    13    12    1
    17    13    14    1
    18    14    19   ar
    19    15    18   ar
    20    17    18    1
    21    20     1    1
    22    18    16   ar
    23    23    28   ar
    24    24    25   ar
    25    26    27   ar
    26     1     6   ar
    27     2     3   ar
    28     4     5   ar
    29    14    15   ar
    30    16    19   ar
    31    20    21    1
@<TRIPOS>MOLECULE
MolPort-051-671-642 MCULE-8642234493 PubChem-110111879
 28 31 0 0 0
SMALL
GASTEIGER

@<TRIPOS>ATOM
      1 C          13.2645   40.9485    8.4964 C.ar    1  UNL1        0.1329
      2 C          13.4260   39.6302   10.4704 C.ar    1  UNL1        0.1000
      3 C          12.2869   40.2399   10.9983 C.ar    1  UNL1        0.0165
      4 C          11.6282   41.2249   10.2513 C.ar    1  UNL1       -0.0168
      5 C          12.1216   41.5797    8.9937 C.ar    1  UNL1        0.0302
      6 N          13.8864   39.9931    9.2435 N.ar    1  UNL1       -0.2291
      7 C          10.4045   41.9052   10.7755 C.3     1  UNL1        0.0385
      8 C           9.6009   40.9708   11.6848 C.3     1  UNL1        0.0072
      9 C           8.2755   41.6115   12.1037 C.3     1  UNL1        0.0177
     10 C           7.6014   42.3758   10.9555 C.3     1  UNL1        0.0724
     11 C           9.5607   42.4898    9.6274 C.3     1  UNL1        0.0767
     12 N           8.1787   42.0091    9.6627 N.3     1  UNL1       -0.2673
     13 C           7.4510   42.7497    8.6433 C.3     1  UNL1        0.1203
     14 C           5.9735   42.7055    8.8857 C.ar    1  UNL1        0.0940
     15 C           5.1940   41.5713    9.0131 C.ar    1  UNL1        0.0934
     16 C           3.9682   43.3517    9.2115 C.ar    1  UNL1        0.1783
     17 C           2.7692   41.1774    9.4082 C.3     1  UNL1        0.1321
     18 N           3.9425   42.0081    9.2167 N.ar    1  UNL1       -0.3061
     19 N           5.2176   43.8155    9.0075 N.ar    1  UNL1       -0.2269
     20 N          13.7595   41.3222    7.2051 N.pl3   1  UNL1       -0.2834
     21 H          13.5441   40.7217    6.4553 H       1  UNL1        0.1550
     22 C          17.8441   43.9592    7.8130 C.3     1  UNL1        0.0521
     23 C          16.5120   43.7845    7.1781 C.ar    1  UNL1        0.0608
     24 C          14.5377   42.4856    6.8996 C.ar    1  UNL1        0.1328
     25 C          14.0241   43.4319    6.0088 C.ar    1  UNL1        0.0344
     26 C          14.7758   44.5685    5.7057 C.ar    1  UNL1        0.0041
     27 C          16.0290   44.7498    6.2924 C.ar    1  UNL1        0.0148
     28 N          15.7641   42.6841    7.4603 N.ar    1  UNL1       -0.2349
@<TRIPOS>BOND
     1    22    23    1
     2    24    28   ar
     3    24    20    1
     4    25    26   ar
     5    27    23   ar
     6     2     6   ar
     7     3     4   ar
     8     5     1   ar
     9     7     4    1
    10     7     8    1
    11     8     9    1
    12     9    10    1
    13    10    12    1
    14    11    12    1
    15    11     7    1
    16    13    12    1
    17    13    14    1
    18    14    19   ar
    19    15    18   ar
    20    17    18    1
    21    20     1    1
    22    18    16   ar
    23    23    28   ar
    24    24    25   ar
    25    26    27   ar
    26     1     6   ar
    27     2     3   ar
    28     4     5   ar
    29    14    15   ar
    30    16    19   ar
    31    20    21    1
