@<TRIPOS>MOLECULE
MolPort-047-071-871 PubChem-132766136
 32 35 0 0 0
SMALL
GASTEIGER

@<TRIPOS>ATOM
      1 C          15.2055   39.3932   10.3469 C.ar    1  UNL1        0.1357
      2 C          15.3341   40.3944    9.3846 C.ar    1  UNL1        0.0492
      3 C          16.6087   40.8742    9.0844 C.ar    1  UNL1        0.0644
      4 C          17.5518   39.3887   10.6641 C.ar    1  UNL1        0.1406
      5 C          18.7486   38.8447   11.3567 C.3     1  UNL1        0.0737
      6 N          17.6931   40.3637    9.7292 N.ar    1  UNL1       -0.2348
      7 N          16.3168   38.9108   10.9669 N.ar    1  UNL1       -0.2159
      8 C          16.7684   41.9489    8.0612 C.3     1  UNL1        0.0603
      9 C          17.4226   43.1919    8.6730 C.3     1  UNL1        0.0094
     10 C          17.4588   44.3969    7.7192 C.3     1  UNL1        0.0220
     11 C          16.8271   44.1047    6.3581 C.3     1  UNL1        0.0937
     12 C          15.4199   42.2965    7.4281 C.3     1  UNL1        0.0996
     13 C          14.3587   44.0634    5.9484 C.2     1  UNL1        0.2492
     14 N          15.5265   43.4586    6.5382 N.am    1  UNL1       -0.2757
     15 O          14.4061   45.2676    5.5808 O.2     1  UNL1       -0.2699
     16 C          13.0919   43.3375    5.7364 C.2     1  UNL1        0.0595
     17 C          12.7999   42.1729    6.3057 C.2     1  UNL1        0.0232
     18 C          11.5238   41.4970    6.0609 C.ar    1  UNL1        0.0773
     19 C          11.3277   40.1403    6.1397 C.ar    1  UNL1        0.1175
     20 C           9.4891   41.1139    5.6083 C.ar    1  UNL1        0.1750
     21 N          10.0350   39.9038    5.8513 N.ar    1  UNL1       -0.2225
     22 N          10.3792   42.1187    5.7289 N.ar    1  UNL1       -0.3349
     23 H          10.2267   43.0832    5.6032 H       1  UNL1        0.1675
     24 N          13.9006   38.8933   10.6628 N.pl3   1  UNL1       -0.2833
     25 H          13.8574   38.0707   11.2020 H       1  UNL1        0.1550
     26 C          11.2022   42.8706    9.7122 C.3     1  UNL1        0.0521
     27 C          11.3212   41.3922    9.8016 C.ar    1  UNL1        0.0608
     28 C          10.2227   40.5840    9.5028 C.ar    1  UNL1        0.0148
     29 C          10.3537   39.1974    9.5925 C.ar    1  UNL1        0.0041
     30 C          11.5732   38.6376    9.9770 C.ar    1  UNL1        0.0344
     31 C          12.6525   39.4759   10.2690 C.ar    1  UNL1        0.1328
     32 N          12.5009   40.8271   10.1745 N.ar    1  UNL1       -0.2349
@<TRIPOS>BOND
     1    26    27    1
     2    27    32   ar
     3    28    29   ar
     4    30    31   ar
     5    31    24    1
     6     1     7   ar
     7     2     3   ar
     8     4     6   ar
     9     5     4    1
    10     8     3    1
    11     8     9    1
    12     9    10    1
    13    10    11    1
    14    11    14    1
    15    12    14    1
    16    12     8    1
    17    13    16    1
    18    17    18    1
    19    19    21   ar
    20    20    22   ar
    21    24     1    1
    22    14    13   am
    23    22    18   ar
    24    27    28   ar
    25    29    30   ar
    26    31    32   ar
    27     1     2   ar
    28     3     6   ar
    29     4     7   ar
    30    13    15    2
    31    16    17    2
    32    18    19   ar
    33    20    21   ar
    34    24    25    1
    35    22    23    1
@<TRIPOS>MOLECULE
MolPort-047-071-871 PubChem-132766136
 32 35 0 0 0
SMALL
GASTEIGER

@<TRIPOS>ATOM
      1 C          12.5007   42.1287    6.1992 C.ar    1  UNL1        0.1357
      2 C          12.3600   42.1736    7.5860 C.ar    1  UNL1        0.0492
      3 C          11.3760   41.3873    8.1846 C.ar    1  UNL1        0.0644
      4 C          10.7269   40.5662    6.0641 C.ar    1  UNL1        0.1406
      5 C           9.8452   39.6990    5.2405 C.3     1  UNL1        0.0737
      6 N          10.5779   40.5993    7.4137 N.ar    1  UNL1       -0.2348
      7 N          11.6814   41.3260    5.4666 N.ar    1  UNL1       -0.2159
      8 C          11.2053   41.4240    9.6668 C.3     1  UNL1        0.0603
      9 C          11.8414   40.1927   10.3200 C.3     1  UNL1        0.0094
     10 C          11.5519   40.0800   11.8254 C.3     1  UNL1        0.0220
     11 C          10.6820   41.2193   12.3567 C.3     1  UNL1        0.0937
     12 C           9.7254   41.5362   10.0375 C.3     1  UNL1        0.0996
     13 C           8.2004   41.3340   12.0551 C.2     1  UNL1        0.2492
     14 N           9.5221   41.4116   11.4855 N.am    1  UNL1       -0.2757
     15 O           8.0449   40.7935   13.1826 O.2     1  UNL1       -0.2699
     16 C           6.9992   41.8702   11.3871 C.2     1  UNL1        0.0595
     17 C           5.8490   41.2122   11.2884 C.2     1  UNL1        0.0232
     18 C           4.6862   41.7950   10.6150 C.ar    1  UNL1        0.0773
     19 C           3.3864   41.6578   11.0359 C.ar    1  UNL1        0.1175
     20 C           3.4540   42.8516    9.2524 C.ar    1  UNL1        0.1750
     21 N           2.6097   42.3302   10.1672 N.ar    1  UNL1       -0.2225
     22 N           4.7423   42.5412    9.4984 N.ar    1  UNL1       -0.3349
     23 H           5.5386   42.8006    8.9809 H       1  UNL1        0.1675
     24 N          13.5086   42.9325    5.5743 N.pl3   1  UNL1       -0.2833
     25 H          13.3020   43.2903    4.6807 H       1  UNL1        0.1550
     26 C          17.1371   41.9730    8.7235 C.3     1  UNL1        0.0521
     27 C          16.5639   42.8204    7.6459 C.ar    1  UNL1        0.0608
     28 C          17.2716   43.9297    7.1793 C.ar    1  UNL1        0.0148
     29 C          16.7170   44.7139    6.1666 C.ar    1  UNL1        0.0041
     30 C          15.4695   44.3827    5.6350 C.ar    1  UNL1        0.0344
     31 C          14.7882   43.2655    6.1254 C.ar    1  UNL1        0.1328
     32 N          15.3496   42.5147    7.1148 N.ar    1  UNL1       -0.2349
@<TRIPOS>BOND
     1    26    27    1
     2    27    32   ar
     3    28    29   ar
     4    30    31   ar
     5    31    24    1
     6     1     7   ar
     7     2     3   ar
     8     4     6   ar
     9     5     4    1
    10     8     3    1
    11     8     9    1
    12     9    10    1
    13    10    11    1
    14    11    14    1
    15    12    14    1
    16    12     8    1
    17    13    16    1
    18    17    18    1
    19    19    21   ar
    20    20    22   ar
    21    24     1    1
    22    14    13   am
    23    22    18   ar
    24    27    28   ar
    25    29    30   ar
    26    31    32   ar
    27     1     2   ar
    28     3     6   ar
    29     4     7   ar
    30    13    15    2
    31    16    17    2
    32    18    19   ar
    33    20    21   ar
    34    24    25    1
    35    22    23    1
@<TRIPOS>MOLECULE
MolPort-047-071-871 PubChem-132766136
 32 35 0 0 0
SMALL
GASTEIGER

@<TRIPOS>ATOM
      1 C          13.6191   40.9956    8.4334 C.ar    1  UNL1        0.1357
      2 C          14.7414   40.2656    8.8238 C.ar    1  UNL1        0.0492
      3 C          14.7132   39.5986   10.0482 C.ar    1  UNL1        0.0644
      4 C          12.5182   40.3865   10.4392 C.ar    1  UNL1        0.1406
      5 C          11.3167   40.4534   11.3109 C.3     1  UNL1        0.0737
      6 N          13.6037   39.6715   10.8330 N.ar    1  UNL1       -0.2348
      7 N          12.5305   41.0412    9.2490 N.ar    1  UNL1       -0.2159
      8 C          15.9055   38.8156   10.4873 C.3     1  UNL1        0.0603
      9 C          17.1744   39.6718   10.4234 C.3     1  UNL1        0.0094
     10 C          18.4626   38.8786   10.6960 C.3     1  UNL1        0.0220
     11 C          18.2086   37.3959   10.9683 C.3     1  UNL1        0.0937
     12 C          16.0588   37.5475    9.6455 C.3     1  UNL1        0.0996
     13 C          17.7451   35.7105    9.1775 C.2     1  UNL1        0.2492
     14 N          17.3115   36.8467    9.9511 N.am    1  UNL1       -0.2757
     15 O          18.9697   35.4153    9.1473 O.2     1  UNL1       -0.2699
     16 C          16.8200   34.8513    8.4142 C.2     1  UNL1        0.0595
     17 C          16.7211   33.5366    8.5798 C.2     1  UNL1        0.0232
     18 C          15.7821   32.7322    7.7949 C.ar    1  UNL1        0.0773
     19 C          14.7078   32.0526    8.3139 C.ar    1  UNL1        0.1175
     20 C          14.7992   31.7597    6.1887 C.ar    1  UNL1        0.1750
     21 N          14.0886   31.4377    7.2900 N.ar    1  UNL1       -0.2225
     22 N          15.8505   32.5569    6.4639 N.ar    1  UNL1       -0.3349
     23 H          16.5137   32.9251    5.8364 H       1  UNL1        0.1675
     24 N          13.6376   41.6846    7.1775 N.pl3   1  UNL1       -0.2833
     25 H          13.0008   41.3781    6.4921 H       1  UNL1        0.1550
     26 C          17.9200   44.0208    7.6324 C.3     1  UNL1        0.0521
     27 C          16.5660   43.9299    7.0273 C.ar    1  UNL1        0.0608
     28 C          16.1389   44.9035    6.1225 C.ar    1  UNL1        0.0148
     29 C          14.8637   44.8012    5.5645 C.ar    1  UNL1        0.0041
     30 C          14.0351   43.7338    5.9146 C.ar    1  UNL1        0.0344
     31 C          14.4943   42.7769    6.8236 C.ar    1  UNL1        0.1328
     32 N          15.7433   42.8976    7.3556 N.ar    1  UNL1       -0.2349
@<TRIPOS>BOND
     1    26    27    1
     2    27    32   ar
     3    28    29   ar
     4    30    31   ar
     5    31    24    1
     6     1     7   ar
     7     2     3   ar
     8     4     6   ar
     9     5     4    1
    10     8     3    1
    11     8     9    1
    12     9    10    1
    13    10    11    1
    14    11    14    1
    15    12    14    1
    16    12     8    1
    17    13    16    1
    18    17    18    1
    19    19    21   ar
    20    20    22   ar
    21    24     1    1
    22    14    13   am
    23    22    18   ar
    24    27    28   ar
    25    29    30   ar
    26    31    32   ar
    27     1     2   ar
    28     3     6   ar
    29     4     7   ar
    30    13    15    2
    31    16    17    2
    32    18    19   ar
    33    20    21   ar
    34    24    25    1
    35    22    23    1
@<TRIPOS>MOLECULE
MolPort-047-071-871 PubChem-132766136
 32 35 0 0 0
SMALL
GASTEIGER

@<TRIPOS>ATOM
      1 C          11.7957   41.6542    6.9732 C.ar    1  UNL1        0.1357
      2 C          12.4595   40.7747    7.8280 C.ar    1  UNL1        0.0492
      3 C          11.7120   40.0556    8.7602 C.ar    1  UNL1        0.0644
      4 C           9.7304   41.0839    7.9807 C.ar    1  UNL1        0.1406
      5 C           8.2563   41.2527    8.0623 C.3     1  UNL1        0.0737
      6 N          10.3627   40.2235    8.8200 N.ar    1  UNL1       -0.2348
      7 N          10.4448   41.7909    7.0669 N.ar    1  UNL1       -0.2159
      8 C          12.4031   39.1125    9.6878 C.3     1  UNL1        0.0603
      9 C          13.1422   39.8762   10.7914 C.3     1  UNL1        0.0094
     10 C          14.0166   38.9756   11.6788 C.3     1  UNL1        0.0220
     11 C          13.9712   37.5033   11.2699 C.3     1  UNL1        0.0937
     12 C          13.3610   38.2020    8.9175 C.3     1  UNL1        0.0996
     13 C          15.2451   36.5551    9.3359 C.2     1  UNL1        0.2492
     14 N          14.1683   37.3787    9.8253 N.am    1  UNL1       -0.2757
     15 O          16.1772   36.2285   10.1183 O.2     1  UNL1       -0.2699
     16 C          15.3144   36.0543    7.9499 C.2     1  UNL1        0.0595
     17 C          16.4412   35.6858    7.3496 C.2     1  UNL1        0.0232
     18 C          16.4510   35.1931    5.9704 C.ar    1  UNL1        0.0773
     19 C          17.5364   35.2355    5.1306 C.ar    1  UNL1        0.1175
     20 C          15.8665   34.3401    4.1204 C.ar    1  UNL1        0.1750
     21 N          17.1591   34.6931    3.9586 N.ar    1  UNL1       -0.2225
     22 N          15.3980   34.6340    5.3495 N.ar    1  UNL1       -0.3349
     23 H          14.4951   34.4760    5.7087 H       1  UNL1        0.1675
     24 N          12.5542   42.3978    6.0118 N.pl3   1  UNL1       -0.2833
     25 H          12.1740   42.4731    5.1067 H       1  UNL1        0.1550
     26 C          16.9768   42.4110    8.1197 C.3     1  UNL1        0.0521
     27 C          15.9661   43.0719    7.2541 C.ar    1  UNL1        0.0608
     28 C          16.2472   44.3097    6.6727 C.ar    1  UNL1        0.0148
     29 C          15.2853   44.9151    5.8627 C.ar    1  UNL1        0.0041
     30 C          14.0613   44.2807    5.6439 C.ar    1  UNL1        0.0344
     31 C          13.8128   43.0421    6.2414 C.ar    1  UNL1        0.1328
     32 N          14.7672   42.4702    7.0287 N.ar    1  UNL1       -0.2349
@<TRIPOS>BOND
     1    26    27    1
     2    27    32   ar
     3    28    29   ar
     4    30    31   ar
     5    31    24    1
     6     1     7   ar
     7     2     3   ar
     8     4     6   ar
     9     5     4    1
    10     8     3    1
    11     8     9    1
    12     9    10    1
    13    10    11    1
    14    11    14    1
    15    12    14    1
    16    12     8    1
    17    13    16    1
    18    17    18    1
    19    19    21   ar
    20    20    22   ar
    21    24     1    1
    22    14    13   am
    23    22    18   ar
    24    27    28   ar
    25    29    30   ar
    26    31    32   ar
    27     1     2   ar
    28     3     6   ar
    29     4     7   ar
    30    13    15    2
    31    16    17    2
    32    18    19   ar
    33    20    21   ar
    34    24    25    1
    35    22    23    1
@<TRIPOS>MOLECULE
MolPort-047-071-871 PubChem-132766136
 32 35 0 0 0
SMALL
GASTEIGER

@<TRIPOS>ATOM
      1 C           9.5665   41.5905    9.6841 C.ar    1  UNL1        0.1357
      2 C          10.7803   40.9352    9.4789 C.ar    1  UNL1        0.0492
      3 C          11.4560   40.4168   10.5832 C.ar    1  UNL1        0.0644
      4 C           9.7424   41.1994   12.0126 C.ar    1  UNL1        0.1406
      5 C           9.1806   41.3436   13.3806 C.3     1  UNL1        0.0737
      6 N          10.9257   40.5586   11.8286 N.ar    1  UNL1       -0.2348
      7 N           9.0723   41.7092   10.9466 N.ar    1  UNL1       -0.2159
      8 C          12.7589   39.7161   10.3865 C.3     1  UNL1        0.0603
      9 C          13.2947   39.1767   11.7167 C.3     1  UNL1        0.0094
     10 C          14.7144   38.5961   11.6145 C.3     1  UNL1        0.0220
     11 C          15.2993   38.6842   10.2049 C.3     1  UNL1        0.0937
     12 C          13.7773   40.6453    9.7235 C.3     1  UNL1        0.0996
     13 C          16.2615   40.7760    9.2245 C.2     1  UNL1        0.2492
     14 N          15.1093   40.0319    9.6674 N.am    1  UNL1       -0.2757
     15 O          17.4100   40.4133    9.5944 O.2     1  UNL1       -0.2699
     16 C          16.1727   41.9522    8.3383 C.2     1  UNL1        0.0595
     17 C          15.1555   42.1865    7.5160 C.2     1  UNL1        0.0232
     18 C          15.1186   43.3736    6.6589 C.ar    1  UNL1        0.0773
     19 C          14.3712   43.4901    5.5130 C.ar    1  UNL1        0.1175
     20 C          15.4692   45.3032    5.8558 C.ar    1  UNL1        0.1750
     21 N          14.5981   44.7164    5.0082 N.ar    1  UNL1       -0.2225
     22 N          15.8112   44.5032    6.8850 N.ar    1  UNL1       -0.3349
     23 H          16.4252   44.7002    7.6290 H       1  UNL1        0.1675
     24 N           8.8643   42.1268    8.5563 N.pl3   1  UNL1       -0.2833
     25 H           9.3458   42.1411    7.6977 H       1  UNL1        0.1550
     26 C           4.0643   41.4418    9.2599 C.3     1  UNL1        0.0521
     27 C           5.1926   42.3367    8.8940 C.ar    1  UNL1        0.0608
     28 C           4.9460   43.6688    8.5567 C.ar    1  UNL1        0.0148
     29 C           6.0186   44.4942    8.2157 C.ar    1  UNL1        0.0041
     30 C           7.3173   43.9823    8.2158 C.ar    1  UNL1        0.0344
     31 C           7.5284   42.6441    8.5586 C.ar    1  UNL1        0.1328
     32 N           6.4655   41.8571    8.8880 N.ar    1  UNL1       -0.2349
@<TRIPOS>BOND
     1    26    27    1
     2    27    32   ar
     3    28    29   ar
     4    30    31   ar
     5    31    24    1
     6     1     7   ar
     7     2     3   ar
     8     4     6   ar
     9     5     4    1
    10     8     3    1
    11     8     9    1
    12     9    10    1
    13    10    11    1
    14    11    14    1
    15    12    14    1
    16    12     8    1
    17    13    16    1
    18    17    18    1
    19    19    21   ar
    20    20    22   ar
    21    24     1    1
    22    14    13   am
    23    22    18   ar
    24    27    28   ar
    25    29    30   ar
    26    31    32   ar
    27     1     2   ar
    28     3     6   ar
    29     4     7   ar
    30    13    15    2
    31    16    17    2
    32    18    19   ar
    33    20    21   ar
    34    24    25    1
    35    22    23    1
@<TRIPOS>MOLECULE
MolPort-047-071-871 PubChem-132766136
 32 35 0 0 0
SMALL
GASTEIGER

@<TRIPOS>ATOM
      1 C          14.7913   42.7644    6.6559 C.ar    1  UNL1        0.1357
      2 C          14.7977   41.8436    7.7033 C.ar    1  UNL1        0.0492
      3 C          15.9540   41.7122    8.4717 C.ar    1  UNL1        0.0644
      4 C          17.0234   43.3680    7.1654 C.ar    1  UNL1        0.1406
      5 C          18.2250   44.1918    6.8731 C.3     1  UNL1        0.0737
      6 N          17.0447   42.4754    8.1889 N.ar    1  UNL1       -0.2348
      7 N          15.9042   43.5078    6.4084 N.ar    1  UNL1       -0.2159
      8 C          15.9838   40.7291    9.5943 C.3     1  UNL1        0.0603
      9 C          16.9251   39.5635    9.2741 C.3     1  UNL1        0.0094
     10 C          16.8709   38.4301   10.3111 C.3     1  UNL1        0.0220
     11 C          15.8816   38.7003   11.4449 C.3     1  UNL1        0.0937
     12 C          14.5743   40.2234    9.9069 C.3     1  UNL1        0.0996
     13 C          13.4058   38.4034   11.2334 C.2     1  UNL1        0.2492
     14 N          14.5983   39.1391   10.8955 N.am    1  UNL1       -0.2757
     15 O          13.5113   37.2405   11.7070 O.2     1  UNL1       -0.2699
     16 C          12.0449   38.9472   11.0638 C.2     1  UNL1        0.0595
     17 C          11.7063   40.2007   11.3462 C.2     1  UNL1        0.0232
     18 C          10.3384   40.6882   11.1561 C.ar    1  UNL1        0.0773
     19 C           9.6315   41.4194   12.0786 C.ar    1  UNL1        0.1175
     20 C           8.4337   41.1035   10.3247 C.ar    1  UNL1        0.1750
     21 N           8.4240   41.6795   11.5451 N.ar    1  UNL1       -0.2225
     22 N           9.5990   40.4835   10.0523 N.ar    1  UNL1       -0.3349
     23 H           9.8502   39.9948    9.2354 H       1  UNL1        0.1675
     24 N          13.6085   42.9073    5.8603 N.pl3   1  UNL1       -0.2833
     25 H          13.6449   43.5565    5.1211 H       1  UNL1        0.1550
     26 C          10.2787   39.7312    4.1786 C.3     1  UNL1        0.0521
     27 C          10.7464   40.6565    5.2429 C.ar    1  UNL1        0.0608
     28 C           9.9884   40.8262    6.4030 C.ar    1  UNL1        0.0148
     29 C          10.4439   41.6997    7.3917 C.ar    1  UNL1        0.0041
     30 C          11.6441   42.3893    7.2111 C.ar    1  UNL1        0.0344
     31 C          12.3779   42.1959    6.0376 C.ar    1  UNL1        0.1328
     32 N          11.9132   41.3378    5.0861 N.ar    1  UNL1       -0.2349
@<TRIPOS>BOND
     1    26    27    1
     2    27    32   ar
     3    28    29   ar
     4    30    31   ar
     5    31    24    1
     6     1     7   ar
     7     2     3   ar
     8     4     6   ar
     9     5     4    1
    10     8     3    1
    11     8     9    1
    12     9    10    1
    13    10    11    1
    14    11    14    1
    15    12    14    1
    16    12     8    1
    17    13    16    1
    18    17    18    1
    19    19    21   ar
    20    20    22   ar
    21    24     1    1
    22    14    13   am
    23    22    18   ar
    24    27    28   ar
    25    29    30   ar
    26    31    32   ar
    27     1     2   ar
    28     3     6   ar
    29     4     7   ar
    30    13    15    2
    31    16    17    2
    32    18    19   ar
    33    20    21   ar
    34    24    25    1
    35    22    23    1
@<TRIPOS>MOLECULE
MolPort-047-071-871 PubChem-132766136
 32 35 0 0 0
SMALL
GASTEIGER

@<TRIPOS>ATOM
      1 C           9.8895   41.3148    9.6572 C.ar    1  UNL1        0.1357
      2 C          11.1111   40.6713    9.4606 C.ar    1  UNL1        0.0492
      3 C          11.8428   40.2689   10.5775 C.ar    1  UNL1        0.0644
      4 C          10.1667   41.1372   12.0018 C.ar    1  UNL1        0.1406
      5 C           9.6555   41.3903   13.3739 C.3     1  UNL1        0.0737
      6 N          11.3582   40.5093   11.8264 N.ar    1  UNL1       -0.2348
      7 N           9.4423   41.5346   10.9236 N.ar    1  UNL1       -0.2159
      8 C          13.1548   39.5829   10.3896 C.3     1  UNL1        0.0603
      9 C          13.6689   39.0156   11.7168 C.3     1  UNL1        0.0094
     10 C          15.0949   38.4482   11.6287 C.3     1  UNL1        0.0220
     11 C          15.7064   38.5747   10.2333 C.3     1  UNL1        0.0937
     12 C          14.1785   40.5354    9.7693 C.3     1  UNL1        0.0996
     13 C          16.6708   40.6967    9.3224 C.2     1  UNL1        0.2492
     14 N          15.5161   39.9335    9.7246 N.am    1  UNL1       -0.2757
     15 O          17.8148   40.3338    9.7060 O.2     1  UNL1       -0.2699
     16 C          16.5899   41.8931    8.4630 C.2     1  UNL1        0.0595
     17 C          15.4897   42.2735    7.8224 C.2     1  UNL1        0.0232
     18 C          15.4658   43.4735    6.9830 C.ar    1  UNL1        0.0773
     19 C          16.5687   44.2226    6.6548 C.ar    1  UNL1        0.1175
     20 C          14.8148   45.0723    5.7536 C.ar    1  UNL1        0.1750
     21 N          16.1490   45.2354    5.8749 N.ar    1  UNL1       -0.2225
     22 N          14.3601   43.9953    6.4243 N.ar    1  UNL1       -0.3349
     23 H          13.4342   43.6673    6.4897 H       1  UNL1        0.1675
     24 N           9.1299   41.7324    8.5165 N.pl3   1  UNL1       -0.2833
     25 H           8.7419   42.6367    8.5467 H       1  UNL1        0.1550
     26 C          10.6196   40.0758    4.1530 C.3     1  UNL1        0.0521
     27 C           9.5816   40.1421    5.2140 C.ar    1  UNL1        0.0608
     28 C           8.3767   39.4549    5.0557 C.ar    1  UNL1        0.0148
     29 C           7.4136   39.5291    6.0632 C.ar    1  UNL1        0.0041
     30 C           7.6640   40.2843    7.2102 C.ar    1  UNL1        0.0344
     31 C           8.8809   40.9597    7.3362 C.ar    1  UNL1        0.1328
     32 N           9.8062   40.8726    6.3392 N.ar    1  UNL1       -0.2349
@<TRIPOS>BOND
     1    26    27    1
     2    27    32   ar
     3    28    29   ar
     4    30    31   ar
     5    31    24    1
     6     1     7   ar
     7     2     3   ar
     8     4     6   ar
     9     5     4    1
    10     8     3    1
    11     8     9    1
    12     9    10    1
    13    10    11    1
    14    11    14    1
    15    12    14    1
    16    12     8    1
    17    13    16    1
    18    17    18    1
    19    19    21   ar
    20    20    22   ar
    21    24     1    1
    22    14    13   am
    23    22    18   ar
    24    27    28   ar
    25    29    30   ar
    26    31    32   ar
    27     1     2   ar
    28     3     6   ar
    29     4     7   ar
    30    13    15    2
    31    16    17    2
    32    18    19   ar
    33    20    21   ar
    34    24    25    1
    35    22    23    1
@<TRIPOS>MOLECULE
MolPort-047-071-871 PubChem-132766136
 32 35 0 0 0
SMALL
GASTEIGER

@<TRIPOS>ATOM
      1 C          13.1972   42.0934    6.8454 C.ar    1  UNL1        0.1357
      2 C          14.0320   41.4359    7.7486 C.ar    1  UNL1        0.0492
      3 C          15.2911   41.9752    8.0107 C.ar    1  UNL1        0.0644
      4 C          14.8556   43.7495    6.5093 C.ar    1  UNL1        0.1406
      5 C          15.2993   44.9989    5.8385 C.3     1  UNL1        0.0737
      6 N          15.6799   43.1204    7.3866 N.ar    1  UNL1       -0.2348
      7 N          13.6260   43.2367    6.2442 N.ar    1  UNL1       -0.2159
      8 C          16.2021   41.2848    8.9703 C.3     1  UNL1        0.0603
      9 C          17.6300   41.2223    8.4184 C.3     1  UNL1        0.0094
     10 C          18.5815   40.3734    9.2768 C.3     1  UNL1        0.0220
     11 C          17.9012   39.7619   10.5017 C.3     1  UNL1        0.0937
     12 C          15.6809   39.8844    9.2978 C.3     1  UNL1        0.0996
     13 C          16.4362   37.7350   10.4143 C.2     1  UNL1        0.2492
     14 N          16.6412   39.1289   10.1106 N.am    1  UNL1       -0.2757
     15 O          17.4283   37.0134   10.7019 O.2     1  UNL1       -0.2699
     16 C          15.1067   37.0954   10.4187 C.2     1  UNL1        0.0595
     17 C          13.9678   37.7526   10.6106 C.2     1  UNL1        0.0232
     18 C          12.6741   37.0660   10.6024 C.ar    1  UNL1        0.0773
     19 C          11.5405   37.5371    9.9874 C.ar    1  UNL1        0.1175
     20 C          11.1305   35.6507   10.9276 C.ar    1  UNL1        0.1750
     21 N          10.5649   36.6349   10.1976 N.ar    1  UNL1       -0.2225
     22 N          12.4306   35.8843   11.1952 N.ar    1  UNL1       -0.3349
     23 H          13.0561   35.3209   11.7057 H       1  UNL1        0.1675
     24 N          11.9016   41.5479    6.5691 N.pl3   1  UNL1       -0.2833
     25 H          11.7543   41.1862    5.6654 H       1  UNL1        0.1550
     26 C          10.2171   40.8968   11.1235 C.3     1  UNL1        0.0521
     27 C           9.9571   41.1658    9.6855 C.ar    1  UNL1        0.0608
     28 C           8.6483   41.3483    9.2350 C.ar    1  UNL1        0.0148
     29 C           8.4238   41.6000    7.8807 C.ar    1  UNL1        0.0041
     30 C           9.5027   41.6660    6.9975 C.ar    1  UNL1        0.0344
     31 C          10.8000   41.4784    7.4822 C.ar    1  UNL1        0.1328
     32 N          10.9948   41.2339    8.8088 N.ar    1  UNL1       -0.2349
@<TRIPOS>BOND
     1    26    27    1
     2    27    32   ar
     3    28    29   ar
     4    30    31   ar
     5    31    24    1
     6     1     7   ar
     7     2     3   ar
     8     4     6   ar
     9     5     4    1
    10     8     3    1
    11     8     9    1
    12     9    10    1
    13    10    11    1
    14    11    14    1
    15    12    14    1
    16    12     8    1
    17    13    16    1
    18    17    18    1
    19    19    21   ar
    20    20    22   ar
    21    24     1    1
    22    14    13   am
    23    22    18   ar
    24    27    28   ar
    25    29    30   ar
    26    31    32   ar
    27     1     2   ar
    28     3     6   ar
    29     4     7   ar
    30    13    15    2
    31    16    17    2
    32    18    19   ar
    33    20    21   ar
    34    24    25    1
    35    22    23    1
@<TRIPOS>MOLECULE
MolPort-047-071-871 PubChem-132766136
 32 35 0 0 0
SMALL
GASTEIGER

@<TRIPOS>ATOM
      1 C          14.9334   39.9783    9.6018 C.ar    1  UNL1        0.1357
      2 C          13.7581   40.7290    9.6120 C.ar    1  UNL1        0.0492
      3 C          12.5844   40.1283   10.0665 C.ar    1  UNL1        0.0644
      4 C          13.7580   38.1156   10.4705 C.ar    1  UNL1        0.1406
      5 C          13.7596   36.7035   10.9333 C.3     1  UNL1        0.0737
      6 N          12.6054   38.8339   10.4864 N.ar    1  UNL1       -0.2348
      7 N          14.9094   38.6870   10.0312 N.ar    1  UNL1       -0.2159
      8 C          11.3145   40.9123   10.0812 C.3     1  UNL1        0.0603
      9 C          10.5932   40.7574   11.4241 C.3     1  UNL1        0.0094
     10 C           9.1958   41.3975   11.4458 C.3     1  UNL1        0.0220
     11 C           8.8138   42.0510   10.1176 C.3     1  UNL1        0.0937
     12 C          10.4078   40.4938    8.9224 C.3     1  UNL1        0.0996
     13 C           8.0188   40.7764    8.1162 C.2     1  UNL1        0.2492
     14 N           9.0905   41.1344    9.0110 N.am    1  UNL1       -0.2757
     15 O           6.8263   40.9783    8.4693 O.2     1  UNL1       -0.2699
     16 C           8.2420   40.1867    6.7824 C.2     1  UNL1        0.0595
     17 C           9.3932   39.6502    6.3915 C.2     1  UNL1        0.0232
     18 C           9.5580   39.0760    5.0542 C.ar    1  UNL1        0.0773
     19 C           9.4776   39.7853    3.8813 C.ar    1  UNL1        0.1175
     20 C           9.8817   37.7192    3.4587 C.ar    1  UNL1        0.1750
     21 N           9.6836   38.9188    2.8729 N.ar    1  UNL1       -0.2225
     22 N           9.8111   37.7799    4.8032 N.ar    1  UNL1       -0.3349
     23 H           9.9197   37.0462    5.4506 H       1  UNL1        0.1675
     24 N          16.1447   40.5858    9.1369 N.pl3   1  UNL1       -0.2833
     25 H          16.9825   40.0995    9.3125 H       1  UNL1        0.1550
     26 C          14.3850   43.7608    5.8465 C.3     1  UNL1        0.0521
     27 C          15.4188   43.3916    6.8478 C.ar    1  UNL1        0.0608
     28 C          16.4838   44.2574    7.1034 C.ar    1  UNL1        0.0148
     29 C          17.4452   43.8934    8.0474 C.ar    1  UNL1        0.0041
     30 C          17.3321   42.6761    8.7212 C.ar    1  UNL1        0.0344
     31 C          16.2533   41.8332    8.4409 C.ar    1  UNL1        0.1328
     32 N          15.3268   42.2098    7.5150 N.ar    1  UNL1       -0.2349
@<TRIPOS>BOND
     1    26    27    1
     2    27    32   ar
     3    28    29   ar
     4    30    31   ar
     5    31    24    1
     6     1     7   ar
     7     2     3   ar
     8     4     6   ar
     9     5     4    1
    10     8     3    1
    11     8     9    1
    12     9    10    1
    13    10    11    1
    14    11    14    1
    15    12    14    1
    16    12     8    1
    17    13    16    1
    18    17    18    1
    19    19    21   ar
    20    20    22   ar
    21    24     1    1
    22    14    13   am
    23    22    18   ar
    24    27    28   ar
    25    29    30   ar
    26    31    32   ar
    27     1     2   ar
    28     3     6   ar
    29     4     7   ar
    30    13    15    2
    31    16    17    2
    32    18    19   ar
    33    20    21   ar
    34    24    25    1
    35    22    23    1
@<TRIPOS>MOLECULE
MolPort-047-071-871 PubChem-132766136
 32 35 0 0 0
SMALL
GASTEIGER

@<TRIPOS>ATOM
      1 C          13.5080   40.7695    8.1494 C.ar    1  UNL1        0.1357
      2 C          14.6571   40.1417    8.6293 C.ar    1  UNL1        0.0492
      3 C          14.5594   39.3515    9.7743 C.ar    1  UNL1        0.0644
      4 C          12.2474   39.8268    9.9181 C.ar    1  UNL1        0.1406
      5 C          10.9451   39.6583   10.6134 C.3     1  UNL1        0.0737
      6 N          13.3579   39.2091   10.3975 N.ar    1  UNL1       -0.2348
      7 N          12.3267   40.5992    8.8034 N.ar    1  UNL1       -0.2159
      8 C          15.7780   38.6747   10.3075 C.3     1  UNL1        0.0603
      9 C          16.8408   39.7021   10.7102 C.3     1  UNL1        0.0094
     10 C          18.1852   39.0697   11.1048 C.3     1  UNL1        0.0220
     11 C          18.1831   37.5442   11.0066 C.3     1  UNL1        0.0937
     12 C          16.3361   37.6830    9.2851 C.3     1  UNL1        0.0996
     13 C          18.4103   36.2867    8.8549 C.2     1  UNL1        0.2492
     14 N          17.6217   37.1260    9.7216 N.am    1  UNL1       -0.2757
     15 O          19.6522   36.1950    9.0472 O.2     1  UNL1       -0.2699
     16 C          17.8354   35.5063    7.7427 C.2     1  UNL1        0.0595
     17 C          16.5608   35.5704    7.3724 C.2     1  UNL1        0.0232
     18 C          16.0440   34.7735    6.2576 C.ar    1  UNL1        0.0773
     19 C          15.9919   33.4017    6.2325 C.ar    1  UNL1        0.1175
     20 C          15.2028   34.1956    4.4002 C.ar    1  UNL1        0.1750
     21 N          15.4575   33.0414    5.0516 N.ar    1  UNL1       -0.2225
     22 N          15.5522   35.2834    5.1151 N.ar    1  UNL1       -0.3349
     23 H          15.4670   36.2305    4.8602 H       1  UNL1        0.1675
     24 N          13.5974   41.5834    6.9738 N.pl3   1  UNL1       -0.2833
     25 H          12.9432   41.4073    6.2595 H       1  UNL1        0.1550
     26 C          17.9160   43.6755    7.9619 C.3     1  UNL1        0.0521
     27 C          16.6402   43.6641    7.2005 C.ar    1  UNL1        0.0608
     28 C          16.3765   44.6665    6.2652 C.ar    1  UNL1        0.0148
     29 C          15.1726   44.6391    5.5596 C.ar    1  UNL1        0.0041
     30 C          14.2518   43.6167    5.7950 C.ar    1  UNL1        0.0344
     31 C          14.5478   42.6291    6.7384 C.ar    1  UNL1        0.1328
     32 N          15.7298   42.6766    7.4153 N.ar    1  UNL1       -0.2349
@<TRIPOS>BOND
     1    26    27    1
     2    27    32   ar
     3    28    29   ar
     4    30    31   ar
     5    31    24    1
     6     1     7   ar
     7     2     3   ar
     8     4     6   ar
     9     5     4    1
    10     8     3    1
    11     8     9    1
    12     9    10    1
    13    10    11    1
    14    11    14    1
    15    12    14    1
    16    12     8    1
    17    13    16    1
    18    17    18    1
    19    19    21   ar
    20    20    22   ar
    21    24     1    1
    22    14    13   am
    23    22    18   ar
    24    27    28   ar
    25    29    30   ar
    26    31    32   ar
    27     1     2   ar
    28     3     6   ar
    29     4     7   ar
    30    13    15    2
    31    16    17    2
    32    18    19   ar
    33    20    21   ar
    34    24    25    1
    35    22    23    1
