@<TRIPOS>MOLECULE
MolPort-005-095-744 CSSS00159509504 MCULE-3732932308 PubChem-45218315
 37 41 0 0 0
SMALL
GASTEIGER

@<TRIPOS>ATOM
      1 N           7.0528   43.4625    8.8536 N.am    1  UNL1       -0.2779
      2 N          11.2159   41.0373    9.9342 N.3     1  UNL1       -0.2689
      3 C           5.6224   43.3346    8.8181 C.2     1  UNL1        0.2505
      4 C           7.6717   44.7871    8.9015 C.3     1  UNL1        0.0935
      5 C           8.8394   44.7775    9.8814 C.3     1  UNL1        0.0216
      6 C           9.8100   43.6503    9.5259 C.3     1  UNL1        0.0047
      7 C           9.1140   42.2773    9.5280 C.3     1  UNL1        0.0331
      8 C           8.6432   41.8952   10.9408 C.3     1  UNL1        0.0044
      9 C           9.8187   41.5745   11.8630 C.3     1  UNL1        0.0174
     10 C          10.7056   40.5224   11.2028 C.3     1  UNL1        0.0724
     11 C          10.0877   41.2082    9.0160 C.3     1  UNL1        0.0739
     12 C           7.9087   42.3049    8.5828 C.3     1  UNL1        0.0947
     13 O           4.8894   44.3533    8.9478 O.2     1  UNL1       -0.2727
     14 C           4.9739   41.9940    8.6703 C.3     1  UNL1        0.2121
     15 N           4.3122   41.6143    9.9080 N.ar    1  UNL1       -0.2387
     16 N           4.3061   40.3811   10.3963 N.ar    1  UNL1       -0.1658
     17 C           3.6506   42.4590   10.7174 C.ar    1  UNL1        0.1119
     18 C           3.2099   41.6878   11.7761 C.ar    1  UNL1        0.0907
     19 C           3.6268   40.3897   11.5591 C.ar    1  UNL1        0.1363
     20 N           2.4418   42.1204   12.9050 N.am    1  UNL1       -0.2778
     21 C           1.0265   42.3643   12.9134 C.2     1  UNL1        0.2518
     22 O           0.3506   42.2202   11.8576 O.2     1  UNL1       -0.2697
     23 H           2.9269   42.2631   13.7497 H       1  UNL1        0.1553
     24 C           0.3670   42.7750   14.1722 C.ar    1  UNL1        0.0811
     25 C           0.6501   44.0419   14.7049 C.ar    1  UNL1        0.0068
     26 C           0.0495   44.4690   15.8904 C.ar    1  UNL1        0.0003
     27 C          -0.8493   43.6351   16.5561 C.ar    1  UNL1        0.0023
     28 C          -1.1428   42.3720   16.0400 C.ar    1  UNL1        0.0298
     29 C          -0.5398   41.9361   14.8556 C.ar    1  UNL1        0.1445
     30 F          -0.8408   40.6976   14.3920 F       1  UNL1       -0.2040
     31 C          12.0636   39.9990    9.3676 C.3     1  UNL1        0.0991
     32 C          13.3756   40.5785    8.9599 C.ar    1  UNL1       -0.0061
     33 C          13.4266   41.5240    7.9292 C.ar    1  UNL1       -0.0029
     34 C          14.6545   42.0785    7.5480 C.ar    1  UNL1       -0.0003
     35 C          15.8313   41.6904    8.1974 C.ar    1  UNL1       -0.0000
     36 C          15.7808   40.7490    9.2304 C.ar    1  UNL1       -0.0003
     37 C          14.5547   40.1941    9.6131 C.ar    1  UNL1       -0.0029
@<TRIPOS>BOND
     1    15    17   ar
     2    15    16   ar
     3    20    21   am
     4    18    19   ar
     5    18    20    1
     6    21    24    1
     7    25    26   ar
     8    27    28   ar
     9    29    30    1
    10    29    24   ar
    11    14    15    1
    12    14     3    1
    13     3     1   am
    14     4     1    1
    15     4     5    1
    16     5     6    1
    17     7     6    1
    18     7     8    1
    19     7    12    1
    20     8     9    1
    21     9    10    1
    22    10     2    1
    23    31     2    1
    24    31    32    1
    25    33    34   ar
    26    35    36   ar
    27    37    32   ar
    28    11     2    1
    29    11     7    1
    30    12     1    1
    31    17    18   ar
    32    19    16   ar
    33    21    22    2
    34    24    25   ar
    35    26    27   ar
    36    28    29   ar
    37     3    13    2
    38    32    33   ar
    39    34    35   ar
    40    36    37   ar
    41    20    23    1
@<TRIPOS>MOLECULE
MolPort-005-095-744 CSSS00159509504 MCULE-3732932308 PubChem-45218315
 37 41 0 0 0
SMALL
GASTEIGER

@<TRIPOS>ATOM
      1 N           9.7460   41.0411    9.2664 N.am    1  UNL1       -0.2779
      2 N          13.3881   37.7246    9.6068 N.3     1  UNL1       -0.2689
      3 C           8.5570   41.3735    8.5320 C.2     1  UNL1        0.2505
      4 C           9.9618   41.5917   10.6044 C.3     1  UNL1        0.0935
      5 C          10.5263   40.5136   11.5226 C.3     1  UNL1        0.0216
      6 C          11.7768   39.8959   10.8954 C.3     1  UNL1        0.0047
      7 C          11.4825   39.2992    9.5072 C.3     1  UNL1        0.0331
      8 C          10.5204   38.1043    9.6087 C.3     1  UNL1        0.0044
      9 C          11.1872   36.8928   10.2589 C.3     1  UNL1        0.0174
     10 C          12.4872   36.5774    9.5239 C.3     1  UNL1        0.0724
     11 C          12.7938   38.8356    8.8600 C.3     1  UNL1        0.0739
     12 C          10.8660   40.3702    8.6019 C.3     1  UNL1        0.0947
     13 O           7.6382   42.0434    9.0787 O.2     1  UNL1       -0.2727
     14 C           8.3645   40.8997    7.1255 C.3     1  UNL1        0.2121
     15 N           9.5913   41.0688    6.3637 N.ar    1  UNL1       -0.2387
     16 N           9.7372   40.6896    5.1011 N.ar    1  UNL1       -0.1658
     17 C          10.7126   41.6454    6.8289 C.ar    1  UNL1        0.1119
     18 C          11.6070   41.6179    5.7758 C.ar    1  UNL1        0.0907
     19 C          10.9817   41.0150    4.7026 C.ar    1  UNL1        0.1363
     20 N          12.9544   42.1035    5.7678 N.am    1  UNL1       -0.2778
     21 C          13.6929   42.5485    6.9163 C.2     1  UNL1        0.2518
     22 O          13.1525   42.5531    8.0566 O.2     1  UNL1       -0.2697
     23 H          13.4150   42.1349    4.8982 H       1  UNL1        0.1553
     24 C          15.0951   42.9907    6.7526 C.ar    1  UNL1        0.0811
     25 C          16.0648   42.5192    7.6505 C.ar    1  UNL1        0.0068
     26 C          17.3992   42.9115    7.5319 C.ar    1  UNL1        0.0003
     27 C          17.7828   43.7768    6.5069 C.ar    1  UNL1        0.0023
     28 C          16.8314   44.2550    5.6047 C.ar    1  UNL1        0.0298
     29 C          15.4917   43.8702    5.7220 C.ar    1  UNL1        0.1445
     30 F          14.5944   44.3655    4.8338 F       1  UNL1       -0.2040
     31 C          14.6086   37.3544    8.9060 C.3     1  UNL1        0.0991
     32 C          15.7904   37.9544    9.5892 C.ar    1  UNL1       -0.0061
     33 C          16.8641   37.1382    9.9637 C.ar    1  UNL1       -0.0029
     34 C          17.9806   37.6972   10.5974 C.ar    1  UNL1       -0.0003
     35 C          18.0259   39.0714   10.8554 C.ar    1  UNL1       -0.0000
     36 C          16.9555   39.8884   10.4777 C.ar    1  UNL1       -0.0003
     37 C          15.8391   39.3319    9.8439 C.ar    1  UNL1       -0.0029
@<TRIPOS>BOND
     1    15    17   ar
     2    15    16   ar
     3    20    21   am
     4    18    19   ar
     5    18    20    1
     6    21    24    1
     7    25    26   ar
     8    27    28   ar
     9    29    30    1
    10    29    24   ar
    11    14    15    1
    12    14     3    1
    13     3     1   am
    14     4     1    1
    15     4     5    1
    16     5     6    1
    17     7     6    1
    18     7     8    1
    19     7    12    1
    20     8     9    1
    21     9    10    1
    22    10     2    1
    23    31     2    1
    24    31    32    1
    25    33    34   ar
    26    35    36   ar
    27    37    32   ar
    28    11     2    1
    29    11     7    1
    30    12     1    1
    31    17    18   ar
    32    19    16   ar
    33    21    22    2
    34    24    25   ar
    35    26    27   ar
    36    28    29   ar
    37     3    13    2
    38    32    33   ar
    39    34    35   ar
    40    36    37   ar
    41    20    23    1
@<TRIPOS>MOLECULE
MolPort-005-095-744 CSSS00159509504 MCULE-3732932308 PubChem-45218315
 37 41 0 0 0
SMALL
GASTEIGER

@<TRIPOS>ATOM
      1 N          16.0407   36.6469    9.8945 N.am    1  UNL1       -0.2779
      2 N          16.2176   34.0228    5.7156 N.3     1  UNL1       -0.2689
      3 C          15.1967   36.9838   11.0071 C.2     1  UNL1        0.2505
      4 C          17.4916   36.8009    9.9991 C.3     1  UNL1        0.0935
      5 C          18.1864   35.6057    9.3567 C.3     1  UNL1        0.0216
      6 C          17.6829   35.4165    7.9251 C.3     1  UNL1        0.0047
      7 C          16.1566   35.2212    7.8791 C.3     1  UNL1        0.0331
      8 C          15.7433   33.9099    8.5669 C.3     1  UNL1        0.0044
      9 C          16.1706   32.6859    7.7580 C.3     1  UNL1        0.0174
     10 C          15.6552   32.8212    6.3278 C.3     1  UNL1        0.0724
     11 C          15.6872   35.1930    6.4189 C.3     1  UNL1        0.0739
     12 C          15.4617   36.3975    8.5722 C.3     1  UNL1        0.0947
     13 O          15.7048   37.3003   12.1178 O.2     1  UNL1       -0.2727
     14 C          13.7062   36.9262   10.8864 C.3     1  UNL1        0.2121
     15 N          13.2121   38.0939   10.1748 N.ar    1  UNL1       -0.2387
     16 N          11.9286   38.4149   10.0797 N.ar    1  UNL1       -0.1658
     17 C          13.9852   38.9986    9.5502 C.ar    1  UNL1        0.1119
     18 C          13.1128   39.9401    9.0382 C.ar    1  UNL1        0.0907
     19 C          11.8296   39.5594    9.3768 C.ar    1  UNL1        0.1363
     20 N          13.4434   41.1057    8.2743 N.am    1  UNL1       -0.2778
     21 C          14.7678   41.6128    8.0477 C.2     1  UNL1        0.2518
     22 O          15.7660   41.0332    8.5576 O.2     1  UNL1       -0.2697
     23 H          12.6968   41.6031    7.8687 H       1  UNL1        0.1553
     24 C          14.9522   42.8132    7.2031 C.ar    1  UNL1        0.0811
     25 C          13.9307   43.1812    6.3143 C.ar    1  UNL1        0.0068
     26 C          14.0639   44.3066    5.4992 C.ar    1  UNL1        0.0003
     27 C          15.2202   45.0842    5.5682 C.ar    1  UNL1        0.0023
     28 C          16.2458   44.7330    6.4470 C.ar    1  UNL1        0.0298
     29 C          16.1208   43.6031    7.2620 C.ar    1  UNL1        0.1445
     30 F          17.1439   43.2871    8.0943 F       1  UNL1       -0.2040
     31 C          15.7041   34.0834    4.3553 C.3     1  UNL1        0.0991
     32 C          16.6996   34.7450    3.4639 C.ar    1  UNL1       -0.0061
     33 C          16.9008   36.1273    3.5534 C.ar    1  UNL1       -0.0029
     34 C          17.8408   36.7529    2.7254 C.ar    1  UNL1       -0.0003
     35 C          18.5812   35.9982    1.8093 C.ar    1  UNL1       -0.0000
     36 C          18.3840   34.6164    1.7221 C.ar    1  UNL1       -0.0003
     37 C          17.4456   33.9891    2.5491 C.ar    1  UNL1       -0.0029
@<TRIPOS>BOND
     1    15    17   ar
     2    15    16   ar
     3    20    21   am
     4    18    19   ar
     5    18    20    1
     6    21    24    1
     7    25    26   ar
     8    27    28   ar
     9    29    30    1
    10    29    24   ar
    11    14    15    1
    12    14     3    1
    13     3     1   am
    14     4     1    1
    15     4     5    1
    16     5     6    1
    17     7     6    1
    18     7     8    1
    19     7    12    1
    20     8     9    1
    21     9    10    1
    22    10     2    1
    23    31     2    1
    24    31    32    1
    25    33    34   ar
    26    35    36   ar
    27    37    32   ar
    28    11     2    1
    29    11     7    1
    30    12     1    1
    31    17    18   ar
    32    19    16   ar
    33    21    22    2
    34    24    25   ar
    35    26    27   ar
    36    28    29   ar
    37     3    13    2
    38    32    33   ar
    39    34    35   ar
    40    36    37   ar
    41    20    23    1
@<TRIPOS>MOLECULE
MolPort-005-095-744 CSSS00159509504 MCULE-3732932308 PubChem-45218315
 37 41 0 0 0
SMALL
GASTEIGER

@<TRIPOS>ATOM
      1 N           6.4507   41.3495   10.1088 N.am    1  UNL1       -0.2779
      2 N           8.8246   41.7157    5.7947 N.3     1  UNL1       -0.2689
      3 C           6.2924   41.9753   11.3921 C.2     1  UNL1        0.2505
      4 C           5.4212   40.4429    9.6008 C.3     1  UNL1        0.0935
      5 C           5.1883   40.7040    8.1170 C.3     1  UNL1        0.0216
      6 C           6.5142   40.6263    7.3588 C.3     1  UNL1        0.0047
      7 C           7.5455   41.6272    7.9105 C.3     1  UNL1        0.0331
      8 C           7.0950   43.0776    7.6714 C.3     1  UNL1        0.0044
      9 C           7.1567   43.4541    6.1917 C.3     1  UNL1        0.0174
     10 C           8.5492   43.1433    5.6496 C.3     1  UNL1        0.0724
     11 C           8.8981   41.4007    7.2232 C.3     1  UNL1        0.0739
     12 C           7.7389   41.3981    9.4128 C.3     1  UNL1        0.0947
     13 O           5.2153   41.8428   12.0357 O.2     1  UNL1       -0.2727
     14 C           7.3779   42.8275   11.9709 C.3     1  UNL1        0.2121
     15 N           8.6737   42.4096   11.4607 N.ar    1  UNL1       -0.2387
     16 N           9.4001   43.1232   10.6109 N.ar    1  UNL1       -0.1658
     17 C           9.3035   41.2717   11.7995 C.ar    1  UNL1        0.1119
     18 C          10.5003   41.2917   11.1089 C.ar    1  UNL1        0.0907
     19 C          10.5445   42.4561   10.3684 C.ar    1  UNL1        0.1363
     20 N          11.5272   40.2933   11.1218 N.am    1  UNL1       -0.2778
     21 C          12.5966   40.1769   10.1701 C.2     1  UNL1        0.2518
     22 O          12.6789   40.9855    9.2049 O.2     1  UNL1       -0.2697
     23 H          11.4974   39.6281   11.8470 H       1  UNL1        0.1553
     24 C          13.6059   39.1085   10.3376 C.ar    1  UNL1        0.0811
     25 C          14.2463   38.9681   11.5781 C.ar    1  UNL1        0.0068
     26 C          15.2047   37.9733   11.7790 C.ar    1  UNL1        0.0003
     27 C          15.5304   37.0997   10.7411 C.ar    1  UNL1        0.0023
     28 C          14.9028   37.2247    9.5009 C.ar    1  UNL1        0.0298
     29 C          13.9459   38.2233    9.2918 C.ar    1  UNL1        0.1445
     30 F          13.3667   38.3210    8.0693 F       1  UNL1       -0.2040
     31 C          10.1523   41.4840    5.2459 C.3     1  UNL1        0.0991
     32 C          10.1836   40.1816    4.5205 C.ar    1  UNL1       -0.0061
     33 C          11.3717   39.4434    4.4702 C.ar    1  UNL1       -0.0029
     34 C          11.4050   38.2154    3.7984 C.ar    1  UNL1       -0.0003
     35 C          10.2514   37.7234    3.1784 C.ar    1  UNL1       -0.0000
     36 C           9.0627   38.4581    3.2318 C.ar    1  UNL1       -0.0003
     37 C           9.0271   39.6853    3.9031 C.ar    1  UNL1       -0.0029
@<TRIPOS>BOND
     1    15    17   ar
     2    15    16   ar
     3    20    21   am
     4    18    19   ar
     5    18    20    1
     6    21    24    1
     7    25    26   ar
     8    27    28   ar
     9    29    30    1
    10    29    24   ar
    11    14    15    1
    12    14     3    1
    13     3     1   am
    14     4     1    1
    15     4     5    1
    16     5     6    1
    17     7     6    1
    18     7     8    1
    19     7    12    1
    20     8     9    1
    21     9    10    1
    22    10     2    1
    23    31     2    1
    24    31    32    1
    25    33    34   ar
    26    35    36   ar
    27    37    32   ar
    28    11     2    1
    29    11     7    1
    30    12     1    1
    31    17    18   ar
    32    19    16   ar
    33    21    22    2
    34    24    25   ar
    35    26    27   ar
    36    28    29   ar
    37     3    13    2
    38    32    33   ar
    39    34    35   ar
    40    36    37   ar
    41    20    23    1
@<TRIPOS>MOLECULE
MolPort-005-095-744 CSSS00159509504 MCULE-3732932308 PubChem-45218315
 37 41 0 0 0
SMALL
GASTEIGER

@<TRIPOS>ATOM
      1 N          15.7455   37.0504    9.9414 N.am    1  UNL1       -0.2779
      2 N          16.3287   34.3682    5.8370 N.3     1  UNL1       -0.2689
      3 C          14.8215   37.3477   11.0004 C.2     1  UNL1        0.2505
      4 C          17.1745   37.3081   10.1184 C.3     1  UNL1        0.0935
      5 C          17.9841   36.1531    9.5401 C.3     1  UNL1        0.0216
      6 C          17.5727   35.9024    8.0886 C.3     1  UNL1        0.0047
      7 C          16.0684   35.5993    7.9671 C.3     1  UNL1        0.0331
      8 C          15.7105   34.2751    8.6614 C.3     1  UNL1        0.0044
      9 C          16.2646   33.0694    7.9034 C.3     1  UNL1        0.0174
     10 C          15.8188   33.1416    6.4455 C.3     1  UNL1        0.0724
     11 C          15.6814   35.5109    6.4853 C.3     1  UNL1        0.0739
     12 C          15.2573   36.7364    8.5964 C.3     1  UNL1        0.0947
     13 O          15.2458   37.7197   12.1289 O.2     1  UNL1       -0.2727
     14 C          13.3472   37.1830   10.8031 C.3     1  UNL1        0.2121
     15 N          12.7450   38.4495   10.4190 N.ar    1  UNL1       -0.2387
     16 N          13.3466   39.6246   10.5474 N.ar    1  UNL1       -0.1658
     17 C          11.5261   38.5868    9.8698 C.ar    1  UNL1        0.1119
     18 C          11.3721   39.9416    9.6452 C.ar    1  UNL1        0.0907
     19 C          12.5194   40.5772   10.0763 C.ar    1  UNL1        0.1363
     20 N          10.2338   40.6049    9.0833 N.am    1  UNL1       -0.2778
     21 C          10.1324   42.0112    8.8095 C.2     1  UNL1        0.2518
     22 O          11.0919   42.7830    9.0852 O.2     1  UNL1       -0.2697
     23 H           9.4519   40.0478    8.8656 H       1  UNL1        0.1553
     24 C           8.8986   42.5445    8.1918 C.ar    1  UNL1        0.0811
     25 C           8.1574   43.5142    8.8840 C.ar    1  UNL1        0.0068
     26 C           6.9873   44.0440    8.3374 C.ar    1  UNL1        0.0003
     27 C           6.5465   43.6147    7.0853 C.ar    1  UNL1        0.0023
     28 C           7.2718   42.6512    6.3827 C.ar    1  UNL1        0.0298
     29 C           8.4418   42.1124    6.9279 C.ar    1  UNL1        0.1445
     30 F           9.1125   41.1693    6.2206 F       1  UNL1       -0.2040
     31 C          15.8862   34.3672    4.4506 C.3     1  UNL1        0.0991
     32 C          15.9242   32.9802    3.9047 C.ar    1  UNL1       -0.0061
     33 C          14.7269   32.3119    3.6234 C.ar    1  UNL1       -0.0029
     34 C          14.7561   31.0128    3.1020 C.ar    1  UNL1       -0.0003
     35 C          15.9808   30.3815    2.8596 C.ar    1  UNL1       -0.0000
     36 C          17.1777   31.0500    3.1362 C.ar    1  UNL1       -0.0003
     37 C          17.1507   32.3485    3.6567 C.ar    1  UNL1       -0.0029
@<TRIPOS>BOND
     1    15    17   ar
     2    15    16   ar
     3    20    21   am
     4    18    19   ar
     5    18    20    1
     6    21    24    1
     7    25    26   ar
     8    27    28   ar
     9    29    30    1
    10    29    24   ar
    11    14    15    1
    12    14     3    1
    13     3     1   am
    14     4     1    1
    15     4     5    1
    16     5     6    1
    17     7     6    1
    18     7     8    1
    19     7    12    1
    20     8     9    1
    21     9    10    1
    22    10     2    1
    23    31     2    1
    24    31    32    1
    25    33    34   ar
    26    35    36   ar
    27    37    32   ar
    28    11     2    1
    29    11     7    1
    30    12     1    1
    31    17    18   ar
    32    19    16   ar
    33    21    22    2
    34    24    25   ar
    35    26    27   ar
    36    28    29   ar
    37     3    13    2
    38    32    33   ar
    39    34    35   ar
    40    36    37   ar
    41    20    23    1
@<TRIPOS>MOLECULE
MolPort-005-095-744 CSSS00159509504 MCULE-3732932308 PubChem-45218315
 37 41 0 0 0
SMALL
GASTEIGER

@<TRIPOS>ATOM
      1 N          13.7328   39.4717    9.6509 N.am    1  UNL1       -0.2779
      2 N          15.4069   34.8592    9.1012 N.3     1  UNL1       -0.2689
      3 C          12.7905   40.4237    9.1317 C.2     1  UNL1        0.2505
      4 C          14.2748   39.6344   10.9999 C.3     1  UNL1        0.0935
      5 C          14.3303   38.2823   11.7017 C.3     1  UNL1        0.0216
      6 C          15.0974   37.2780   10.8404 C.3     1  UNL1        0.0047
      7 C          14.4611   37.1188    9.4477 C.3     1  UNL1        0.0331
      8 C          13.0607   36.4919    9.5451 C.3     1  UNL1        0.0044
      9 C          13.1248   35.0209    9.9538 C.3     1  UNL1        0.0174
     10 C          14.0697   34.2769    9.0141 C.3     1  UNL1        0.0724
     11 C          15.3527   36.2253    8.5759 C.3     1  UNL1        0.0739
     12 C          14.3574   38.4863    8.7650 C.3     1  UNL1        0.0947
     13 O          12.3343   41.3365    9.8737 O.2     1  UNL1       -0.2727
     14 C          12.3003   40.3289    7.7209 C.3     1  UNL1        0.2121
     15 N          10.9254   40.7935    7.6323 N.ar    1  UNL1       -0.2387
     16 N          10.4622   41.5528    6.6483 N.ar    1  UNL1       -0.1658
     17 C           9.9546   40.4967    8.5131 C.ar    1  UNL1        0.1119
     18 C           8.8171   41.1174    8.0329 C.ar    1  UNL1        0.0907
     19 C           9.1521   41.7754    6.8663 C.ar    1  UNL1        0.1363
     20 N           7.5115   41.1142    8.6219 N.am    1  UNL1       -0.2778
     21 C           6.9381   42.1783    9.3975 C.2     1  UNL1        0.2518
     22 O           7.6034   43.2251    9.6299 O.2     1  UNL1       -0.2697
     23 H           6.9584   40.3117    8.4829 H       1  UNL1        0.1553
     24 C           5.5579   42.0410    9.9119 C.ar    1  UNL1        0.0811
     25 C           4.5043   42.6256    9.1930 C.ar    1  UNL1        0.0068
     26 C           3.1871   42.5199    9.6429 C.ar    1  UNL1        0.0003
     27 C           2.9057   41.8204   10.8167 C.ar    1  UNL1        0.0023
     28 C           3.9415   41.2322   11.5440 C.ar    1  UNL1        0.0298
     29 C           5.2640   41.3397   11.1014 C.ar    1  UNL1        0.1445
     30 F           6.2446   40.7652   11.8416 F       1  UNL1       -0.2040
     31 C          16.2586   34.0975    8.2000 C.3     1  UNL1        0.0991
     32 C          16.2991   32.6684    8.6233 C.ar    1  UNL1       -0.0061
     33 C          15.1703   31.8599    8.4467 C.ar    1  UNL1       -0.0029
     34 C          15.2051   30.5147    8.8339 C.ar    1  UNL1       -0.0003
     35 C          16.3677   29.9763    9.3957 C.ar    1  UNL1       -0.0000
     36 C          17.4975   30.7822    9.5686 C.ar    1  UNL1       -0.0003
     37 C          17.4650   32.1265    9.1818 C.ar    1  UNL1       -0.0029
@<TRIPOS>BOND
     1    15    17   ar
     2    15    16   ar
     3    20    21   am
     4    18    19   ar
     5    18    20    1
     6    21    24    1
     7    25    26   ar
     8    27    28   ar
     9    29    30    1
    10    29    24   ar
    11    14    15    1
    12    14     3    1
    13     3     1   am
    14     4     1    1
    15     4     5    1
    16     5     6    1
    17     7     6    1
    18     7     8    1
    19     7    12    1
    20     8     9    1
    21     9    10    1
    22    10     2    1
    23    31     2    1
    24    31    32    1
    25    33    34   ar
    26    35    36   ar
    27    37    32   ar
    28    11     2    1
    29    11     7    1
    30    12     1    1
    31    17    18   ar
    32    19    16   ar
    33    21    22    2
    34    24    25   ar
    35    26    27   ar
    36    28    29   ar
    37     3    13    2
    38    32    33   ar
    39    34    35   ar
    40    36    37   ar
    41    20    23    1
@<TRIPOS>MOLECULE
MolPort-005-095-744 CSSS00159509504 MCULE-3732932308 PubChem-45218315
 37 41 0 0 0
SMALL
GASTEIGER

@<TRIPOS>ATOM
      1 N           9.3605   40.8553    9.1407 N.am    1  UNL1       -0.2779
      2 N          13.4256   38.0862    9.5734 N.3     1  UNL1       -0.2689
      3 C           8.1417   41.0018    8.3945 C.2     1  UNL1        0.2505
      4 C           9.4890   41.4620   10.4656 C.3     1  UNL1        0.0935
      5 C          10.1916   40.4949   11.4115 C.3     1  UNL1        0.0216
      6 C          11.5199   40.0423   10.8036 C.3     1  UNL1        0.0047
      7 C          11.3205   39.3778    9.4294 C.3     1  UNL1        0.0331
      8 C          10.5330   38.0635    9.5568 C.3     1  UNL1        0.0044
      9 C          11.3573   36.9722   10.2384 C.3     1  UNL1        0.0174
     10 C          12.6933   36.8232    9.5155 C.3     1  UNL1        0.0724
     11 C          12.6877   39.0858    8.7979 C.3     1  UNL1        0.0739
     12 C          10.5672   40.3311    8.4963 C.3     1  UNL1        0.0947
     13 O           7.1352   41.5502    8.9218 O.2     1  UNL1       -0.2727
     14 C           8.0262   40.4727    6.9994 C.3     1  UNL1        0.2121
     15 N           9.2364   40.7632    6.2478 N.ar    1  UNL1       -0.2387
     16 N           9.4524   40.3536    5.0048 N.ar    1  UNL1       -0.1658
     17 C          10.2679   41.4948    6.7027 C.ar    1  UNL1        0.1119
     18 C          11.1784   41.5366    5.6640 C.ar    1  UNL1        0.0907
     19 C          10.6538   40.8162    4.6095 C.ar    1  UNL1        0.1363
     20 N          12.4545   42.1869    5.6533 N.am    1  UNL1       -0.2778
     21 C          13.1363   42.7162    6.8013 C.2     1  UNL1        0.2518
     22 O          12.6043   42.6485    7.9435 O.2     1  UNL1       -0.2697
     23 H          12.9039   42.2793    4.7823 H       1  UNL1        0.1553
     24 C          14.4714   43.3310    6.6345 C.ar    1  UNL1        0.0811
     25 C          14.5870   44.5084    5.8800 C.ar    1  UNL1        0.0068
     26 C          15.8279   45.1213    5.6978 C.ar    1  UNL1        0.0003
     27 C          16.9706   44.5668    6.2752 C.ar    1  UNL1        0.0023
     28 C          16.8736   43.3963    7.0291 C.ar    1  UNL1        0.0298
     29 C          15.6339   42.7744    7.2103 C.ar    1  UNL1        0.1445
     30 F          15.5818   41.6318    7.9392 F       1  UNL1       -0.2040
     31 C          14.6903   37.8728    8.8859 C.3     1  UNL1        0.0991
     32 C          14.9724   36.4124    8.7797 C.ar    1  UNL1       -0.0061
     33 C          14.0224   35.4875    9.2280 C.ar    1  UNL1       -0.0029
     34 C          14.2776   34.1149    9.1226 C.ar    1  UNL1       -0.0003
     35 C          15.4807   33.6656    8.5678 C.ar    1  UNL1       -0.0000
     36 C          16.4289   34.5889    8.1157 C.ar    1  UNL1       -0.0003
     37 C          16.1754   35.9611    8.2195 C.ar    1  UNL1       -0.0029
@<TRIPOS>BOND
     1    15    17   ar
     2    15    16   ar
     3    20    21   am
     4    18    19   ar
     5    18    20    1
     6    21    24    1
     7    25    26   ar
     8    27    28   ar
     9    29    30    1
    10    29    24   ar
    11    14    15    1
    12    14     3    1
    13     3     1   am
    14     4     1    1
    15     4     5    1
    16     5     6    1
    17     7     6    1
    18     7     8    1
    19     7    12    1
    20     8     9    1
    21     9    10    1
    22    10     2    1
    23    31     2    1
    24    31    32    1
    25    33    34   ar
    26    35    36   ar
    27    37    32   ar
    28    11     2    1
    29    11     7    1
    30    12     1    1
    31    17    18   ar
    32    19    16   ar
    33    21    22    2
    34    24    25   ar
    35    26    27   ar
    36    28    29   ar
    37     3    13    2
    38    32    33   ar
    39    34    35   ar
    40    36    37   ar
    41    20    23    1
@<TRIPOS>MOLECULE
MolPort-005-095-744 CSSS00159509504 MCULE-3732932308 PubChem-45218315
 37 41 0 0 0
SMALL
GASTEIGER

@<TRIPOS>ATOM
      1 N          10.2779   41.5201   10.2681 N.am    1  UNL1       -0.2779
      2 N           6.0552   43.0161    8.1918 N.3     1  UNL1       -0.2689
      3 C          11.2781   40.4898   10.2284 C.2     1  UNL1        0.2505
      4 C          10.5858   42.8214   10.8611 C.3     1  UNL1        0.0935
      5 C           9.9943   43.9340   10.0030 C.3     1  UNL1        0.0216
      6 C           8.5006   43.6876    9.7855 C.3     1  UNL1        0.0047
      7 C           8.2387   42.3220    9.1250 C.3     1  UNL1        0.0331
      8 C           8.8078   42.2771    7.6975 C.3     1  UNL1        0.0044
      9 C           8.0138   43.1669    6.7420 C.3     1  UNL1        0.0174
     10 C           6.5337   42.8045    6.8276 C.3     1  UNL1        0.0724
     11 C           6.7283   42.0591    9.0728 C.3     1  UNL1        0.0739
     12 C           8.8796   41.2096    9.9609 C.3     1  UNL1        0.0947
     13 O          12.4601   40.7365   10.5945 O.2     1  UNL1       -0.2727
     14 C          10.9530   39.1220    9.7155 C.3     1  UNL1        0.2121
     15 N          12.0973   38.2389    9.8729 N.ar    1  UNL1       -0.2387
     16 N          13.2463   38.6069   10.4240 N.ar    1  UNL1       -0.1658
     17 C          12.1281   36.9464    9.5059 C.ar    1  UNL1        0.1119
     18 C          13.3844   36.4916    9.8588 C.ar    1  UNL1        0.0907
     19 C          14.0723   37.5433   10.4305 C.ar    1  UNL1        0.1363
     20 N          13.9175   35.1762    9.6664 N.am    1  UNL1       -0.2778
     21 C          14.8528   34.7906    8.6470 C.2     1  UNL1        0.2518
     22 O          15.2618   35.6381    7.8064 O.2     1  UNL1       -0.2697
     23 H          13.6162   34.4744   10.2877 H       1  UNL1        0.1553
     24 C          15.3406   33.3949    8.5981 C.ar    1  UNL1        0.0811
     25 C          14.4131   32.3577    8.4173 C.ar    1  UNL1        0.0068
     26 C          14.8307   31.0267    8.3654 C.ar    1  UNL1        0.0003
     27 C          16.1854   30.7161    8.4868 C.ar    1  UNL1        0.0023
     28 C          17.1216   31.7354    8.6666 C.ar    1  UNL1        0.0298
     29 C          16.7086   33.0704    8.7254 C.ar    1  UNL1        0.1445
     30 F          17.6465   34.0319    8.9135 F       1  UNL1       -0.2040
     31 C           4.6413   42.6716    8.2015 C.3     1  UNL1        0.0991
     32 C           4.2670   42.0925    9.5236 C.ar    1  UNL1       -0.0061
     33 C           3.6486   42.9000   10.4851 C.ar    1  UNL1       -0.0029
     34 C           3.2865   42.3596   11.7250 C.ar    1  UNL1       -0.0003
     35 C           3.5401   41.0125   12.0042 C.ar    1  UNL1       -0.0000
     36 C           4.1540   40.2037   11.0425 C.ar    1  UNL1       -0.0003
     37 C           4.5161   40.7416    9.8026 C.ar    1  UNL1       -0.0029
@<TRIPOS>BOND
     1    15    17   ar
     2    15    16   ar
     3    20    21   am
     4    18    19   ar
     5    18    20    1
     6    21    24    1
     7    25    26   ar
     8    27    28   ar
     9    29    30    1
    10    29    24   ar
    11    14    15    1
    12    14     3    1
    13     3     1   am
    14     4     1    1
    15     4     5    1
    16     5     6    1
    17     7     6    1
    18     7     8    1
    19     7    12    1
    20     8     9    1
    21     9    10    1
    22    10     2    1
    23    31     2    1
    24    31    32    1
    25    33    34   ar
    26    35    36   ar
    27    37    32   ar
    28    11     2    1
    29    11     7    1
    30    12     1    1
    31    17    18   ar
    32    19    16   ar
    33    21    22    2
    34    24    25   ar
    35    26    27   ar
    36    28    29   ar
    37     3    13    2
    38    32    33   ar
    39    34    35   ar
    40    36    37   ar
    41    20    23    1
@<TRIPOS>MOLECULE
MolPort-005-095-744 CSSS00159509504 MCULE-3732932308 PubChem-45218315
 37 41 0 0 0
SMALL
GASTEIGER

@<TRIPOS>ATOM
      1 N          11.4017   40.8470    7.7545 N.am    1  UNL1       -0.2779
      2 N           6.6607   42.2175    7.5937 N.3     1  UNL1       -0.2689
      3 C          12.3268   39.9800    8.4297 C.2     1  UNL1        0.2505
      4 C          11.7225   41.3751    6.4285 C.3     1  UNL1        0.0935
      5 C          10.4852   41.3275    5.5393 C.3     1  UNL1        0.0216
      6 C           9.3201   42.0405    6.2272 C.3     1  UNL1        0.0047
      7 C           9.0024   41.4194    7.5994 C.3     1  UNL1        0.0331
      8 C           8.4869   39.9786    7.4512 C.3     1  UNL1        0.0044
      9 C           7.0893   39.9368    6.8347 C.3     1  UNL1        0.0174
     10 C           6.1585   40.8460    7.6326 C.3     1  UNL1        0.0724
     11 C           7.9373   42.2641    8.3102 C.3     1  UNL1        0.0739
     12 C          10.2607   41.4196    8.4732 C.3     1  UNL1        0.0947
     13 O          13.3645   39.5731    7.8384 O.2     1  UNL1       -0.2727
     14 C          12.0608   39.5092    9.8251 C.3     1  UNL1        0.2121
     15 N          12.7426   38.2488   10.0710 N.ar    1  UNL1       -0.2387
     16 N          13.3325   37.9373   11.2174 N.ar    1  UNL1       -0.1658
     17 C          12.8404   37.2415    9.1866 C.ar    1  UNL1        0.1119
     18 C          13.5383   36.2430    9.8390 C.ar    1  UNL1        0.0907
     19 C          13.8404   36.6948   11.1081 C.ar    1  UNL1        0.1363
     20 N          13.9134   34.9627    9.3178 N.am    1  UNL1       -0.2778
     21 C          15.2441   34.5606    8.9569 C.2     1  UNL1        0.2518
     22 O          16.2051   35.3707    9.0691 O.2     1  UNL1       -0.2697
     23 H          13.1957   34.2999    9.1961 H       1  UNL1        0.1553
     24 C          15.4797   33.1861    8.4634 C.ar    1  UNL1        0.0811
     25 C          16.7805   32.8107    8.0952 C.ar    1  UNL1        0.0068
     26 C          17.0466   31.5237    7.6245 C.ar    1  UNL1        0.0003
     27 C          16.0137   30.5915    7.5228 C.ar    1  UNL1        0.0023
     28 C          14.7139   30.9478    7.8853 C.ar    1  UNL1        0.0298
     29 C          14.4400   32.2376    8.3519 C.ar    1  UNL1        0.1445
     30 F          13.1623   32.5500    8.6829 F       1  UNL1       -0.2040
     31 C           5.7240   43.0318    8.3534 C.3     1  UNL1        0.0991
     32 C           5.0794   42.2088    9.4167 C.ar    1  UNL1       -0.0061
     33 C           3.7076   41.9388    9.3495 C.ar    1  UNL1       -0.0029
     34 C           3.0983   41.1590   10.3400 C.ar    1  UNL1       -0.0003
     35 C           3.8590   40.6471   11.3967 C.ar    1  UNL1       -0.0000
     36 C           5.2305   40.9126   11.4624 C.ar    1  UNL1       -0.0003
     37 C           5.8414   41.6912   10.4732 C.ar    1  UNL1       -0.0029
@<TRIPOS>BOND
     1    15    17   ar
     2    15    16   ar
     3    20    21   am
     4    18    19   ar
     5    18    20    1
     6    21    24    1
     7    25    26   ar
     8    27    28   ar
     9    29    30    1
    10    29    24   ar
    11    14    15    1
    12    14     3    1
    13     3     1   am
    14     4     1    1
    15     4     5    1
    16     5     6    1
    17     7     6    1
    18     7     8    1
    19     7    12    1
    20     8     9    1
    21     9    10    1
    22    10     2    1
    23    31     2    1
    24    31    32    1
    25    33    34   ar
    26    35    36   ar
    27    37    32   ar
    28    11     2    1
    29    11     7    1
    30    12     1    1
    31    17    18   ar
    32    19    16   ar
    33    21    22    2
    34    24    25   ar
    35    26    27   ar
    36    28    29   ar
    37     3    13    2
    38    32    33   ar
    39    34    35   ar
    40    36    37   ar
    41    20    23    1
@<TRIPOS>MOLECULE
MolPort-005-095-744 CSSS00159509504 MCULE-3732932308 PubChem-45218315
 37 41 0 0 0
SMALL
GASTEIGER

@<TRIPOS>ATOM
      1 N           6.0050   41.6587    9.3106 N.am    1  UNL1       -0.2779
      2 N           1.9931   42.1830   12.1408 N.3     1  UNL1       -0.2689
      3 C           7.4239   41.4386    9.3548 C.2     1  UNL1        0.2505
      4 C           5.2523   41.3609    8.0922 C.3     1  UNL1        0.0935
      5 C           3.9350   40.6825    8.4507 C.3     1  UNL1        0.0216
      6 C           3.1676   41.5342    9.4630 C.3     1  UNL1        0.0047
      7 C           3.9920   41.7834   10.7390 C.3     1  UNL1        0.0331
      8 C           4.2387   40.4737   11.5056 C.3     1  UNL1        0.0044
      9 C           2.9568   39.9398   12.1434 C.3     1  UNL1        0.0174
     10 C           2.3183   41.0384   12.9887 C.3     1  UNL1        0.0724
     11 C           3.2437   42.7657   11.6491 C.3     1  UNL1        0.0739
     12 C           5.3378   42.4165   10.3720 C.3     1  UNL1        0.0947
     13 O           8.0108   40.8776    8.3890 O.2     1  UNL1       -0.2727
     14 C           8.2253   41.8285   10.5570 C.3     1  UNL1        0.2121
     15 N           9.6471   41.7412   10.2656 N.ar    1  UNL1       -0.2387
     16 N          10.2796   42.5409    9.4172 N.ar    1  UNL1       -0.1658
     17 C          10.4958   40.8650   10.8296 C.ar    1  UNL1        0.1119
     18 C          11.7352   41.1500   10.2888 C.ar    1  UNL1        0.0907
     19 C          11.5824   42.2001    9.4055 C.ar    1  UNL1        0.1363
     20 N          12.9747   40.4856   10.5600 N.am    1  UNL1       -0.2778
     21 C          14.0306   40.2598    9.6130 C.2     1  UNL1        0.2518
     22 O          13.9036   40.6410    8.4168 O.2     1  UNL1       -0.2697
     23 H          13.1153   40.1544   11.4764 H       1  UNL1        0.1553
     24 C          15.2717   39.5867   10.0546 C.ar    1  UNL1        0.0811
     25 C          15.1759   38.3571   10.7235 C.ar    1  UNL1        0.0068
     26 C          16.3220   37.6884   11.1572 C.ar    1  UNL1        0.0003
     27 C          17.5817   38.2391   10.9204 C.ar    1  UNL1        0.0023
     28 C          17.6954   39.4612   10.2560 C.ar    1  UNL1        0.0298
     29 C          16.5505   40.1388    9.8244 C.ar    1  UNL1        0.1445
     30 F          16.7008   41.3298    9.1931 F       1  UNL1       -0.2040
     31 C           1.3746   43.1822   12.9992 C.3     1  UNL1        0.0991
     32 C           0.2507   42.5707   13.7649 C.ar    1  UNL1       -0.0061
     33 C           0.2415   42.6451   15.1626 C.ar    1  UNL1       -0.0029
     34 C          -0.8157   42.0809   15.8867 C.ar    1  UNL1       -0.0003
     35 C          -1.8648   41.4440   15.2152 C.ar    1  UNL1       -0.0000
     36 C          -1.8588   41.3729   13.8185 C.ar    1  UNL1       -0.0003
     37 C          -0.8035   41.9367   13.0930 C.ar    1  UNL1       -0.0029
@<TRIPOS>BOND
     1    15    17   ar
     2    15    16   ar
     3    20    21   am
     4    18    19   ar
     5    18    20    1
     6    21    24    1
     7    25    26   ar
     8    27    28   ar
     9    29    30    1
    10    29    24   ar
    11    14    15    1
    12    14     3    1
    13     3     1   am
    14     4     1    1
    15     4     5    1
    16     5     6    1
    17     7     6    1
    18     7     8    1
    19     7    12    1
    20     8     9    1
    21     9    10    1
    22    10     2    1
    23    31     2    1
    24    31    32    1
    25    33    34   ar
    26    35    36   ar
    27    37    32   ar
    28    11     2    1
    29    11     7    1
    30    12     1    1
    31    17    18   ar
    32    19    16   ar
    33    21    22    2
    34    24    25   ar
    35    26    27   ar
    36    28    29   ar
    37     3    13    2
    38    32    33   ar
    39    34    35   ar
    40    36    37   ar
    41    20    23    1
