@<TRIPOS>MOLECULE
MolPort-016-718-365 MCULE-1952619002 PubChem-46975251
 32 35 0 0 0
SMALL
GASTEIGER

@<TRIPOS>ATOM
      1 C          11.4058   40.7214    5.9981 C.2     1  UNL1        0.2483
      2 O          11.9060   39.8501    6.7571 O.2     1  UNL1       -0.2728
      3 N          12.0779   41.9594    5.7409 N.am    1  UNL1       -0.2627
      4 H          11.6367   42.5829    5.1198 H       1  UNL1        0.1568
      5 C          16.0844   41.6781    8.4661 C.ar    1  UNL1        0.1566
      6 C          15.1671   42.2201    7.5607 C.ar    1  UNL1        0.1230
      7 C          15.4024   43.4564    6.9771 C.ar    1  UNL1        0.0527
      8 C          16.5413   44.2059    7.2556 C.ar    1  UNL1        0.0083
      9 C          17.4715   43.6742    8.1610 C.ar    1  UNL1        0.0037
     10 C          17.2470   42.4209    8.7615 C.ar    1  UNL1        0.0385
     11 C          13.3287   42.3804    6.2978 C.ar    1  UNL1        0.1657
     12 S          14.1344   43.8333    5.9464 S.2     1  UNL1       -0.0513
     13 N          14.0107   41.6155    7.1837 N.ar    1  UNL1       -0.2209
     14 O          15.8375   40.4273    9.0457 O.3     1  UNL1       -0.4739
     15 C          14.1777   39.7784   10.6751 C.3     1  UNL1        0.0512
     16 C          14.5318   39.8822    9.2031 C.3     1  UNL1        0.2056
     17 C          10.0703   40.4753    5.3845 C.3     1  UNL1        0.1876
     18 C           8.9085   41.7655    7.2735 C.2     1  UNL1        0.2528
     19 C           7.5241   41.8879    7.8504 C.3     1  UNL1        0.1467
     20 C           7.7053   40.1485    6.3130 C.2     1  UNL1        0.3107
     21 C           6.9076   43.2281    7.4791 C.3     1  UNL1        0.0337
     22 O           9.8635   42.5492    7.5245 O.2     1  UNL1       -0.2723
     23 O           7.3724   39.1954    5.5606 O.2     1  UNL1       -0.2521
     24 N           9.0174   40.6749    6.3715 N.am    1  UNL1       -0.2035
     25 N           6.7877   40.8162    7.1708 N.am    1  UNL1       -0.2806
     26 H           5.8345   40.5992    7.2871 H       1  UNL1        0.1516
     27 C           7.5331   41.6933    9.3524 C.ar    1  UNL1        0.0020
     28 C           6.3358   41.5502   10.0748 C.ar    1  UNL1       -0.0023
     29 C           6.3583   41.3679   11.4603 C.ar    1  UNL1       -0.0003
     30 C           7.5780   41.3265   12.1398 C.ar    1  UNL1       -0.0000
     31 C           8.7754   41.4671   11.4344 C.ar    1  UNL1       -0.0003
     32 C           8.7532   41.6494   10.0490 C.ar    1  UNL1       -0.0023
@<TRIPOS>BOND
     1    15    16    1
     2    16    14    1
     3     5    14    1
     4     6     7   ar
     5     6    13   ar
     6     7    12   ar
     7     8     9   ar
     8    10     5   ar
     9    11    12   ar
    10    11     3    1
    11    17     1    1
    12    17    24    1
    13    19    18    1
    14    19    25    1
    15    19    21    1
    16    19    27    1
    17    20    24   am
    18    28    29   ar
    19    30    31   ar
    20    32    27   ar
    21     3     1   am
    22    24    18   am
    23    25    20   am
    24     5     6   ar
    25     7     8   ar
    26     9    10   ar
    27    11    13   ar
    28     1     2    2
    29    18    22    2
    30    20    23    2
    31    27    28   ar
    32    29    30   ar
    33    31    32   ar
    34     3     4    1
    35    25    26    1
@<TRIPOS>MOLECULE
MolPort-016-718-365 MCULE-1952619002 PubChem-46975251
 32 35 0 0 0
SMALL
GASTEIGER

@<TRIPOS>ATOM
      1 C          11.3369   41.0760    7.6022 C.2     1  UNL1        0.2483
      2 O          11.8756   40.6998    8.6763 O.2     1  UNL1       -0.2728
      3 N          12.0451   41.8872    6.6583 N.am    1  UNL1       -0.2627
      4 H          11.5672   42.1245    5.8309 H       1  UNL1        0.1568
      5 C          16.6319   42.0192    8.2398 C.ar    1  UNL1        0.1566
      6 C          15.4890   42.4193    7.5407 C.ar    1  UNL1        0.1230
      7 C          15.5138   43.5550    6.7445 C.ar    1  UNL1        0.0527
      8 C          16.6548   44.3387    6.6017 C.ar    1  UNL1        0.0083
      9 C          17.8097   43.9488    7.2959 C.ar    1  UNL1        0.0037
     10 C          17.8004   42.7989    8.1079 C.ar    1  UNL1        0.0385
     11 C          13.3798   42.3878    6.7987 C.ar    1  UNL1        0.1657
     12 S          14.0067   43.7728    6.0422 S.2     1  UNL1       -0.0513
     13 N          14.2996   41.7641    7.5733 N.ar    1  UNL1       -0.2209
     14 O          16.5954   40.8685    9.0373 O.3     1  UNL1       -0.4739
     15 C          15.6407   38.8259    9.9017 C.3     1  UNL1        0.0512
     16 C          15.3860   40.2610    9.4790 C.3     1  UNL1        0.2056
     17 C           9.9218   40.7008    7.3247 C.3     1  UNL1        0.1876
     18 C           7.6579   41.3345    8.3522 C.2     1  UNL1        0.2528
     19 C           7.1399   42.2596    9.4201 C.3     1  UNL1        0.1467
     20 C           9.3858   42.6265    8.9266 C.2     1  UNL1        0.3107
     21 C           6.7046   41.4699   10.6453 C.3     1  UNL1        0.0337
     22 O           6.9902   40.4079    7.8184 O.2     1  UNL1       -0.2723
     23 O          10.5506   43.0991    8.9981 O.2     1  UNL1       -0.2521
     24 N           9.0149   41.5973    8.0293 N.am    1  UNL1       -0.2035
     25 N           8.3194   43.0627    9.7611 N.am    1  UNL1       -0.2806
     26 H           8.3646   43.7726   10.4417 H       1  UNL1        0.1516
     27 C           6.0082   43.1222    8.9014 C.ar    1  UNL1        0.0020
     28 C           4.6965   42.9683    9.3826 C.ar    1  UNL1       -0.0023
     29 C           3.6619   43.7732    8.8978 C.ar    1  UNL1       -0.0003
     30 C           3.9265   44.7415    7.9264 C.ar    1  UNL1       -0.0000
     31 C           5.2255   44.9054    7.4396 C.ar    1  UNL1       -0.0003
     32 C           6.2603   44.1007    7.9241 C.ar    1  UNL1       -0.0023
@<TRIPOS>BOND
     1    15    16    1
     2    16    14    1
     3     5    14    1
     4     6     7   ar
     5     6    13   ar
     6     7    12   ar
     7     8     9   ar
     8    10     5   ar
     9    11    12   ar
    10    11     3    1
    11    17     1    1
    12    17    24    1
    13    19    18    1
    14    19    25    1
    15    19    21    1
    16    19    27    1
    17    20    24   am
    18    28    29   ar
    19    30    31   ar
    20    32    27   ar
    21     3     1   am
    22    24    18   am
    23    25    20   am
    24     5     6   ar
    25     7     8   ar
    26     9    10   ar
    27    11    13   ar
    28     1     2    2
    29    18    22    2
    30    20    23    2
    31    27    28   ar
    32    29    30   ar
    33    31    32   ar
    34     3     4    1
    35    25    26    1
@<TRIPOS>MOLECULE
MolPort-016-718-365 MCULE-1952619002 PubChem-46975251
 32 35 0 0 0
SMALL
GASTEIGER

@<TRIPOS>ATOM
      1 C          10.4599   40.6915    6.0662 C.2     1  UNL1        0.2483
      2 O          10.9590   39.5718    6.3531 O.2     1  UNL1       -0.2728
      3 N          11.2140   41.9008    6.2061 N.am    1  UNL1       -0.2627
      4 H          10.7652   42.7363    5.9419 H       1  UNL1        0.1568
      5 C          15.1433   40.7489    8.8120 C.ar    1  UNL1        0.1566
      6 C          14.3521   41.4573    7.9025 C.ar    1  UNL1        0.1230
      7 C          14.8670   42.5556    7.2295 C.ar    1  UNL1        0.0527
      8 C          16.1720   42.9998    7.4196 C.ar    1  UNL1        0.0083
      9 C          16.9783   42.2981    8.3279 C.ar    1  UNL1        0.0037
     10 C          16.4703   41.1816    9.0186 C.ar    1  UNL1        0.0385
     11 C          12.5565   42.0152    6.6923 C.ar    1  UNL1        0.1657
     12 S          13.6889   43.1882    6.2176 S.2     1  UNL1       -0.0513
     13 N          13.0625   41.1516    7.6050 N.ar    1  UNL1       -0.2209
     14 O          14.6132   39.6394    9.4823 O.3     1  UNL1       -0.4739
     15 C          12.7722   39.8536   11.0301 C.3     1  UNL1        0.0512
     16 C          14.2670   39.6517   10.8632 C.3     1  UNL1        0.2056
     17 C           9.0439   40.7638    5.6076 C.3     1  UNL1        0.1876
     18 C           8.2127   41.0459    8.0184 C.2     1  UNL1        0.2528
     19 C           7.5619   42.1152    8.8536 C.3     1  UNL1        0.1467
     20 C           7.6338   42.6625    6.5915 C.2     1  UNL1        0.3107
     21 C           8.5548   42.6909    9.8520 C.3     1  UNL1        0.0337
     22 O           8.7330   39.9931    8.4769 O.2     1  UNL1       -0.2723
     23 O           7.5124   43.3321    5.5321 O.2     1  UNL1       -0.2521
     24 N           8.2108   41.3714    6.6368 N.am    1  UNL1       -0.2035
     25 N           7.2234   43.1452    7.8652 N.am    1  UNL1       -0.2806
     26 H           6.7918   44.0107    8.0494 H       1  UNL1        0.1516
     27 C           6.3280   41.5906    9.5579 C.ar    1  UNL1        0.0020
     28 C           6.3157   41.3857   10.9485 C.ar    1  UNL1       -0.0023
     29 C           5.1692   40.9041   11.5865 C.ar    1  UNL1       -0.0003
     30 C           4.0216   40.6219   10.8419 C.ar    1  UNL1       -0.0000
     31 C           4.0198   40.8212    9.4593 C.ar    1  UNL1       -0.0003
     32 C           5.1660   41.3027    8.8210 C.ar    1  UNL1       -0.0023
@<TRIPOS>BOND
     1    15    16    1
     2    16    14    1
     3     5    14    1
     4     6     7   ar
     5     6    13   ar
     6     7    12   ar
     7     8     9   ar
     8    10     5   ar
     9    11    12   ar
    10    11     3    1
    11    17     1    1
    12    17    24    1
    13    19    18    1
    14    19    25    1
    15    19    21    1
    16    19    27    1
    17    20    24   am
    18    28    29   ar
    19    30    31   ar
    20    32    27   ar
    21     3     1   am
    22    24    18   am
    23    25    20   am
    24     5     6   ar
    25     7     8   ar
    26     9    10   ar
    27    11    13   ar
    28     1     2    2
    29    18    22    2
    30    20    23    2
    31    27    28   ar
    32    29    30   ar
    33    31    32   ar
    34     3     4    1
    35    25    26    1
@<TRIPOS>MOLECULE
MolPort-016-718-365 MCULE-1952619002 PubChem-46975251
 32 35 0 0 0
SMALL
GASTEIGER

@<TRIPOS>ATOM
      1 C          11.2396   41.1374    8.6038 C.2     1  UNL1        0.2483
      2 O          10.8653   40.9269    9.7873 O.2     1  UNL1       -0.2728
      3 N          12.5620   40.8004    8.1699 N.am    1  UNL1       -0.2627
      4 H          12.7763   40.9737    7.2247 H       1  UNL1        0.1568
      5 C          17.0767   40.1330    9.8222 C.ar    1  UNL1        0.1566
      6 C          15.6938   39.9539    9.7182 C.ar    1  UNL1        0.1230
      7 C          15.0392   39.0462   10.5379 C.ar    1  UNL1        0.0527
      8 C          15.7108   38.2830   11.4882 C.ar    1  UNL1        0.0083
      9 C          17.0982   38.4529   11.6050 C.ar    1  UNL1        0.0037
     10 C          17.7769   39.3701   10.7805 C.ar    1  UNL1        0.0385
     11 C          13.6039   40.2361    8.9748 C.ar    1  UNL1        0.1657
     12 S          13.4010   39.0568   10.1796 S.2     1  UNL1       -0.0513
     13 N          14.8961   40.6210    8.8444 N.ar    1  UNL1       -0.2209
     14 O          17.7255   41.0553    8.9917 O.3     1  UNL1       -0.4739
     15 C          17.6118   43.4564    8.7621 C.3     1  UNL1        0.0512
     16 C          17.0509   42.1162    8.3237 C.3     1  UNL1        0.2056
     17 C          10.3001   41.7845    7.6451 C.3     1  UNL1        0.1876
     18 C           7.8888   41.8492    8.5191 C.2     1  UNL1        0.2528
     19 C           7.1270   42.5094    9.6364 C.3     1  UNL1        0.1467
     20 C           9.2895   43.3425    9.4095 C.2     1  UNL1        0.3107
     21 C           6.7653   41.4934   10.7092 C.3     1  UNL1        0.0337
     22 O           7.4522   40.8988    7.8152 O.2     1  UNL1       -0.2723
     23 O          10.3332   44.0046    9.6494 O.2     1  UNL1       -0.2521
     24 N           9.1893   42.3960    8.3626 N.am    1  UNL1       -0.2035
     25 N           8.1020   43.4591   10.1841 N.am    1  UNL1       -0.2806
     26 H           7.9606   44.0652   10.9469 H       1  UNL1        0.1516
     27 C           5.8904   43.2149    9.1195 C.ar    1  UNL1        0.0020
     28 C           4.6044   42.8250    9.5319 C.ar    1  UNL1       -0.0023
     29 C           3.4717   43.4866    9.0497 C.ar    1  UNL1       -0.0003
     30 C           3.6113   44.5458    8.1499 C.ar    1  UNL1       -0.0000
     31 C           4.8833   44.9438    7.7319 C.ar    1  UNL1       -0.0003
     32 C           6.0162   44.2825    8.2138 C.ar    1  UNL1       -0.0023
@<TRIPOS>BOND
     1    15    16    1
     2    16    14    1
     3     5    14    1
     4     6     7   ar
     5     6    13   ar
     6     7    12   ar
     7     8     9   ar
     8    10     5   ar
     9    11    12   ar
    10    11     3    1
    11    17     1    1
    12    17    24    1
    13    19    18    1
    14    19    25    1
    15    19    21    1
    16    19    27    1
    17    20    24   am
    18    28    29   ar
    19    30    31   ar
    20    32    27   ar
    21     3     1   am
    22    24    18   am
    23    25    20   am
    24     5     6   ar
    25     7     8   ar
    26     9    10   ar
    27    11    13   ar
    28     1     2    2
    29    18    22    2
    30    20    23    2
    31    27    28   ar
    32    29    30   ar
    33    31    32   ar
    34     3     4    1
    35    25    26    1
@<TRIPOS>MOLECULE
MolPort-016-718-365 MCULE-1952619002 PubChem-46975251
 32 35 0 0 0
SMALL
GASTEIGER

@<TRIPOS>ATOM
      1 C          11.4511   40.6564    8.0419 C.2     1  UNL1        0.2483
      2 O          11.8428   40.7921    9.2307 O.2     1  UNL1       -0.2728
      3 N          12.2214   41.1550    6.9426 N.am    1  UNL1       -0.2627
      4 H          11.8629   40.9928    6.0401 H       1  UNL1        0.1568
      5 C          16.7705   42.0667    8.3681 C.ar    1  UNL1        0.1566
      6 C          15.5588   42.2573    7.6969 C.ar    1  UNL1        0.1230
      7 C          15.3783   43.3572    6.8710 C.ar    1  UNL1        0.0527
      8 C          16.3742   44.3083    6.6705 C.ar    1  UNL1        0.0083
      9 C          17.5959   44.1296    7.3361 C.ar    1  UNL1        0.0037
     10 C          17.7944   43.0186    8.1776 C.ar    1  UNL1        0.0385
     11 C          13.4619   41.8664    7.0259 C.ar    1  UNL1        0.1657
     12 S          13.8365   43.3097    6.2133 S.2     1  UNL1       -0.0513
     13 N          14.4915   41.4219    7.7856 N.ar    1  UNL1       -0.2209
     14 O          16.9418   40.9503    9.1960 O.3     1  UNL1       -0.4739
     15 C          16.3539   39.1665   10.7137 C.3     1  UNL1        0.0512
     16 C          15.8596   40.1627    9.6811 C.3     1  UNL1        0.2056
     17 C          10.1418   39.9967    7.7753 C.3     1  UNL1        0.1876
     18 C           8.4514   41.6153    8.8268 C.2     1  UNL1        0.2528
     19 C           7.7127   42.8653    8.4315 C.3     1  UNL1        0.1467
     20 C           8.8092   41.8651    6.6373 C.2     1  UNL1        0.3107
     21 C           8.2878   44.0755    9.1517 C.3     1  UNL1        0.0337
     22 O           8.5413   41.1758   10.0051 O.2     1  UNL1       -0.2723
     23 O           9.2569   41.6898    5.4736 O.2     1  UNL1       -0.2521
     24 N           9.0787   40.9912    7.7169 N.am    1  UNL1       -0.2035
     25 N           8.0005   42.9787    6.9974 N.am    1  UNL1       -0.2806
     26 H           7.6911   43.6936    6.3953 H       1  UNL1        0.1516
     27 C           6.2268   42.7344    8.6939 C.ar    1  UNL1        0.0020
     28 C           5.6536   41.4956    9.0297 C.ar    1  UNL1       -0.0023
     29 C           4.2814   41.3892    9.2725 C.ar    1  UNL1       -0.0003
     30 C           3.4662   42.5200    9.1828 C.ar    1  UNL1       -0.0000
     31 C           4.0227   43.7573    8.8503 C.ar    1  UNL1       -0.0003
     32 C           5.3948   43.8640    8.6074 C.ar    1  UNL1       -0.0023
@<TRIPOS>BOND
     1    15    16    1
     2    16    14    1
     3     5    14    1
     4     6     7   ar
     5     6    13   ar
     6     7    12   ar
     7     8     9   ar
     8    10     5   ar
     9    11    12   ar
    10    11     3    1
    11    17     1    1
    12    17    24    1
    13    19    18    1
    14    19    25    1
    15    19    21    1
    16    19    27    1
    17    20    24   am
    18    28    29   ar
    19    30    31   ar
    20    32    27   ar
    21     3     1   am
    22    24    18   am
    23    25    20   am
    24     5     6   ar
    25     7     8   ar
    26     9    10   ar
    27    11    13   ar
    28     1     2    2
    29    18    22    2
    30    20    23    2
    31    27    28   ar
    32    29    30   ar
    33    31    32   ar
    34     3     4    1
    35    25    26    1
@<TRIPOS>MOLECULE
MolPort-016-718-365 MCULE-1952619002 PubChem-46975251
 32 35 0 0 0
SMALL
GASTEIGER

@<TRIPOS>ATOM
      1 C          11.0792   41.1836   10.0680 C.2     1  UNL1        0.2483
      2 O          11.4435   41.9841    9.1670 O.2     1  UNL1       -0.2728
      3 N           9.7051   41.0739   10.4556 N.am    1  UNL1       -0.2627
      4 H           9.4923   40.4111   11.1517 H       1  UNL1        0.1568
      5 C           5.0919   42.0891    9.3396 C.ar    1  UNL1        0.1566
      6 C           6.4747   42.2745    9.4333 C.ar    1  UNL1        0.1230
      7 C           7.0631   43.4326    8.9467 C.ar    1  UNL1        0.0527
      8 C           6.3226   44.4506    8.3533 C.ar    1  UNL1        0.0083
      9 C           4.9340   44.2795    8.2537 C.ar    1  UNL1        0.0037
     10 C           4.3220   43.1098    8.7427 C.ar    1  UNL1        0.0385
     11 C           8.6095   41.8329    9.9307 C.ar    1  UNL1        0.1657
     12 S           8.7191   43.3624    9.2013 S.2     1  UNL1       -0.0513
     13 N           7.3344   41.3788    9.9842 N.ar    1  UNL1       -0.2209
     14 O           4.5093   40.9172    9.8381 O.3     1  UNL1       -0.4739
     15 C           3.2846   41.5016   11.8355 C.3     1  UNL1        0.0512
     16 C           4.3762   40.6399   11.2281 C.3     1  UNL1        0.2056
     17 C          12.1035   40.3609   10.7714 C.3     1  UNL1        0.1876
     18 C          12.8837   37.9187   10.6742 C.2     1  UNL1        0.2528
     19 C          12.4747   36.6460    9.9834 C.3     1  UNL1        0.1467
     20 C          11.3486   38.5130    9.1660 C.2     1  UNL1        0.3107
     21 C          11.8288   35.6862   10.9712 C.3     1  UNL1        0.0337
     22 O          13.6918   37.9846   11.6396 O.2     1  UNL1       -0.2723
     23 O          10.5327   39.2058    8.5029 O.2     1  UNL1       -0.2521
     24 N          12.2232   39.0546   10.1374 N.am    1  UNL1       -0.2035
     25 N          11.4617   37.1020    9.0250 N.am    1  UNL1       -0.2806
     26 H          10.9539   36.5359    8.3997 H       1  UNL1        0.1516
     27 C          13.6504   35.9948    9.2852 C.ar    1  UNL1        0.0020
     28 C          14.5488   36.7518    8.5134 C.ar    1  UNL1       -0.0023
     29 C          15.6316   36.1388    7.8770 C.ar    1  UNL1       -0.0003
     30 C          15.8291   34.7620    8.0048 C.ar    1  UNL1       -0.0000
     31 C          14.9443   33.9976    8.7689 C.ar    1  UNL1       -0.0003
     32 C          13.8614   34.6102    9.4055 C.ar    1  UNL1       -0.0023
@<TRIPOS>BOND
     1    15    16    1
     2    16    14    1
     3     5    14    1
     4     6     7   ar
     5     6    13   ar
     6     7    12   ar
     7     8     9   ar
     8    10     5   ar
     9    11    12   ar
    10    11     3    1
    11    17     1    1
    12    17    24    1
    13    19    18    1
    14    19    25    1
    15    19    21    1
    16    19    27    1
    17    20    24   am
    18    28    29   ar
    19    30    31   ar
    20    32    27   ar
    21     3     1   am
    22    24    18   am
    23    25    20   am
    24     5     6   ar
    25     7     8   ar
    26     9    10   ar
    27    11    13   ar
    28     1     2    2
    29    18    22    2
    30    20    23    2
    31    27    28   ar
    32    29    30   ar
    33    31    32   ar
    34     3     4    1
    35    25    26    1
@<TRIPOS>MOLECULE
MolPort-016-718-365 MCULE-1952619002 PubChem-46975251
 32 35 0 0 0
SMALL
GASTEIGER

@<TRIPOS>ATOM
      1 C          11.2418   41.6089    9.2933 C.2     1  UNL1        0.2483
      2 O          11.2251   42.8297    9.6010 O.2     1  UNL1       -0.2728
      3 N          12.1620   41.0983    8.3222 N.am    1  UNL1       -0.2627
      4 H          12.1318   40.1296    8.1490 H       1  UNL1        0.1568
      5 C          16.5447   42.7458    7.0432 C.ar    1  UNL1        0.1566
      6 C          15.1550   42.5949    7.0090 C.ar    1  UNL1        0.1230
      7 C          14.3963   43.2823    6.0730 C.ar    1  UNL1        0.0527
      8 C          14.9672   44.1394    5.1371 C.ar    1  UNL1        0.0083
      9 C          16.3605   44.2997    5.1582 C.ar    1  UNL1        0.0037
     10 C          17.1442   43.6091    6.1020 C.ar    1  UNL1        0.0385
     11 C          13.1222   41.8572    7.5780 C.ar    1  UNL1        0.1657
     12 S          12.7773   42.8981    6.2814 S.2     1  UNL1       -0.0513
     13 N          14.4477   41.7975    7.8509 N.ar    1  UNL1       -0.2209
     14 O          17.3000   42.0434    7.9905 O.3     1  UNL1       -0.4739
     15 C          17.5474   43.9959    9.3896 C.3     1  UNL1        0.0512
     16 C          17.4723   42.4812    9.3342 C.3     1  UNL1        0.2056
     17 C          10.2594   40.6833    9.9247 C.3     1  UNL1        0.1876
     18 C           8.0891   42.0484   10.0190 C.2     1  UNL1        0.2528
     19 C           6.9475   42.3892    9.0998 C.3     1  UNL1        0.1467
     20 C           8.3434   40.7432    8.2256 C.2     1  UNL1        0.3107
     21 C           7.0372   43.8403    8.6523 C.3     1  UNL1        0.0337
     22 O           8.3265   42.6254   11.1145 O.2     1  UNL1       -0.2723
     23 O           8.8307   39.9156    7.4114 O.2     1  UNL1       -0.2521
     24 N           8.9071   41.0135    9.4949 N.am    1  UNL1       -0.2035
     25 N           7.1821   41.5154    7.9448 N.am    1  UNL1       -0.2806
     26 H           6.6365   41.4716    7.1264 H       1  UNL1        0.1516
     27 C           5.6104   42.1051    9.7520 C.ar    1  UNL1        0.0020
     28 C           5.4803   41.1201   10.7463 C.ar    1  UNL1       -0.0023
     29 C           4.2412   40.8702   11.3424 C.ar    1  UNL1       -0.0003
     30 C           3.1176   41.6023   10.9516 C.ar    1  UNL1       -0.0000
     31 C           3.2325   42.5843    9.9649 C.ar    1  UNL1       -0.0003
     32 C           4.4714   42.8344    9.3686 C.ar    1  UNL1       -0.0023
@<TRIPOS>BOND
     1    15    16    1
     2    16    14    1
     3     5    14    1
     4     6     7   ar
     5     6    13   ar
     6     7    12   ar
     7     8     9   ar
     8    10     5   ar
     9    11    12   ar
    10    11     3    1
    11    17     1    1
    12    17    24    1
    13    19    18    1
    14    19    25    1
    15    19    21    1
    16    19    27    1
    17    20    24   am
    18    28    29   ar
    19    30    31   ar
    20    32    27   ar
    21     3     1   am
    22    24    18   am
    23    25    20   am
    24     5     6   ar
    25     7     8   ar
    26     9    10   ar
    27    11    13   ar
    28     1     2    2
    29    18    22    2
    30    20    23    2
    31    27    28   ar
    32    29    30   ar
    33    31    32   ar
    34     3     4    1
    35    25    26    1
@<TRIPOS>MOLECULE
MolPort-016-718-365 MCULE-1952619002 PubChem-46975251
 32 35 0 0 0
SMALL
GASTEIGER

@<TRIPOS>ATOM
      1 C          10.4421   41.8075    8.4667 C.2     1  UNL1        0.2483
      2 O          11.2070   42.2554    9.3608 O.2     1  UNL1       -0.2728
      3 N          10.3265   40.4015    8.2213 N.am    1  UNL1       -0.2627
      4 H           9.6924   40.1241    7.5212 H       1  UNL1        0.1568
      5 C          13.9211   38.3623   10.7666 C.ar    1  UNL1        0.1566
      6 C          12.7113   38.4485   10.0709 C.ar    1  UNL1        0.1230
      7 C          11.9028   37.3306    9.9260 C.ar    1  UNL1        0.0527
      8 C          12.2460   36.0905   10.4561 C.ar    1  UNL1        0.0083
      9 C          13.4562   35.9891   11.1580 C.ar    1  UNL1        0.0037
     10 C          14.2876   37.1144   11.3136 C.ar    1  UNL1        0.0385
     11 C          11.0422   39.3585    8.8936 C.ar    1  UNL1        0.1657
     12 S          10.5333   37.7462    9.0520 S.2     1  UNL1       -0.0513
     13 N          12.2342   39.5831    9.4966 N.ar    1  UNL1       -0.2209
     14 O          14.7267   39.4989   10.9095 O.3     1  UNL1       -0.4739
     15 C          15.5349   40.7638    9.0180 C.3     1  UNL1        0.0512
     16 C          15.8699   39.7542   10.1003 C.3     1  UNL1        0.2056
     17 C           9.6696   42.7613    7.6216 C.3     1  UNL1        0.1876
     18 C           7.3479   43.3024    8.5701 C.2     1  UNL1        0.2528
     19 C           5.9097   43.0668    8.1954 C.3     1  UNL1        0.1467
     20 C           7.3932   41.8653    6.8621 C.2     1  UNL1        0.3107
     21 C           5.2642   44.3586    7.7171 C.3     1  UNL1        0.0337
     22 O           7.7365   44.1100    9.4568 O.2     1  UNL1       -0.2723
     23 O           7.8180   41.1220    5.9389 O.2     1  UNL1       -0.2521
     24 N           8.2397   42.5312    7.7797 N.am    1  UNL1       -0.2035
     25 N           6.0114   42.1347    7.0669 N.am    1  UNL1       -0.2806
     26 H           5.2618   41.7641    6.5474 H       1  UNL1        0.1516
     27 C           5.1308   42.4660    9.3470 C.ar    1  UNL1        0.0020
     28 C           3.7703   42.7631    9.5388 C.ar    1  UNL1       -0.0023
     29 C           3.0623   42.1994   10.6038 C.ar    1  UNL1       -0.0003
     30 C           3.7060   41.3318   11.4893 C.ar    1  UNL1       -0.0000
     31 C           5.0575   41.0276   11.3104 C.ar    1  UNL1       -0.0003
     32 C           5.7658   41.5912   10.2456 C.ar    1  UNL1       -0.0023
@<TRIPOS>BOND
     1    15    16    1
     2    16    14    1
     3     5    14    1
     4     6     7   ar
     5     6    13   ar
     6     7    12   ar
     7     8     9   ar
     8    10     5   ar
     9    11    12   ar
    10    11     3    1
    11    17     1    1
    12    17    24    1
    13    19    18    1
    14    19    25    1
    15    19    21    1
    16    19    27    1
    17    20    24   am
    18    28    29   ar
    19    30    31   ar
    20    32    27   ar
    21     3     1   am
    22    24    18   am
    23    25    20   am
    24     5     6   ar
    25     7     8   ar
    26     9    10   ar
    27    11    13   ar
    28     1     2    2
    29    18    22    2
    30    20    23    2
    31    27    28   ar
    32    29    30   ar
    33    31    32   ar
    34     3     4    1
    35    25    26    1
@<TRIPOS>MOLECULE
MolPort-016-718-365 MCULE-1952619002 PubChem-46975251
 32 35 0 0 0
SMALL
GASTEIGER

@<TRIPOS>ATOM
      1 C          10.9054   40.8753    7.1987 C.2     1  UNL1        0.2483
      2 O          10.8642   39.6271    7.0385 O.2     1  UNL1       -0.2728
      3 N          11.7752   41.4735    8.1662 N.am    1  UNL1       -0.2627
      4 H          11.7694   42.4565    8.2200 H       1  UNL1        0.1568
      5 C          15.9982   39.9123    9.9790 C.ar    1  UNL1        0.1566
      6 C          14.6141   40.0831    9.8777 C.ar    1  UNL1        0.1230
      7 C          13.7647   39.5051   10.8098 C.ar    1  UNL1        0.0527
      8 C          14.2363   38.7419   11.8736 C.ar    1  UNL1        0.0083
      9 C          15.6227   38.5631   11.9890 C.ar    1  UNL1        0.0037
     10 C          16.4978   39.1431   11.0512 C.ar    1  UNL1        0.0385
     11 C          12.6528   40.7834    9.0637 C.ar    1  UNL1        0.1657
     12 S          12.1776   39.8858   10.4246 S.2     1  UNL1       -0.0513
     13 N          13.9975   40.7983    8.9015 N.ar    1  UNL1       -0.2209
     14 O          16.8456   40.5041    9.0340 O.3     1  UNL1       -0.4739
     15 C          18.0914   42.2192    7.8776 C.3     1  UNL1        0.0512
     16 C          17.0604   41.9088    8.9470 C.3     1  UNL1        0.2056
     17 C          10.0041   41.7451    6.3915 C.3     1  UNL1        0.1876
     18 C           7.9710   42.4474    7.7899 C.2     1  UNL1        0.2528
     19 C           6.4746   42.3004    7.7306 C.3     1  UNL1        0.1467
     20 C           7.5690   40.9882    6.1486 C.2     1  UNL1        0.3107
     21 C           5.8221   43.6248    7.3640 C.3     1  UNL1        0.0337
     22 O           8.5855   43.2398    8.5541 O.2     1  UNL1       -0.2723
     23 O           7.7443   40.2071    5.1769 O.2     1  UNL1       -0.2521
     24 N           8.6283   41.6099    6.8511 N.am    1  UNL1       -0.2035
     25 N           6.2801   41.3490    6.6307 N.am    1  UNL1       -0.2806
     26 H           5.4170   41.0209    6.2893 H       1  UNL1        0.1516
     27 C           5.9205   41.7663    9.0350 C.ar    1  UNL1        0.0020
     28 C           4.6375   41.1960    9.1014 C.ar    1  UNL1       -0.0023
     29 C           4.1393   40.7039   10.3109 C.ar    1  UNL1       -0.0003
     30 C           4.9182   40.7759   11.4682 C.ar    1  UNL1       -0.0000
     31 C           6.1950   41.3399   11.4166 C.ar    1  UNL1       -0.0003
     32 C           6.6934   41.8321   10.2073 C.ar    1  UNL1       -0.0023
@<TRIPOS>BOND
     1    15    16    1
     2    16    14    1
     3     5    14    1
     4     6     7   ar
     5     6    13   ar
     6     7    12   ar
     7     8     9   ar
     8    10     5   ar
     9    11    12   ar
    10    11     3    1
    11    17     1    1
    12    17    24    1
    13    19    18    1
    14    19    25    1
    15    19    21    1
    16    19    27    1
    17    20    24   am
    18    28    29   ar
    19    30    31   ar
    20    32    27   ar
    21     3     1   am
    22    24    18   am
    23    25    20   am
    24     5     6   ar
    25     7     8   ar
    26     9    10   ar
    27    11    13   ar
    28     1     2    2
    29    18    22    2
    30    20    23    2
    31    27    28   ar
    32    29    30   ar
    33    31    32   ar
    34     3     4    1
    35    25    26    1
@<TRIPOS>MOLECULE
MolPort-016-718-365 MCULE-1952619002 PubChem-46975251
 32 35 0 0 0
SMALL
GASTEIGER

@<TRIPOS>ATOM
      1 C          10.8112   41.1666    7.7583 C.2     1  UNL1        0.2483
      2 O          10.2625   40.8695    8.8519 O.2     1  UNL1       -0.2728
      3 N          12.1978   40.8968    7.5235 N.am    1  UNL1       -0.2627
      4 H          12.5523   41.1368    6.6369 H       1  UNL1        0.1568
      5 C          13.8317   37.7220   10.8111 C.ar    1  UNL1        0.1566
      6 C          13.8467   38.8314    9.9601 C.ar    1  UNL1        0.1230
      7 C          14.9654   39.6488    9.8907 C.ar    1  UNL1        0.0527
      8 C          16.1085   39.4113   10.6480 C.ar    1  UNL1        0.0083
      9 C          16.1087   38.3009   11.5052 C.ar    1  UNL1        0.0037
     10 C          14.9812   37.4620   11.5868 C.ar    1  UNL1        0.0385
     11 C          13.1201   40.3125    8.4507 C.ar    1  UNL1        0.1657
     12 S          14.6823   40.8840    8.7923 S.2     1  UNL1       -0.0513
     13 N          12.8143   39.1980    9.1572 N.ar    1  UNL1       -0.2209
     14 O          12.6978   36.9021   10.8694 O.3     1  UNL1       -0.4739
     15 C          13.5159   35.0861    9.5042 C.3     1  UNL1        0.0512
     16 C          12.7509   35.4843   10.7530 C.3     1  UNL1        0.2056
     17 C          10.0110   41.8464    6.7009 C.3     1  UNL1        0.1876
     18 C           7.9352   42.8118    7.8591 C.2     1  UNL1        0.2528
     19 C           6.4406   42.7559    7.6931 C.3     1  UNL1        0.1467
     20 C           7.5527   41.2270    6.3338 C.2     1  UNL1        0.3107
     21 C           5.9137   44.0769    7.1533 C.3     1  UNL1        0.0337
     22 O           8.5464   43.6345    8.5933 O.2     1  UNL1       -0.2723
     23 O           7.7433   40.3444    5.4563 O.2     1  UNL1       -0.2521
     24 N           8.5987   41.8456    7.0585 N.am    1  UNL1       -0.2035
     25 N           6.2608   41.7154    6.6745 N.am    1  UNL1       -0.2806
     26 H           5.4041   41.4113    6.2966 H       1  UNL1        0.1516
     27 C           5.7544   42.3894    8.9926 C.ar    1  UNL1        0.0020
     28 C           4.4666   42.8648    9.2947 C.ar    1  UNL1       -0.0023
     29 C           3.8433   42.5163   10.4961 C.ar    1  UNL1       -0.0003
     30 C           4.5001   41.6884   11.4094 C.ar    1  UNL1       -0.0000
     31 C           5.7801   41.2086   11.1219 C.ar    1  UNL1       -0.0003
     32 C           6.4036   41.5569    9.9207 C.ar    1  UNL1       -0.0023
@<TRIPOS>BOND
     1    15    16    1
     2    16    14    1
     3     5    14    1
     4     6     7   ar
     5     6    13   ar
     6     7    12   ar
     7     8     9   ar
     8    10     5   ar
     9    11    12   ar
    10    11     3    1
    11    17     1    1
    12    17    24    1
    13    19    18    1
    14    19    25    1
    15    19    21    1
    16    19    27    1
    17    20    24   am
    18    28    29   ar
    19    30    31   ar
    20    32    27   ar
    21     3     1   am
    22    24    18   am
    23    25    20   am
    24     5     6   ar
    25     7     8   ar
    26     9    10   ar
    27    11    13   ar
    28     1     2    2
    29    18    22    2
    30    20    23    2
    31    27    28   ar
    32    29    30   ar
    33    31    32   ar
    34     3     4    1
    35    25    26    1
