@<TRIPOS>MOLECULE
MolPort-019-899-254 67919839 CSSS00159803642 MCULE-1718019258 PubChem-56756871 ZINC000067919839
 22 23 0 0 0
SMALL
GASTEIGER

@<TRIPOS>ATOM
      1 C           8.3145   40.2123    7.7757 C.ar    1  UNL1        0.0980
      2 C           8.0794   41.5693    7.8987 C.ar    1  UNL1        0.1192
      3 C          10.1894   41.2746    7.6729 C.ar    1  UNL1        0.1439
      4 N           9.6394   40.0417    7.6297 N.ar    1  UNL1       -0.3102
      5 N           9.2537   42.2314    7.8346 N.ar    1  UNL1       -0.2252
      6 C          11.6332   41.5890    7.5502 C.ar    1  UNL1        0.0342
      7 C          12.4660   41.4533    8.6702 C.ar    1  UNL1        0.0043
      8 C          13.8288   41.7495    8.5825 C.ar    1  UNL1        0.0148
      9 C          14.3823   42.1883    7.3713 C.ar    1  UNL1        0.0503
     10 C          13.5546   42.3262    6.2534 C.ar    1  UNL1        0.0148
     11 C          12.1919   42.0297    6.3422 C.ar    1  UNL1        0.0043
     12 C          16.3386   43.7648    6.8643 C.2     1  UNL1        0.2266
     13 C          17.8153   43.9066    6.7812 C.3     1  UNL1        0.0949
     14 N          15.7758   42.5020    7.2416 N.am    1  UNL1       -0.2839
     15 O          15.6076   44.7559    6.6019 O.2     1  UNL1       -0.2748
     16 H          16.4114   41.7746    7.4315 H       1  UNL1        0.1549
     17 C          10.3082   38.7539    7.5067 C.3     1  UNL1        0.1090
     18 C          10.7519   38.2590    8.8729 C.3     1  UNL1        0.0418
     19 C          12.2521   38.0154    8.8794 C.3     1  UNL1        0.0742
     20 C          11.4244   36.4417   10.3870 C.3     1  UNL1        0.0897
     21 C          13.5579   36.1754    9.4960 C.3     1  UNL1        0.0897
     22 N          12.6216   37.1648   10.0005 N.3     1  UNL1       -0.2703
@<TRIPOS>BOND
     1    20    22    1
     2    21    22    1
     3    19    22    1
     4    19    18    1
     5    18    17    1
     6    17     4    1
     7     2     5   ar
     8     3     6    1
     9     3     4   ar
    10     7     8   ar
    11     9    14    1
    12     9    10   ar
    13    13    12    1
    14    11     6   ar
    15     4     1   ar
    16    14    12   am
    17     1     2   ar
    18     3     5   ar
    19     6     7   ar
    20     8     9   ar
    21    12    15    2
    22    10    11   ar
    23    14    16    1
@<TRIPOS>MOLECULE
MolPort-019-899-254 67919839 CSSS00159803642 MCULE-1718019258 PubChem-56756871 ZINC000067919839
 22 23 0 0 0
SMALL
GASTEIGER

@<TRIPOS>ATOM
      1 C          11.1652   41.0052   11.1551 C.ar    1  UNL1        0.0980
      2 C          10.3294   41.0276   12.2563 C.ar    1  UNL1        0.1192
      3 C           9.3032   41.9543   10.6199 C.ar    1  UNL1        0.1439
      4 N          10.5085   41.5840   10.1355 N.ar    1  UNL1       -0.3102
      5 N           9.1657   41.6221   11.9190 N.ar    1  UNL1       -0.2252
      6 C           8.2283   42.6321    9.8558 C.ar    1  UNL1        0.0342
      7 C           7.0938   41.9046    9.4685 C.ar    1  UNL1        0.0043
      8 C           6.0699   42.5184    8.7422 C.ar    1  UNL1        0.0148
      9 C           6.1642   43.8722    8.3895 C.ar    1  UNL1        0.0503
     10 C           7.2945   44.5997    8.7726 C.ar    1  UNL1        0.0148
     11 C           8.3179   43.9850    9.4989 C.ar    1  UNL1        0.0043
     12 C           3.7559   44.6656    8.0149 C.2     1  UNL1        0.2266
     13 C           2.8262   45.3937    7.1132 C.3     1  UNL1        0.0949
     14 N           5.1345   44.5372    7.6449 N.am    1  UNL1       -0.2839
     15 O           3.3170   44.1741    9.0878 O.2     1  UNL1       -0.2748
     16 H           5.4025   44.9481    6.7913 H       1  UNL1        0.1549
     17 C          11.0541   41.7956    8.8019 C.3     1  UNL1        0.1090
     18 C          12.4293   41.1597    8.6892 C.3     1  UNL1        0.0418
     19 C          12.3405   39.8546    7.9154 C.3     1  UNL1        0.0742
     20 C          14.4464   39.8281    8.9148 C.3     1  UNL1        0.0897
     21 C          12.9978   38.0337    9.2280 C.3     1  UNL1        0.0897
     22 N          13.4666   38.9940    8.2441 N.3     1  UNL1       -0.2703
@<TRIPOS>BOND
     1    20    22    1
     2    21    22    1
     3    19    22    1
     4    19    18    1
     5    18    17    1
     6    17     4    1
     7     2     5   ar
     8     3     6    1
     9     3     4   ar
    10     7     8   ar
    11     9    14    1
    12     9    10   ar
    13    13    12    1
    14    11     6   ar
    15     4     1   ar
    16    14    12   am
    17     1     2   ar
    18     3     5   ar
    19     6     7   ar
    20     8     9   ar
    21    12    15    2
    22    10    11   ar
    23    14    16    1
@<TRIPOS>MOLECULE
MolPort-019-899-254 67919839 CSSS00159803642 MCULE-1718019258 PubChem-56756871 ZINC000067919839
 22 23 0 0 0
SMALL
GASTEIGER

@<TRIPOS>ATOM
      1 C          10.6276   40.2513    9.9573 C.ar    1  UNL1        0.0980
      2 C          11.5700   40.5405   10.9269 C.ar    1  UNL1        0.1192
      3 C          12.1351   38.7080    9.9716 C.ar    1  UNL1        0.1439
      4 N          10.9961   39.1039    9.3629 N.ar    1  UNL1       -0.3102
      5 N          12.5114   39.5735   10.9340 N.ar    1  UNL1       -0.2252
      6 C          12.9167   37.4899    9.6495 C.ar    1  UNL1        0.0342
      7 C          13.9833   37.5746    8.7432 C.ar    1  UNL1        0.0043
      8 C          14.7314   36.4400    8.4180 C.ar    1  UNL1        0.0148
      9 C          14.4237   35.1991    8.9938 C.ar    1  UNL1        0.0503
     10 C          13.3601   35.1109    9.8963 C.ar    1  UNL1        0.0148
     11 C          12.6127   36.2462   10.2209 C.ar    1  UNL1        0.0043
     12 C          14.6347   32.7029    8.4519 C.2     1  UNL1        0.2266
     13 C          15.5630   31.5847    8.1434 C.3     1  UNL1        0.0949
     14 N          15.1678   34.0125    8.6853 N.am    1  UNL1       -0.2839
     15 O          13.3963   32.4809    8.5030 O.2     1  UNL1       -0.2748
     16 H          16.1461   34.1075    8.6279 H       1  UNL1        0.1549
     17 C          10.2496   38.4307    8.3091 C.3     1  UNL1        0.1090
     18 C           9.8853   39.4155    7.2111 C.3     1  UNL1        0.0418
     19 C           8.3882   39.6774    7.2185 C.3     1  UNL1        0.0742
     20 C           9.2489   41.6597    6.3444 C.3     1  UNL1        0.0897
     21 C           6.9663   41.2296    6.1991 C.3     1  UNL1        0.0897
     22 N           8.1227   41.1000    7.0684 N.3     1  UNL1       -0.2703
@<TRIPOS>BOND
     1    20    22    1
     2    21    22    1
     3    19    22    1
     4    19    18    1
     5    18    17    1
     6    17     4    1
     7     2     5   ar
     8     3     6    1
     9     3     4   ar
    10     7     8   ar
    11     9    14    1
    12     9    10   ar
    13    13    12    1
    14    11     6   ar
    15     4     1   ar
    16    14    12   am
    17     1     2   ar
    18     3     5   ar
    19     6     7   ar
    20     8     9   ar
    21    12    15    2
    22    10    11   ar
    23    14    16    1
@<TRIPOS>MOLECULE
MolPort-019-899-254 67919839 CSSS00159803642 MCULE-1718019258 PubChem-56756871 ZINC000067919839
 22 23 0 0 0
SMALL
GASTEIGER

@<TRIPOS>ATOM
      1 C           8.5130   40.2609    6.8485 C.ar    1  UNL1        0.0980
      2 C           9.0683   39.2621    6.0702 C.ar    1  UNL1        0.1192
      3 C          10.6602   40.4706    6.8417 C.ar    1  UNL1        0.1439
      4 N           9.5211   41.0078    7.3299 N.ar    1  UNL1       -0.3102
      5 N          10.4113   39.3958    6.0673 N.ar    1  UNL1       -0.2252
      6 C          12.0356   40.9577    7.1053 C.ar    1  UNL1        0.0342
      7 C          12.6001   41.9214    6.2575 C.ar    1  UNL1        0.0043
      8 C          13.8969   42.3920    6.4804 C.ar    1  UNL1        0.0148
      9 C          14.6525   41.9048    7.5562 C.ar    1  UNL1        0.0503
     10 C          14.0934   40.9429    8.4023 C.ar    1  UNL1        0.0148
     11 C          12.7965   40.4730    8.1785 C.ar    1  UNL1        0.0043
     12 C          16.5282   43.6506    7.4982 C.2     1  UNL1        0.2266
     13 C          17.9411   43.9510    7.8463 C.3     1  UNL1        0.0949
     14 N          15.9862   42.3629    7.8176 N.am    1  UNL1       -0.2839
     15 O          15.8319   44.5318    6.9290 O.2     1  UNL1       -0.2748
     16 H          16.5920   41.7271    8.2625 H       1  UNL1        0.1549
     17 C           9.3612   42.1887    8.1671 C.3     1  UNL1        0.1090
     18 C           7.9280   42.6889    8.1027 C.3     1  UNL1        0.0418
     19 C           7.3097   42.6856    9.4912 C.3     1  UNL1        0.0742
     20 C           6.1491   41.4738   11.1095 C.3     1  UNL1        0.0897
     21 C           5.5166   41.3159    8.8753 C.3     1  UNL1        0.0897
     22 N           6.6681   41.4069    9.7561 N.3     1  UNL1       -0.2703
@<TRIPOS>BOND
     1    20    22    1
     2    21    22    1
     3    19    22    1
     4    19    18    1
     5    18    17    1
     6    17     4    1
     7     2     5   ar
     8     3     6    1
     9     3     4   ar
    10     7     8   ar
    11     9    14    1
    12     9    10   ar
    13    13    12    1
    14    11     6   ar
    15     4     1   ar
    16    14    12   am
    17     1     2   ar
    18     3     5   ar
    19     6     7   ar
    20     8     9   ar
    21    12    15    2
    22    10    11   ar
    23    14    16    1
@<TRIPOS>MOLECULE
MolPort-019-899-254 67919839 CSSS00159803642 MCULE-1718019258 PubChem-56756871 ZINC000067919839
 22 23 0 0 0
SMALL
GASTEIGER

@<TRIPOS>ATOM
      1 C           9.0483   44.3455   10.2671 C.ar    1  UNL1        0.0980
      2 C           8.0022   44.6972    9.4342 C.ar    1  UNL1        0.1192
      3 C           8.9212   42.9310    8.6431 C.ar    1  UNL1        0.1439
      4 N           9.6123   43.2348    9.7631 N.ar    1  UNL1       -0.3102
      5 N           7.9252   43.8112    8.4191 N.ar    1  UNL1       -0.2252
      6 C           9.1790   41.7788    7.7462 C.ar    1  UNL1        0.0342
      7 C          10.1571   41.8878    6.7474 C.ar    1  UNL1        0.0043
      8 C          10.4146   40.8187    5.8851 C.ar    1  UNL1        0.0148
      9 C           9.6959   39.6209    6.0069 C.ar    1  UNL1        0.0503
     10 C           8.7191   39.5096    7.0004 C.ar    1  UNL1        0.0148
     11 C           8.4624   40.5793    7.8622 C.ar    1  UNL1        0.0043
     12 C           9.6270   38.4208    3.7431 C.2     1  UNL1        0.2266
     13 C           9.9431   37.1726    3.0018 C.3     1  UNL1        0.0949
     14 N           9.9312   38.5019    5.1413 N.am    1  UNL1       -0.2839
     15 O           9.0977   39.3853    3.1308 O.2     1  UNL1       -0.2748
     16 H          10.3444   37.7071    5.5498 H       1  UNL1        0.1549
     17 C          10.7746   42.5591   10.3231 C.3     1  UNL1        0.1090
     18 C          10.3386   41.3661   11.1568 C.3     1  UNL1        0.0418
     19 C          10.9484   40.0892   10.6022 C.3     1  UNL1        0.0742
     20 C          13.2388   39.7989   10.9247 C.3     1  UNL1        0.0897
     21 C          12.3403   39.6015    8.7869 C.3     1  UNL1        0.0897
     22 N          12.2537   40.3630   10.0208 N.3     1  UNL1       -0.2703
@<TRIPOS>BOND
     1    20    22    1
     2    21    22    1
     3    19    22    1
     4    19    18    1
     5    18    17    1
     6    17     4    1
     7     2     5   ar
     8     3     6    1
     9     3     4   ar
    10     7     8   ar
    11     9    14    1
    12     9    10   ar
    13    13    12    1
    14    11     6   ar
    15     4     1   ar
    16    14    12   am
    17     1     2   ar
    18     3     5   ar
    19     6     7   ar
    20     8     9   ar
    21    12    15    2
    22    10    11   ar
    23    14    16    1
@<TRIPOS>MOLECULE
MolPort-019-899-254 67919839 CSSS00159803642 MCULE-1718019258 PubChem-56756871 ZINC000067919839
 22 23 0 0 0
SMALL
GASTEIGER

@<TRIPOS>ATOM
      1 C           4.4063   43.1696    9.4630 C.ar    1  UNL1        0.0980
      2 C           3.8985   41.9531    9.8803 C.ar    1  UNL1        0.1192
      3 C           5.5442   41.5732    8.5624 C.ar    1  UNL1        0.1439
      4 N           5.4399   42.9175    8.6421 N.ar    1  UNL1       -0.3102
      5 N           4.6116   40.9564    9.3153 N.ar    1  UNL1       -0.2252
      6 C           6.5484   40.8230    7.7703 C.ar    1  UNL1        0.0342
      7 C           6.1561   40.1887    6.5829 C.ar    1  UNL1        0.0043
      8 C           7.0817   39.4700    5.8217 C.ar    1  UNL1        0.0148
      9 C           8.4174   39.3724    6.2369 C.ar    1  UNL1        0.0503
     10 C           8.8114   40.0020    7.4210 C.ar    1  UNL1        0.0148
     11 C           7.8849   40.7205    8.1814 C.ar    1  UNL1        0.0043
     12 C           9.6858   38.7898    4.0873 C.2     1  UNL1        0.2266
     13 C          10.7410   37.9441    3.4717 C.3     1  UNL1        0.0949
     14 N           9.3964   38.6441    5.4833 N.am    1  UNL1       -0.2839
     15 O           9.0645   39.6194    3.3724 O.2     1  UNL1       -0.2748
     16 H           9.9243   37.9748    5.9759 H       1  UNL1        0.1549
     17 C           6.2281   43.9308    7.9544 C.3     1  UNL1        0.1090
     18 C           7.1799   44.6066    8.9269 C.3     1  UNL1        0.0418
     19 C           8.5290   43.9067    8.9105 C.3     1  UNL1        0.0742
     20 C           8.4350   42.8790   11.0008 C.3     1  UNL1        0.0897
     21 C          10.4961   43.4767   10.1003 C.3     1  UNL1        0.0897
     22 N           9.1170   43.9103   10.2412 N.3     1  UNL1       -0.2703
@<TRIPOS>BOND
     1    20    22    1
     2    21    22    1
     3    19    22    1
     4    19    18    1
     5    18    17    1
     6    17     4    1
     7     2     5   ar
     8     3     6    1
     9     3     4   ar
    10     7     8   ar
    11     9    14    1
    12     9    10   ar
    13    13    12    1
    14    11     6   ar
    15     4     1   ar
    16    14    12   am
    17     1     2   ar
    18     3     5   ar
    19     6     7   ar
    20     8     9   ar
    21    12    15    2
    22    10    11   ar
    23    14    16    1
@<TRIPOS>MOLECULE
MolPort-019-899-254 67919839 CSSS00159803642 MCULE-1718019258 PubChem-56756871 ZINC000067919839
 22 23 0 0 0
SMALL
GASTEIGER

@<TRIPOS>ATOM
      1 C          17.1724   40.2751    9.7900 C.ar    1  UNL1        0.0980
      2 C          17.1069   41.3775    8.9580 C.ar    1  UNL1        0.1192
      3 C          15.1190   40.6258    9.2288 C.ar    1  UNL1        0.1439
      4 N          15.9201   39.8169    9.9557 N.ar    1  UNL1       -0.3102
      5 N          15.8216   41.5944    8.6081 N.ar    1  UNL1       -0.2252
      6 C          13.6457   40.5115    9.1069 C.ar    1  UNL1        0.0342
      7 C          13.0661   40.3947    7.8355 C.ar    1  UNL1        0.0043
      8 C          11.6797   40.2922    7.6931 C.ar    1  UNL1        0.0148
      9 C          10.8484   40.3061    8.8221 C.ar    1  UNL1        0.0503
     10 C          11.4229   40.4242   10.0908 C.ar    1  UNL1        0.0148
     11 C          12.8094   40.5266   10.2321 C.ar    1  UNL1        0.0043
     12 C           8.4994   41.2763    8.4898 C.2     1  UNL1        0.2266
     13 C           7.0456   40.9803    8.4095 C.3     1  UNL1        0.0949
     14 N           9.4218   40.2032    8.7169 N.am    1  UNL1       -0.2839
     15 O           8.8958   42.4640    8.3571 O.2     1  UNL1       -0.2748
     16 H           9.0362   39.3022    8.8103 H       1  UNL1        0.1549
     17 C          15.5560   38.6409   10.7339 C.3     1  UNL1        0.1090
     18 C          16.2527   37.4086   10.1821 C.3     1  UNL1        0.0418
     19 C          15.3765   36.7353    9.1385 C.3     1  UNL1        0.0742
     20 C          13.5230   35.4314    9.6850 C.3     1  UNL1        0.0897
     21 C          15.3088   34.4757    8.5386 C.3     1  UNL1        0.0897
     22 N          14.9711   35.4145    9.5944 N.3     1  UNL1       -0.2703
@<TRIPOS>BOND
     1    20    22    1
     2    21    22    1
     3    19    22    1
     4    19    18    1
     5    18    17    1
     6    17     4    1
     7     2     5   ar
     8     3     6    1
     9     3     4   ar
    10     7     8   ar
    11     9    14    1
    12     9    10   ar
    13    13    12    1
    14    11     6   ar
    15     4     1   ar
    16    14    12   am
    17     1     2   ar
    18     3     5   ar
    19     6     7   ar
    20     8     9   ar
    21    12    15    2
    22    10    11   ar
    23    14    16    1
@<TRIPOS>MOLECULE
MolPort-019-899-254 67919839 CSSS00159803642 MCULE-1718019258 PubChem-56756871 ZINC000067919839
 22 23 0 0 0
SMALL
GASTEIGER

@<TRIPOS>ATOM
      1 C          14.2918   41.2442    8.1495 C.ar    1  UNL1        0.0980
      2 C          14.0647   42.2915    7.2757 C.ar    1  UNL1        0.1192
      3 C          12.2370   41.8804    8.3152 C.ar    1  UNL1        0.1439
      4 N          13.1405   41.0001    8.7981 N.ar    1  UNL1       -0.3102
      5 N          12.7788   42.6872    7.3810 N.ar    1  UNL1       -0.2252
      6 C          10.8197   41.9931    8.7360 C.ar    1  UNL1        0.0342
      7 C          10.4564   42.9619    9.6824 C.ar    1  UNL1        0.0043
      8 C           9.1287   43.0841   10.1005 C.ar    1  UNL1        0.0148
      9 C           8.1405   42.2371    9.5790 C.ar    1  UNL1        0.0503
     10 C           8.4996   41.2692    8.6367 C.ar    1  UNL1        0.0148
     11 C           9.8277   41.1478    8.2192 C.ar    1  UNL1        0.0043
     12 C           6.1682   41.7199   11.1321 C.2     1  UNL1        0.2266
     13 C           4.7209   41.9288   11.3947 C.3     1  UNL1        0.0949
     14 N           6.7676   42.3316    9.9830 N.am    1  UNL1       -0.2839
     15 O           6.8428   41.0094   11.9230 O.2     1  UNL1       -0.2748
     16 H           6.1758   42.8727    9.4119 H       1  UNL1        0.1549
     17 C          12.9426   39.9450    9.7821 C.3     1  UNL1        0.1090
     18 C          12.6837   38.6191    9.0869 C.3     1  UNL1        0.0418
     19 C          13.2324   37.4742    9.9225 C.3     1  UNL1        0.0742
     20 C          15.2863   36.7114    9.1264 C.3     1  UNL1        0.0897
     21 C          13.6229   35.1809    9.6803 C.3     1  UNL1        0.0897
     22 N          13.8556   36.4766    9.0663 N.3     1  UNL1       -0.2703
@<TRIPOS>BOND
     1    20    22    1
     2    21    22    1
     3    19    22    1
     4    19    18    1
     5    18    17    1
     6    17     4    1
     7     2     5   ar
     8     3     6    1
     9     3     4   ar
    10     7     8   ar
    11     9    14    1
    12     9    10   ar
    13    13    12    1
    14    11     6   ar
    15     4     1   ar
    16    14    12   am
    17     1     2   ar
    18     3     5   ar
    19     6     7   ar
    20     8     9   ar
    21    12    15    2
    22    10    11   ar
    23    14    16    1
@<TRIPOS>MOLECULE
MolPort-019-899-254 67919839 CSSS00159803642 MCULE-1718019258 PubChem-56756871 ZINC000067919839
 22 23 0 0 0
SMALL
GASTEIGER

@<TRIPOS>ATOM
      1 C          13.9380   40.5864    9.4182 C.ar    1  UNL1        0.0980
      2 C          13.4429   39.9513   10.5422 C.ar    1  UNL1        0.1192
      3 C          11.8818   41.1660    9.7190 C.ar    1  UNL1        0.1439
      4 N          12.9487   41.3399    8.9092 N.ar    1  UNL1       -0.3102
      5 N          12.1569   40.3159   10.7284 N.ar    1  UNL1       -0.2252
      6 C          10.5507   41.7981    9.5539 C.ar    1  UNL1        0.0342
      7 C          10.3694   43.1342    9.9388 C.ar    1  UNL1        0.0043
      8 C           9.1233   43.7510    9.7996 C.ar    1  UNL1        0.0148
      9 C           8.0353   43.0401    9.2733 C.ar    1  UNL1        0.0503
     10 C           8.2123   41.7076    8.8903 C.ar    1  UNL1        0.0148
     11 C           9.4589   41.0917    9.0298 C.ar    1  UNL1        0.0043
     12 C           6.1573   44.1066    7.8931 C.2     1  UNL1        0.2266
     13 C           4.7966   44.7025    7.9196 C.3     1  UNL1        0.0949
     14 N           6.7414   43.6382    9.1151 N.am    1  UNL1       -0.2839
     15 O           6.7735   44.0234    6.7982 O.2     1  UNL1       -0.2748
     16 H           6.1983   43.7372    9.9302 H       1  UNL1        0.1549
     17 C          13.0698   42.2010    7.7408 C.3     1  UNL1        0.1090
     18 C          14.4365   42.0288    7.0999 C.3     1  UNL1        0.0418
     19 C          15.1047   43.3820    6.9207 C.3     1  UNL1        0.0742
     20 C          17.1034   44.0171    5.9028 C.3     1  UNL1        0.0897
     21 C          16.9747   43.9067    8.2240 C.3     1  UNL1        0.0897
     22 N          16.5511   43.2466    7.0014 N.3     1  UNL1       -0.2703
@<TRIPOS>BOND
     1    20    22    1
     2    21    22    1
     3    19    22    1
     4    19    18    1
     5    18    17    1
     6    17     4    1
     7     2     5   ar
     8     3     6    1
     9     3     4   ar
    10     7     8   ar
    11     9    14    1
    12     9    10   ar
    13    13    12    1
    14    11     6   ar
    15     4     1   ar
    16    14    12   am
    17     1     2   ar
    18     3     5   ar
    19     6     7   ar
    20     8     9   ar
    21    12    15    2
    22    10    11   ar
    23    14    16    1
@<TRIPOS>MOLECULE
MolPort-019-899-254 67919839 CSSS00159803642 MCULE-1718019258 PubChem-56756871 ZINC000067919839
 22 23 0 0 0
SMALL
GASTEIGER

@<TRIPOS>ATOM
      1 C           8.8458   44.4299   10.1731 C.ar    1  UNL1        0.0980
      2 C           7.8408   44.7860    9.2927 C.ar    1  UNL1        0.1192
      3 C           8.7741   43.0040    8.5556 C.ar    1  UNL1        0.1439
      4 N           9.4190   43.3093    9.7025 N.ar    1  UNL1       -0.3102
      5 N           7.7984   43.8929    8.2818 N.ar    1  UNL1       -0.2252
      6 C           9.0581   41.8420    7.6795 C.ar    1  UNL1        0.0342
      7 C          10.2608   41.7987    6.9599 C.ar    1  UNL1        0.0043
      8 C          10.5493   40.7180    6.1223 C.ar    1  UNL1        0.0148
      9 C           9.6375   39.6612    5.9893 C.ar    1  UNL1        0.0503
     10 C           8.4370   39.7021    6.7038 C.ar    1  UNL1        0.0148
     11 C           8.1494   40.7833    7.5412 C.ar    1  UNL1        0.0043
     12 C           9.6169   38.4361    3.7380 C.2     1  UNL1        0.2266
     13 C           9.9570   37.1831    3.0156 C.3     1  UNL1        0.0949
     14 N           9.8976   38.5352    5.1399 N.am    1  UNL1       -0.2839
     15 O           9.0883   39.3886    3.1066 O.2     1  UNL1       -0.2748
     16 H          10.3118   37.7490    5.5637 H       1  UNL1        0.1549
     17 C          10.5483   42.6258   10.3177 C.3     1  UNL1        0.1090
     18 C          10.1552   41.2132   10.7154 C.3     1  UNL1        0.0418
     19 C          10.2941   41.0348   12.2184 C.3     1  UNL1        0.0742
     20 C           7.9649   40.9815   12.2972 C.3     1  UNL1        0.0897
     21 C           9.1837   41.1158   14.2753 C.3     1  UNL1        0.0897
     22 N           9.1356   41.5885   12.9027 N.3     1  UNL1       -0.2703
@<TRIPOS>BOND
     1    20    22    1
     2    21    22    1
     3    19    22    1
     4    19    18    1
     5    18    17    1
     6    17     4    1
     7     2     5   ar
     8     3     6    1
     9     3     4   ar
    10     7     8   ar
    11     9    14    1
    12     9    10   ar
    13    13    12    1
    14    11     6   ar
    15     4     1   ar
    16    14    12   am
    17     1     2   ar
    18     3     5   ar
    19     6     7   ar
    20     8     9   ar
    21    12    15    2
    22    10    11   ar
    23    14    16    1
