@<TRIPOS>MOLECULE
MolPort-039-219-020 299764338 CSSS02125518311 MCULE-6889923365 PubChem-118772150 ZINC000299764338
 26 28 0 0 0
SMALL
GASTEIGER

@<TRIPOS>ATOM
      1 C           9.7512   41.8239    9.6143 C.ar    1  UNL1        0.0651
      2 C          10.8521   40.9786    9.7994 C.ar    1  UNL1        0.0201
      3 C          11.0662   39.8838    8.9590 C.ar    1  UNL1        0.0518
      4 C          10.1608   39.6223    7.9235 C.ar    1  UNL1        0.0156
      5 C           9.0632   40.4602    7.7267 C.ar    1  UNL1        0.0128
      6 C           8.8577   41.5692    8.5541 C.ar    1  UNL1        0.0621
      7 CL          7.5412   42.6648    8.1552 Cl      1  UNL1       -0.0821
      8 C          13.4607   39.4705    9.7150 C.2     1  UNL1        0.3077
      9 C          14.5956   37.3746    8.8728 C.3     1  UNL1        0.0950
     10 C          15.9232   36.7058    9.1801 C.3     1  UNL1        0.0246
     11 C          16.4542   37.3801   10.4380 C.3     1  UNL1        0.0371
     12 C          17.9045   37.7529   10.2634 C.3     1  UNL1        0.0703
     13 C          16.6919   39.7464   10.0375 C.3     1  UNL1        0.0887
     14 C          15.7237   38.6939   10.5569 C.3     1  UNL1        0.0938
     15 N          12.1949   39.0391    9.2007 N.am    1  UNL1       -0.2681
     16 N          14.5844   38.5851    9.6671 N.am    1  UNL1       -0.2642
     17 N          17.9720   39.1117    9.7417 N.3     1  UNL1       -0.2960
     18 O          13.5720   40.5959   10.2648 O.2     1  UNL1       -0.2522
     19 H          12.0935   38.0813    8.9966 H       1  UNL1        0.1564
     20 H          18.1290   39.0927    8.7340 H       1  UNL1        0.1233
     21 C           9.6271   43.0143   10.4737 C.2     1  UNL1        0.2467
     22 N           8.7108   43.0593   11.5678 N.am    1  UNL1       -0.3008
     23 O          10.3969   43.9950   10.2792 O.2     1  UNL1       -0.2701
     24 H           8.5952   43.9132   12.0440 H       1  UNL1        0.1497
     25 C           8.7429   41.1437   13.0418 C.3     1  UNL1        0.0230
     26 C           7.9391   41.9107   12.0164 C.3     1  UNL1        0.0898
@<TRIPOS>BOND
     1    25    26    1
     2    26    22    1
     3    21     1    1
     4     2     3   ar
     5     3    15    1
     6     8    16   am
     7     9    16    1
     8     9    10    1
     9    11    10    1
    10    11    12    1
    11    12    17    1
    12    13    17    1
    13    14    13    1
    14    14    16    1
    15    14    11    1
    16     4     5   ar
    17     6     7    1
    18     6     1   ar
    19    22    21   am
    20    15     8   am
    21    21    23    2
    22     1     2   ar
    23     3     4   ar
    24     8    18    2
    25     5     6   ar
    26    22    24    1
    27    15    19    1
    28    17    20    1
@<TRIPOS>MOLECULE
MolPort-039-219-020 299764338 CSSS02125518311 MCULE-6889923365 PubChem-118772150 ZINC000299764338
 26 28 0 0 0
SMALL
GASTEIGER

@<TRIPOS>ATOM
      1 C           8.2920   42.5611    8.6081 C.ar    1  UNL1        0.0651
      2 C           8.8836   41.3291    8.9133 C.ar    1  UNL1        0.0201
      3 C           9.8017   41.2130    9.9594 C.ar    1  UNL1        0.0518
      4 C          10.1429   42.3471   10.7061 C.ar    1  UNL1        0.0156
      5 C           9.5564   43.5785   10.4142 C.ar    1  UNL1        0.0128
      6 C           8.6211   43.6935    9.3804 C.ar    1  UNL1        0.0621
      7 CL          7.8118   45.2401    9.1669 Cl      1  UNL1       -0.0821
      8 C          11.6923   39.5185    9.7844 C.2     1  UNL1        0.3077
      9 C          11.1027   37.0854   10.1345 C.3     1  UNL1        0.0950
     10 C          11.9239   35.8136   10.2468 C.3     1  UNL1        0.0246
     11 C          13.3683   36.2589   10.4322 C.3     1  UNL1        0.0371
     12 C          14.2790   35.4896    9.5093 C.3     1  UNL1        0.0703
     13 C          14.0344   37.6160    8.5531 C.3     1  UNL1        0.0887
     14 C          13.4383   37.6863    9.9513 C.3     1  UNL1        0.0938
     15 N          10.3929   39.9368   10.2197 N.am    1  UNL1       -0.2681
     16 N          12.0629   38.1394    9.8824 N.am    1  UNL1       -0.2642
     17 N          14.4132   36.2366    8.2655 N.3     1  UNL1       -0.2960
     18 O          12.5285   40.3652    9.3783 O.2     1  UNL1       -0.2522
     19 H           9.8626   39.2919   10.7414 H       1  UNL1        0.1564
     20 H          13.7965   35.8451    7.5536 H       1  UNL1        0.1233
     21 C           7.2632   42.6045    7.5542 C.2     1  UNL1        0.2467
     22 N           5.8738   42.4697    7.8540 N.am    1  UNL1       -0.3008
     23 O           7.6131   42.8329    6.3636 O.2     1  UNL1       -0.2701
     24 H           5.2395   42.4030    7.1041 H       1  UNL1        0.1497
     25 C           4.6901   41.0833    9.4415 C.3     1  UNL1        0.0230
     26 C           5.3454   42.4258    9.2087 C.3     1  UNL1        0.0898
@<TRIPOS>BOND
     1    25    26    1
     2    26    22    1
     3    21     1    1
     4     2     3   ar
     5     3    15    1
     6     8    16   am
     7     9    16    1
     8     9    10    1
     9    11    10    1
    10    11    12    1
    11    12    17    1
    12    13    17    1
    13    14    13    1
    14    14    16    1
    15    14    11    1
    16     4     5   ar
    17     6     7    1
    18     6     1   ar
    19    22    21   am
    20    15     8   am
    21    21    23    2
    22     1     2   ar
    23     3     4   ar
    24     8    18    2
    25     5     6   ar
    26    22    24    1
    27    15    19    1
    28    17    20    1
@<TRIPOS>MOLECULE
MolPort-039-219-020 299764338 CSSS02125518311 MCULE-6889923365 PubChem-118772150 ZINC000299764338
 26 28 0 0 0
SMALL
GASTEIGER

@<TRIPOS>ATOM
      1 C          15.4178   41.5584    8.4284 C.ar    1  UNL1        0.0651
      2 C          14.0351   41.3533    8.3436 C.ar    1  UNL1        0.0201
      3 C          13.2477   42.1169    7.4789 C.ar    1  UNL1        0.0518
      4 C          13.8486   43.1085    6.6941 C.ar    1  UNL1        0.0156
      5 C          15.2256   43.3184    6.7667 C.ar    1  UNL1        0.0128
      6 C          16.0195   42.5412    7.6166 C.ar    1  UNL1        0.0621
      7 CL         17.7633   42.7582    7.5457 Cl      1  UNL1       -0.0821
      8 C          10.9082   42.2401    8.4728 C.2     1  UNL1        0.3077
      9 C           9.1804   40.6308    7.5701 C.3     1  UNL1        0.0950
     10 C           7.6862   40.4689    7.7835 C.3     1  UNL1        0.0246
     11 C           7.2204   41.7375    8.4855 C.3     1  UNL1        0.0371
     12 C           6.3392   41.3959    9.6602 C.3     1  UNL1        0.0703
     13 C           8.4201   41.9890   10.5624 C.3     1  UNL1        0.0887
     14 C           8.4510   42.3661    9.0887 C.3     1  UNL1        0.0938
     15 N          11.8372   41.8823    7.4423 N.am    1  UNL1       -0.2681
     16 N           9.5740   41.7231    8.4352 N.am    1  UNL1       -0.2642
     17 N           7.1768   41.2801   10.8468 N.3     1  UNL1       -0.2960
     18 O          11.2400   43.0547    9.3713 O.2     1  UNL1       -0.2522
     19 H          11.4744   41.4379    6.6422 H       1  UNL1        0.1564
     20 H           7.3706   40.2984   11.0443 H       1  UNL1        0.1233
     21 C          16.2094   40.6623    9.2895 C.2     1  UNL1        0.2467
     22 N          15.5897   39.7147   10.1594 N.am    1  UNL1       -0.3008
     23 O          17.4683   40.6864    9.2079 O.2     1  UNL1       -0.2701
     24 H          16.1608   39.2143   10.7860 H       1  UNL1        0.1497
     25 C          13.7012   39.2559   11.5968 C.3     1  UNL1        0.0230
     26 C          14.1595   39.4493   10.1690 C.3     1  UNL1        0.0898
@<TRIPOS>BOND
     1    25    26    1
     2    26    22    1
     3    21     1    1
     4     2     3   ar
     5     3    15    1
     6     8    16   am
     7     9    16    1
     8     9    10    1
     9    11    10    1
    10    11    12    1
    11    12    17    1
    12    13    17    1
    13    14    13    1
    14    14    16    1
    15    14    11    1
    16     4     5   ar
    17     6     7    1
    18     6     1   ar
    19    22    21   am
    20    15     8   am
    21    21    23    2
    22     1     2   ar
    23     3     4   ar
    24     8    18    2
    25     5     6   ar
    26    22    24    1
    27    15    19    1
    28    17    20    1
@<TRIPOS>MOLECULE
MolPort-039-219-020 299764338 CSSS02125518311 MCULE-6889923365 PubChem-118772150 ZINC000299764338
 26 28 0 0 0
SMALL
GASTEIGER

@<TRIPOS>ATOM
      1 C           9.3573   40.9479    7.4357 C.ar    1  UNL1        0.0651
      2 C          10.5540   41.6534    7.2598 C.ar    1  UNL1        0.0201
      3 C          11.2623   41.5774    6.0584 C.ar    1  UNL1        0.0518
      4 C          10.7736   40.7759    5.0196 C.ar    1  UNL1        0.0156
      5 C           9.5801   40.0726    5.1819 C.ar    1  UNL1        0.0128
      6 C           8.8581   40.1631    6.3765 C.ar    1  UNL1        0.0621
      7 CL          7.2898   39.3713    6.4559 Cl      1  UNL1       -0.0821
      8 C          13.6769   42.0621    6.6996 C.2     1  UNL1        0.3077
      9 C          14.5900   44.3491    6.1285 C.3     1  UNL1        0.0950
     10 C          15.9695   44.9773    6.2103 C.3     1  UNL1        0.0246
     11 C          16.9425   43.8296    6.4451 C.3     1  UNL1        0.0371
     12 C          17.8978   44.1693    7.5608 C.3     1  UNL1        0.0703
     13 C          16.3410   42.6734    8.4743 C.3     1  UNL1        0.0887
     14 C          16.1227   42.6774    6.9684 C.3     1  UNL1        0.0938
     15 N          12.4895   42.3017    5.9343 N.am    1  UNL1       -0.2681
     16 N          14.7452   43.0142    6.6674 N.am    1  UNL1       -0.2642
     17 N          17.3324   43.6885    8.8147 N.3     1  UNL1       -0.2960
     18 O          13.8100   40.9918    7.3461 O.2     1  UNL1       -0.2522
     19 H          12.5209   43.0252    5.2674 H       1  UNL1        0.1564
     20 H          16.8882   44.4575    9.3163 H       1  UNL1        0.1233
     21 C           8.6074   41.1383    8.6898 C.2     1  UNL1        0.2467
     22 N           9.2649   41.2118    9.9550 N.am    1  UNL1       -0.3008
     23 O           7.3580   41.3071    8.6385 O.2     1  UNL1       -0.2701
     24 H           8.7100   41.2362   10.7678 H       1  UNL1        0.1497
     25 C          11.1648   40.0225   10.8602 C.3     1  UNL1        0.0230
     26 C          10.7111   41.2525   10.1070 C.3     1  UNL1        0.0898
@<TRIPOS>BOND
     1    25    26    1
     2    26    22    1
     3    21     1    1
     4     2     3   ar
     5     3    15    1
     6     8    16   am
     7     9    16    1
     8     9    10    1
     9    11    10    1
    10    11    12    1
    11    12    17    1
    12    13    17    1
    13    14    13    1
    14    14    16    1
    15    14    11    1
    16     4     5   ar
    17     6     7    1
    18     6     1   ar
    19    22    21   am
    20    15     8   am
    21    21    23    2
    22     1     2   ar
    23     3     4   ar
    24     8    18    2
    25     5     6   ar
    26    22    24    1
    27    15    19    1
    28    17    20    1
@<TRIPOS>MOLECULE
MolPort-039-219-020 299764338 CSSS02125518311 MCULE-6889923365 PubChem-118772150 ZINC000299764338
 26 28 0 0 0
SMALL
GASTEIGER

@<TRIPOS>ATOM
      1 C           7.8033   42.5053    8.0600 C.ar    1  UNL1        0.0651
      2 C           8.9076   41.7351    8.4451 C.ar    1  UNL1        0.0201
      3 C           9.8322   42.2193    9.3732 C.ar    1  UNL1        0.0518
      4 C           9.6574   43.4973    9.9179 C.ar    1  UNL1        0.0156
      5 C           8.5587   44.2714    9.5453 C.ar    1  UNL1        0.0128
      6 C           7.6200   43.7808    8.6316 C.ar    1  UNL1        0.0621
      7 CL          6.1837   44.7475    8.3233 Cl      1  UNL1       -0.0821
      8 C          11.0455   39.9869    9.5165 C.2     1  UNL1        0.3077
      9 C          12.9286   39.7978   11.1922 C.3     1  UNL1        0.0950
     10 C          13.9614   38.7263   11.4918 C.3     1  UNL1        0.0246
     11 C          13.9125   37.7540   10.3208 C.3     1  UNL1        0.0371
     12 C          13.8637   36.3319   10.8191 C.3     1  UNL1        0.0703
     13 C          11.6854   36.8498   10.1243 C.3     1  UNL1        0.0887
     14 C          12.5862   37.9759    9.6388 C.3     1  UNL1        0.0938
     15 N          10.9538   41.4022    9.7200 N.am    1  UNL1       -0.2681
     16 N          12.1027   39.2483   10.1375 N.am    1  UNL1       -0.2642
     17 N          12.4674   35.9374   10.9521 N.3     1  UNL1       -0.2960
     18 O          10.2417   39.4034    8.7453 O.2     1  UNL1       -0.2522
     19 H          11.7274   41.8497   10.1329 H       1  UNL1        0.1564
     20 H          12.1742   36.0099   11.9264 H       1  UNL1        0.1233
     21 C           6.8132   41.9069    7.1475 C.2     1  UNL1        0.2467
     22 N           5.6818   41.1852    7.6347 N.am    1  UNL1       -0.3008
     23 O           6.9319   42.0931    5.9051 O.2     1  UNL1       -0.2701
     24 H           5.1096   40.7198    6.9825 H       1  UNL1        0.1497
     25 C           3.9234   41.6233    9.2345 C.3     1  UNL1        0.0230
     26 C           5.3292   41.1008    9.0435 C.3     1  UNL1        0.0898
@<TRIPOS>BOND
     1    25    26    1
     2    26    22    1
     3    21     1    1
     4     2     3   ar
     5     3    15    1
     6     8    16   am
     7     9    16    1
     8     9    10    1
     9    11    10    1
    10    11    12    1
    11    12    17    1
    12    13    17    1
    13    14    13    1
    14    14    16    1
    15    14    11    1
    16     4     5   ar
    17     6     7    1
    18     6     1   ar
    19    22    21   am
    20    15     8   am
    21    21    23    2
    22     1     2   ar
    23     3     4   ar
    24     8    18    2
    25     5     6   ar
    26    22    24    1
    27    15    19    1
    28    17    20    1
@<TRIPOS>MOLECULE
MolPort-039-219-020 299764338 CSSS02125518311 MCULE-6889923365 PubChem-118772150 ZINC000299764338
 26 28 0 0 0
SMALL
GASTEIGER

@<TRIPOS>ATOM
      1 C           9.3736   41.2170    7.3320 C.ar    1  UNL1        0.0651
      2 C          10.5895   41.8803    7.1264 C.ar    1  UNL1        0.0201
      3 C          11.4129   41.5522    6.0470 C.ar    1  UNL1        0.0518
      4 C          11.0212   40.5383    5.1645 C.ar    1  UNL1        0.0156
      5 C           9.8099   39.8740    5.3566 C.ar    1  UNL1        0.0128
      6 C           8.9737   40.2147    6.4250 C.ar    1  UNL1        0.0621
      7 CL          7.3967   39.4420    6.5186 Cl      1  UNL1       -0.0821
      8 C          13.8018   42.0960    6.7355 C.2     1  UNL1        0.3077
      9 C          14.7710   44.2851    5.9241 C.3     1  UNL1        0.0950
     10 C          16.1537   44.9081    5.9912 C.3     1  UNL1        0.0246
     11 C          17.0992   43.7921    6.4148 C.3     1  UNL1        0.0371
     12 C          18.0067   44.2632    7.5228 C.3     1  UNL1        0.0703
     13 C          16.3894   42.9070    8.5430 C.3     1  UNL1        0.0887
     14 C          16.2407   42.7218    7.0401 C.3     1  UNL1        0.0938
     15 N          12.6542   42.2456    5.8908 N.am    1  UNL1       -0.2681
     16 N          14.8832   43.0281    6.6340 N.am    1  UNL1       -0.2642
     17 N          17.3777   43.9495    8.7991 N.3     1  UNL1       -0.2960
     18 O          13.8905   41.1153    7.5175 O.2     1  UNL1       -0.2522
     19 H          12.7260   42.8785    5.1401 H       1  UNL1        0.1564
     20 H          16.9213   44.7793    9.1780 H       1  UNL1        0.1233
     21 C           8.5048   41.6677    8.4334 C.2     1  UNL1        0.2467
     22 N           7.4522   42.6093    8.2234 N.am    1  UNL1       -0.3008
     23 O           8.6517   41.1591    9.5788 O.2     1  UNL1       -0.2701
     24 H           6.9703   42.9527    9.0103 H       1  UNL1        0.1497
     25 C           6.0310   44.1896    7.0719 C.3     1  UNL1        0.0230
     26 C           7.0539   43.0881    6.9089 C.3     1  UNL1        0.0898
@<TRIPOS>BOND
     1    25    26    1
     2    26    22    1
     3    21     1    1
     4     2     3   ar
     5     3    15    1
     6     8    16   am
     7     9    16    1
     8     9    10    1
     9    11    10    1
    10    11    12    1
    11    12    17    1
    12    13    17    1
    13    14    13    1
    14    14    16    1
    15    14    11    1
    16     4     5   ar
    17     6     7    1
    18     6     1   ar
    19    22    21   am
    20    15     8   am
    21    21    23    2
    22     1     2   ar
    23     3     4   ar
    24     8    18    2
    25     5     6   ar
    26    22    24    1
    27    15    19    1
    28    17    20    1
@<TRIPOS>MOLECULE
MolPort-039-219-020 299764338 CSSS02125518311 MCULE-6889923365 PubChem-118772150 ZINC000299764338
 26 28 0 0 0
SMALL
GASTEIGER

@<TRIPOS>ATOM
      1 C           7.6163   40.7057    7.2194 C.ar    1  UNL1        0.0651
      2 C           8.4648   39.8886    7.9765 C.ar    1  UNL1        0.0201
      3 C           9.7618   40.2986    8.2934 C.ar    1  UNL1        0.0518
      4 C          10.2229   41.5398    7.8383 C.ar    1  UNL1        0.0156
      5 C           9.3849   42.3641    7.0876 C.ar    1  UNL1        0.0128
      6 C           8.0786   41.9650    6.7862 C.ar    1  UNL1        0.0621
      7 CL          7.0313   43.1159    5.9669 Cl      1  UNL1       -0.0821
      8 C          11.8565   39.7704    9.6386 C.2     1  UNL1        0.3077
      9 C          12.5107   37.3383    9.8557 C.3     1  UNL1        0.0950
     10 C          13.5731   36.6061   10.6553 C.3     1  UNL1        0.0246
     11 C          14.0986   37.6074   11.6752 C.3     1  UNL1        0.0371
     12 C          15.6061   37.5985   11.6933 C.3     1  UNL1        0.0703
     13 C          14.9840   39.5324   10.5233 C.3     1  UNL1        0.0887
     14 C          13.7210   38.9743   11.1626 C.3     1  UNL1        0.0938
     15 N          10.5965   39.4200    9.0532 N.am    1  UNL1       -0.2681
     16 N          12.7120   38.7421   10.1480 N.am    1  UNL1       -0.2642
     17 N          16.0847   38.6021   10.7516 N.3     1  UNL1       -0.2960
     18 O          12.1837   40.9780    9.7646 O.2     1  UNL1       -0.2522
     19 H          10.2788   38.4976    9.1849 H       1  UNL1        0.1564
     20 H          16.3557   38.1581    9.8742 H       1  UNL1        0.1233
     21 C           6.2297   40.2609    6.9940 C.2     1  UNL1        0.2467
     22 N           5.1598   40.6752    7.8438 N.am    1  UNL1       -0.3008
     23 O           5.9696   39.5490    5.9852 O.2     1  UNL1       -0.2701
     24 H           4.2737   40.2676    7.7099 H       1  UNL1        0.1497
     25 C           4.9124   41.0502   10.2190 C.3     1  UNL1        0.0230
     26 C           5.3093   41.6674    8.8971 C.3     1  UNL1        0.0898
@<TRIPOS>BOND
     1    25    26    1
     2    26    22    1
     3    21     1    1
     4     2     3   ar
     5     3    15    1
     6     8    16   am
     7     9    16    1
     8     9    10    1
     9    11    10    1
    10    11    12    1
    11    12    17    1
    12    13    17    1
    13    14    13    1
    14    14    16    1
    15    14    11    1
    16     4     5   ar
    17     6     7    1
    18     6     1   ar
    19    22    21   am
    20    15     8   am
    21    21    23    2
    22     1     2   ar
    23     3     4   ar
    24     8    18    2
    25     5     6   ar
    26    22    24    1
    27    15    19    1
    28    17    20    1
@<TRIPOS>MOLECULE
MolPort-039-219-020 299764338 CSSS02125518311 MCULE-6889923365 PubChem-118772150 ZINC000299764338
 26 28 0 0 0
SMALL
GASTEIGER

@<TRIPOS>ATOM
      1 C           9.1804   41.8886   10.9733 C.ar    1  UNL1        0.0651
      2 C           9.8348   40.6514   11.0197 C.ar    1  UNL1        0.0201
      3 C          11.0469   40.4549   10.3542 C.ar    1  UNL1        0.0518
      4 C          11.6097   41.5071    9.6218 C.ar    1  UNL1        0.0156
      5 C          10.9693   42.7452    9.5725 C.ar    1  UNL1        0.0128
      6 C           9.7657   42.9510   10.2549 C.ar    1  UNL1        0.0621
      7 CL          9.0934   44.5759   10.2726 Cl      1  UNL1       -0.0821
      8 C          12.8350   38.7714    9.6872 C.2     1  UNL1        0.3077
      9 C          12.3098   36.3238   10.0388 C.3     1  UNL1        0.0950
     10 C          13.1219   35.0480    9.9064 C.3     1  UNL1        0.0246
     11 C          14.5766   35.4837    9.7925 C.3     1  UNL1        0.0371
     12 C          15.2550   34.7615    8.6562 C.3     1  UNL1        0.0703
     13 C          14.8303   36.9331    7.8817 C.3     1  UNL1        0.0887
     14 C          14.5552   36.9334    9.3782 C.3     1  UNL1        0.0938
     15 N          11.6668   39.1673   10.4162 N.am    1  UNL1       -0.2681
     16 N          13.2031   37.3892    9.6342 N.am    1  UNL1       -0.2642
     17 N          15.1221   35.5697    7.4512 N.3     1  UNL1       -0.2960
     18 O          13.5713   39.6375    9.1496 O.2     1  UNL1       -0.2522
     19 H          11.2565   38.4971   11.0093 H       1  UNL1        0.1564
     20 H          14.3604   35.2143    6.8733 H       1  UNL1        0.1233
     21 C           7.9526   42.0643   11.7688 C.2     1  UNL1        0.2467
     22 N           6.6598   42.0767   11.1629 N.am    1  UNL1       -0.3008
     23 O           8.0406   42.1394   13.0252 O.2     1  UNL1       -0.2701
     24 H           5.8835   42.2997   11.7258 H       1  UNL1        0.1497
     25 C           5.1037   42.3714    9.3368 C.3     1  UNL1        0.0230
     26 C           6.4286   41.7774    9.7583 C.3     1  UNL1        0.0898
@<TRIPOS>BOND
     1    25    26    1
     2    26    22    1
     3    21     1    1
     4     2     3   ar
     5     3    15    1
     6     8    16   am
     7     9    16    1
     8     9    10    1
     9    11    10    1
    10    11    12    1
    11    12    17    1
    12    13    17    1
    13    14    13    1
    14    14    16    1
    15    14    11    1
    16     4     5   ar
    17     6     7    1
    18     6     1   ar
    19    22    21   am
    20    15     8   am
    21    21    23    2
    22     1     2   ar
    23     3     4   ar
    24     8    18    2
    25     5     6   ar
    26    22    24    1
    27    15    19    1
    28    17    20    1
@<TRIPOS>MOLECULE
MolPort-039-219-020 299764338 CSSS02125518311 MCULE-6889923365 PubChem-118772150 ZINC000299764338
 26 28 0 0 0
SMALL
GASTEIGER

@<TRIPOS>ATOM
      1 C          15.7552   39.1462    9.7415 C.ar    1  UNL1        0.0651
      2 C          14.5356   39.8303    9.6663 C.ar    1  UNL1        0.0201
      3 C          13.3843   39.1957    9.1946 C.ar    1  UNL1        0.0518
      4 C          13.4538   37.8598    8.7812 C.ar    1  UNL1        0.0156
      5 C          14.6621   37.1671    8.8561 C.ar    1  UNL1        0.0128
      6 C          15.8120   37.7940    9.3475 C.ar    1  UNL1        0.0621
      7 CL         17.2604   36.8182    9.5545 Cl      1  UNL1       -0.0821
      8 C          11.3731   40.3537   10.2389 C.2     1  UNL1        0.3077
      9 C           9.3580   40.7322    8.7603 C.3     1  UNL1        0.0950
     10 C           8.0498   41.4803    8.9429 C.3     1  UNL1        0.0246
     11 C           8.2241   42.3371   10.1896 C.3     1  UNL1        0.0371
     12 C           7.0290   42.1947   11.0976 C.3     1  UNL1        0.0703
     13 C           8.7373   40.9175   12.0705 C.3     1  UNL1        0.0887
     14 C           9.3744   41.7389   10.9594 C.3     1  UNL1        0.0938
     15 N          12.1669   39.9428    9.1190 N.am    1  UNL1       -0.2681
     16 N          10.0538   40.8651   10.0232 N.am    1  UNL1       -0.2642
     17 N           7.2919   41.1151   12.0402 N.3     1  UNL1       -0.2960
     18 O          11.8533   40.3272   11.4008 O.2     1  UNL1       -0.2522
     19 H          11.8477   40.1957    8.2227 H       1  UNL1        0.1564
     20 H           6.8279   40.2605   11.7322 H       1  UNL1        0.1233
     21 C          16.9139   39.8387   10.3324 C.2     1  UNL1        0.2467
     22 N          17.4761   41.0072    9.7348 N.am    1  UNL1       -0.3008
     23 O          17.3804   39.4278   11.4304 O.2     1  UNL1       -0.2701
     24 H          18.3101   41.3687   10.1130 H       1  UNL1        0.1497
     25 C          17.5693   43.0255    8.4078 C.3     1  UNL1        0.0230
     26 C          16.8824   41.6919    8.5970 C.3     1  UNL1        0.0898
@<TRIPOS>BOND
     1    25    26    1
     2    26    22    1
     3    21     1    1
     4     2     3   ar
     5     3    15    1
     6     8    16   am
     7     9    16    1
     8     9    10    1
     9    11    10    1
    10    11    12    1
    11    12    17    1
    12    13    17    1
    13    14    13    1
    14    14    16    1
    15    14    11    1
    16     4     5   ar
    17     6     7    1
    18     6     1   ar
    19    22    21   am
    20    15     8   am
    21    21    23    2
    22     1     2   ar
    23     3     4   ar
    24     8    18    2
    25     5     6   ar
    26    22    24    1
    27    15    19    1
    28    17    20    1
@<TRIPOS>MOLECULE
MolPort-039-219-020 299764338 CSSS02125518311 MCULE-6889923365 PubChem-118772150 ZINC000299764338
 26 28 0 0 0
SMALL
GASTEIGER

@<TRIPOS>ATOM
      1 C           8.6034   42.5723    7.8333 C.ar    1  UNL1        0.0651
      2 C           9.7362   41.9110    8.3236 C.ar    1  UNL1        0.0201
      3 C          10.3011   42.2676    9.5502 C.ar    1  UNL1        0.0518
      4 C           9.7325   43.3083   10.2944 C.ar    1  UNL1        0.0156
      5 C           8.6013   43.9709    9.8182 C.ar    1  UNL1        0.0128
      6 C           8.0212   43.6021    8.5999 C.ar    1  UNL1        0.0621
      7 CL          6.5127   44.3773    8.1350 Cl      1  UNL1       -0.0821
      8 C          12.1910   40.5901    9.2489 C.2     1  UNL1        0.3077
      9 C          13.3031   39.7104   11.3417 C.3     1  UNL1        0.0950
     10 C          14.5150   38.8319   11.5944 C.3     1  UNL1        0.0246
     11 C          15.2630   38.7537   10.2702 C.3     1  UNL1        0.0371
     12 C          15.6320   37.3258    9.9575 C.3     1  UNL1        0.0703
     13 C          13.8052   37.8391    8.5807 C.3     1  UNL1        0.0887
     14 C          14.2759   39.1467    9.2003 C.3     1  UNL1        0.0938
     15 N          11.4692   41.5747    9.9990 N.am    1  UNL1       -0.2681
     16 N          13.1801   39.7868    9.9010 N.am    1  UNL1       -0.2642
     17 N          14.5616   36.7360    9.1640 N.3     1  UNL1       -0.2960
     18 O          12.0051   40.4737    8.0108 O.2     1  UNL1       -0.2522
     19 H          11.8054   41.7926   10.8983 H       1  UNL1        0.1564
     20 H          13.9551   36.1713    9.7588 H       1  UNL1        0.1233
     21 C           7.9980   42.0926    6.5786 C.2     1  UNL1        0.2467
     22 N           7.7470   40.7062    6.3471 N.am    1  UNL1       -0.3008
     23 O           7.6308   42.9340    5.7130 O.2     1  UNL1       -0.2701
     24 H           7.4372   40.4315    5.4538 H       1  UNL1        0.1497
     25 C           8.8768   38.6264    6.8380 C.3     1  UNL1        0.0230
     26 C           7.9245   39.6780    7.3606 C.3     1  UNL1        0.0898
@<TRIPOS>BOND
     1    25    26    1
     2    26    22    1
     3    21     1    1
     4     2     3   ar
     5     3    15    1
     6     8    16   am
     7     9    16    1
     8     9    10    1
     9    11    10    1
    10    11    12    1
    11    12    17    1
    12    13    17    1
    13    14    13    1
    14    14    16    1
    15    14    11    1
    16     4     5   ar
    17     6     7    1
    18     6     1   ar
    19    22    21   am
    20    15     8   am
    21    21    23    2
    22     1     2   ar
    23     3     4   ar
    24     8    18    2
    25     5     6   ar
    26    22    24    1
    27    15    19    1
    28    17    20    1
