@<TRIPOS>MOLECULE
MolPort-020-281-540 MCULE-5782000833 PubChem-110257273
 23 25 0 0 0
SMALL
GASTEIGER

@<TRIPOS>ATOM
      1 C          11.4512   41.2621   10.0793 C.ar    1  UNL1       -0.0165
      2 C          12.1681   41.7140    8.9691 C.ar    1  UNL1        0.0302
      3 C          13.4181   41.1606    8.6808 C.ar    1  UNL1        0.1329
      4 C          13.2478   39.7275   10.5723 C.ar    1  UNL1        0.1000
      5 C          11.9966   40.2578   10.8900 C.ar    1  UNL1        0.0166
      6 N          13.9256   40.1850    9.4857 N.ar    1  UNL1       -0.2291
      7 C           5.6537   43.3120    8.9380 C.3     1  UNL1        0.0948
      8 C           7.0386   42.8557    8.6236 C.2     1  UNL1        0.2261
      9 C           7.2252   41.7059   10.8580 C.3     1  UNL1        0.0934
     10 C           8.2054   41.9770   11.9953 C.3     1  UNL1        0.0219
     11 C           9.5511   41.3244   11.6944 C.3     1  UNL1        0.0078
     12 C          10.1138   41.8617   10.3776 C.3     1  UNL1        0.0424
     13 C           9.1336   41.6121    9.2307 C.3     1  UNL1        0.0977
     14 O           7.5262   43.1307    7.4949 O.2     1  UNL1       -0.2749
     15 N           7.8122   42.1247    9.5863 N.am    1  UNL1       -0.2792
     16 N          14.1420   41.6341    7.5387 N.pl3   1  UNL1       -0.2834
     17 H          13.7700   41.4142    6.6541 H       1  UNL1        0.1550
     18 C          15.3545   42.3968    7.5591 C.ar    1  UNL1        0.1332
     19 C          16.3987   41.9896    8.3939 C.ar    1  UNL1        0.0345
     20 C          17.5838   42.7267    8.4203 C.ar    1  UNL1        0.0045
     21 C          17.7160   43.8597    7.6162 C.ar    1  UNL1        0.0208
     22 C          16.6530   44.2382    6.7940 C.ar    1  UNL1        0.1003
     23 N          15.5061   43.5066    6.7825 N.ar    1  UNL1       -0.2290
@<TRIPOS>BOND
     1     7     8    1
     2     8    15   am
     3     9    15    1
     4     9    10    1
     5    10    11    1
     6    11    12    1
     7    12    13    1
     8    12     1    1
     9    13    15    1
    10     2     3   ar
    11     3    16    1
    12     4     6   ar
    13     5     1   ar
    14    18    23   ar
    15    19    20   ar
    16    21    22   ar
    17    16    18    1
    18     8    14    2
    19     1     2   ar
    20     3     6   ar
    21     4     5   ar
    22    18    19   ar
    23    20    21   ar
    24    22    23   ar
    25    16    17    1
@<TRIPOS>MOLECULE
MolPort-020-281-540 MCULE-5782000833 PubChem-110257273
 23 25 0 0 0
SMALL
GASTEIGER

@<TRIPOS>ATOM
      1 C          12.4326   41.0714    7.4227 C.ar    1  UNL1       -0.0165
      2 C          12.0858   39.9373    8.1605 C.ar    1  UNL1        0.0302
      3 C          10.7414   39.5782    8.2859 C.ar    1  UNL1        0.1329
      4 C          10.0930   41.4463    6.9630 C.ar    1  UNL1        0.1000
      5 C          11.4256   41.8344    6.8170 C.ar    1  UNL1        0.0166
      6 N           9.7818   40.3378    7.6867 N.ar    1  UNL1       -0.2291
      7 C          17.3868   44.4883    5.7209 C.3     1  UNL1        0.0948
      8 C          15.9675   44.0295    5.7245 C.2     1  UNL1        0.2261
      9 C          16.2438   43.0171    8.0153 C.3     1  UNL1        0.0934
     10 C          16.0987   41.5594    8.4417 C.3     1  UNL1        0.0219
     11 C          14.6240   41.2057    8.6069 C.3     1  UNL1        0.0078
     12 C          13.8752   41.4457    7.2950 C.3     1  UNL1        0.0424
     13 C          14.0261   42.8996    6.8462 C.3     1  UNL1        0.0977
     14 O          15.2350   44.3162    4.7403 O.2     1  UNL1       -0.2749
     15 N          15.4401   43.2671    6.8200 N.am    1  UNL1       -0.2792
     16 N          10.4008   38.4124    9.0458 N.pl3   1  UNL1       -0.2834
     17 H           9.4489   38.2856    9.2628 H       1  UNL1        0.1550
     18 C          11.3110   37.4133    9.5207 C.ar    1  UNL1        0.1332
     19 C          10.8651   36.4801   10.4606 C.ar    1  UNL1        0.0345
     20 C          11.7452   35.5031   10.9289 C.ar    1  UNL1        0.0045
     21 C          13.0579   35.4659   10.4567 C.ar    1  UNL1        0.0208
     22 C          13.4704   36.4134    9.5179 C.ar    1  UNL1        0.1003
     23 N          12.5976   37.3577    9.0739 N.ar    1  UNL1       -0.2290
@<TRIPOS>BOND
     1     7     8    1
     2     8    15   am
     3     9    15    1
     4     9    10    1
     5    10    11    1
     6    11    12    1
     7    12    13    1
     8    12     1    1
     9    13    15    1
    10     2     3   ar
    11     3    16    1
    12     4     6   ar
    13     5     1   ar
    14    18    23   ar
    15    19    20   ar
    16    21    22   ar
    17    16    18    1
    18     8    14    2
    19     1     2   ar
    20     3     6   ar
    21     4     5   ar
    22    18    19   ar
    23    20    21   ar
    24    22    23   ar
    25    16    17    1
@<TRIPOS>MOLECULE
MolPort-020-281-540 MCULE-5782000833 PubChem-110257273
 23 25 0 0 0
SMALL
GASTEIGER

@<TRIPOS>ATOM
      1 C          11.8210   41.4807    9.6162 C.ar    1  UNL1       -0.0165
      2 C          13.0429   41.5196    8.9408 C.ar    1  UNL1        0.0302
      3 C          14.0712   40.6535    9.3210 C.ar    1  UNL1        0.1329
      4 C          12.6916   39.7211   11.0203 C.ar    1  UNL1        0.1000
      5 C          11.6429   40.5716   10.6674 C.ar    1  UNL1        0.0166
      6 N          13.8716   39.7790   10.3469 N.ar    1  UNL1       -0.2291
      7 C           6.7396   43.4103    6.5224 C.3     1  UNL1        0.0948
      8 C           7.9168   42.5484    6.8329 C.2     1  UNL1        0.2261
      9 C           7.9539   43.3645    9.2166 C.3     1  UNL1        0.0934
     10 C           9.0565   44.1191    9.9531 C.3     1  UNL1        0.0219
     11 C          10.1433   43.1491   10.4062 C.3     1  UNL1        0.0078
     12 C          10.7274   42.4124    9.1999 C.3     1  UNL1        0.0424
     13 C           9.6300   41.6647    8.4416 C.3     1  UNL1        0.0977
     14 O           8.3715   41.7951    5.9312 O.2     1  UNL1       -0.2749
     15 N           8.5323   42.5772    8.1290 N.am    1  UNL1       -0.2792
     16 N          15.3191   40.7048    8.6191 N.pl3   1  UNL1       -0.2834
     17 H          15.7573   39.8442    8.4278 H       1  UNL1        0.1550
     18 C          15.9912   41.8870    8.1688 C.ar    1  UNL1        0.1332
     19 C          17.1964   42.2550    8.7731 C.ar    1  UNL1        0.0345
     20 C          17.8581   43.4054    8.3407 C.ar    1  UNL1        0.0045
     21 C          17.3133   44.1760    7.3125 C.ar    1  UNL1        0.0208
     22 C          16.1076   43.7795    6.7309 C.ar    1  UNL1        0.1003
     23 N          15.4779   42.6550    7.1664 N.ar    1  UNL1       -0.2290
@<TRIPOS>BOND
     1     7     8    1
     2     8    15   am
     3     9    15    1
     4     9    10    1
     5    10    11    1
     6    11    12    1
     7    12    13    1
     8    12     1    1
     9    13    15    1
    10     2     3   ar
    11     3    16    1
    12     4     6   ar
    13     5     1   ar
    14    18    23   ar
    15    19    20   ar
    16    21    22   ar
    17    16    18    1
    18     8    14    2
    19     1     2   ar
    20     3     6   ar
    21     4     5   ar
    22    18    19   ar
    23    20    21   ar
    24    22    23   ar
    25    16    17    1
@<TRIPOS>MOLECULE
MolPort-020-281-540 MCULE-5782000833 PubChem-110257273
 23 25 0 0 0
SMALL
GASTEIGER

@<TRIPOS>ATOM
      1 C           9.8431   41.8530    7.6952 C.ar    1  UNL1       -0.0165
      2 C          11.2249   41.8668    7.8982 C.ar    1  UNL1        0.0302
      3 C          12.0815   41.5214    6.8499 C.ar    1  UNL1        0.1329
      4 C          10.2190   41.1535    5.4159 C.ar    1  UNL1        0.1000
      5 C           9.3342   41.4926    6.4405 C.ar    1  UNL1        0.0166
      6 N          11.5603   41.1747    5.6394 N.ar    1  UNL1       -0.2291
      7 C           4.7278   41.6963   11.2902 C.3     1  UNL1        0.0948
      8 C           5.5726   41.4418   10.0875 C.2     1  UNL1        0.2261
      9 C           7.6792   41.7599   11.4330 C.3     1  UNL1        0.0934
     10 C           8.7795   42.8019   11.2568 C.3     1  UNL1        0.0219
     11 C           9.7189   42.3870   10.1287 C.3     1  UNL1        0.0078
     12 C           8.9360   42.2251    8.8248 C.3     1  UNL1        0.0424
     13 C           7.8180   41.1953    8.9915 C.3     1  UNL1        0.0977
     14 O           5.0071   41.1532    8.9993 O.2     1  UNL1       -0.2749
     15 N           7.0032   41.5311   10.1571 N.am    1  UNL1       -0.2792
     16 N          13.4966   41.5400    7.0729 N.pl3   1  UNL1       -0.2834
     17 H          13.8985   40.7227    7.4467 H       1  UNL1        0.1550
     18 C          14.3834   42.6326    6.8048 C.ar    1  UNL1        0.1332
     19 C          15.6413   42.6513    7.4135 C.ar    1  UNL1        0.0345
     20 C          16.5120   43.7120    7.1580 C.ar    1  UNL1        0.0045
     21 C          16.1211   44.7412    6.3003 C.ar    1  UNL1        0.0208
     22 C          14.8573   44.6911    5.7090 C.ar    1  UNL1        0.1003
     23 N          14.0233   43.6487    5.9707 N.ar    1  UNL1       -0.2290
@<TRIPOS>BOND
     1     7     8    1
     2     8    15   am
     3     9    15    1
     4     9    10    1
     5    10    11    1
     6    11    12    1
     7    12    13    1
     8    12     1    1
     9    13    15    1
    10     2     3   ar
    11     3    16    1
    12     4     6   ar
    13     5     1   ar
    14    18    23   ar
    15    19    20   ar
    16    21    22   ar
    17    16    18    1
    18     8    14    2
    19     1     2   ar
    20     3     6   ar
    21     4     5   ar
    22    18    19   ar
    23    20    21   ar
    24    22    23   ar
    25    16    17    1
@<TRIPOS>MOLECULE
MolPort-020-281-540 MCULE-5782000833 PubChem-110257273
 23 25 0 0 0
SMALL
GASTEIGER

@<TRIPOS>ATOM
      1 C          11.6173   41.6811    6.9979 C.ar    1  UNL1       -0.0165
      2 C          10.9419   41.8154    8.2131 C.ar    1  UNL1        0.0302
      3 C           9.5460   41.7630    8.2379 C.ar    1  UNL1        0.1329
      4 C           9.4907   41.4476    5.8804 C.ar    1  UNL1        0.1000
      5 C          10.8841   41.4951    5.8185 C.ar    1  UNL1        0.0166
      6 N           8.8571   41.5811    7.0763 N.ar    1  UNL1       -0.2291
      7 C          17.2994   44.0160    5.8244 C.3     1  UNL1        0.0948
      8 C          15.8186   43.8773    5.7111 C.2     1  UNL1        0.2261
      9 C          15.7015   42.7209    7.9468 C.3     1  UNL1        0.0934
     10 C          15.2171   41.3110    8.2712 C.3     1  UNL1        0.0219
     11 C          13.6928   41.2790    8.3221 C.3     1  UNL1        0.0078
     12 C          13.1119   41.7384    6.9838 C.3     1  UNL1        0.0424
     13 C          13.6029   43.1445    6.6372 C.3     1  UNL1        0.0977
     14 O          15.2393   44.3630    4.7032 O.2     1  UNL1       -0.2749
     15 N          15.0607   43.1964    6.7219 N.am    1  UNL1       -0.2792
     16 N           8.8668   41.9023    9.4917 N.pl3   1  UNL1       -0.2834
     17 H           9.4043   42.2111   10.2566 H       1  UNL1        0.1550
     18 C           7.4814   41.6358    9.7404 C.ar    1  UNL1        0.1332
     19 C           7.0265   41.5822   11.0607 C.ar    1  UNL1        0.0345
     20 C           5.6782   41.3230   11.3124 C.ar    1  UNL1        0.0045
     21 C           4.7987   41.1205   10.2479 C.ar    1  UNL1        0.0208
     22 C           5.2866   41.1810    8.9412 C.ar    1  UNL1        0.1003
     23 N           6.6041   41.4347    8.7167 N.ar    1  UNL1       -0.2290
@<TRIPOS>BOND
     1     7     8    1
     2     8    15   am
     3     9    15    1
     4     9    10    1
     5    10    11    1
     6    11    12    1
     7    12    13    1
     8    12     1    1
     9    13    15    1
    10     2     3   ar
    11     3    16    1
    12     4     6   ar
    13     5     1   ar
    14    18    23   ar
    15    19    20   ar
    16    21    22   ar
    17    16    18    1
    18     8    14    2
    19     1     2   ar
    20     3     6   ar
    21     4     5   ar
    22    18    19   ar
    23    20    21   ar
    24    22    23   ar
    25    16    17    1
@<TRIPOS>MOLECULE
MolPort-020-281-540 MCULE-5782000833 PubChem-110257273
 23 25 0 0 0
SMALL
GASTEIGER

@<TRIPOS>ATOM
      1 C          12.1189   40.5744    9.7676 C.ar    1  UNL1       -0.0165
      2 C          13.1258   41.0363    8.9169 C.ar    1  UNL1        0.0302
      3 C          14.4601   40.7272    9.1928 C.ar    1  UNL1        0.1329
      4 C          13.8046   39.5161   11.1329 C.ar    1  UNL1        0.1000
      5 C          12.4616   39.8058   10.8878 C.ar    1  UNL1        0.0166
      6 N          14.7659   39.9779   10.2892 N.ar    1  UNL1       -0.2291
      7 C           7.1148   44.2044    8.8199 C.3     1  UNL1        0.0948
      8 C           8.4924   43.8501    9.2690 C.2     1  UNL1        0.2261
      9 C           8.5526   41.8750    7.7054 C.3     1  UNL1        0.0934
     10 C           8.6986   40.3935    8.0395 C.3     1  UNL1        0.0219
     11 C          10.1624   40.0585    8.3086 C.3     1  UNL1        0.0078
     12 C          10.6940   40.9112    9.4616 C.3     1  UNL1        0.0424
     13 C          10.5383   42.3997    9.1478 C.3     1  UNL1        0.0977
     14 O           9.0644   44.5903   10.1129 O.2     1  UNL1       -0.2749
     15 N           9.1580   42.6842    8.7618 N.am    1  UNL1       -0.2792
     16 N          15.4821   41.2079    8.3113 N.pl3   1  UNL1       -0.2834
     17 H          16.3249   40.6995    8.2888 H       1  UNL1        0.1550
     18 C          15.3965   42.3565    7.4595 C.ar    1  UNL1        0.1332
     19 C          16.3812   43.3441    7.5503 C.ar    1  UNL1        0.0345
     20 C          16.3058   44.4667    6.7242 C.ar    1  UNL1        0.0045
     21 C          15.2521   44.5935    5.8179 C.ar    1  UNL1        0.0208
     22 C          14.2855   43.5882    5.7533 C.ar    1  UNL1        0.1003
     23 N          14.3766   42.5017    6.5669 N.ar    1  UNL1       -0.2290
@<TRIPOS>BOND
     1     7     8    1
     2     8    15   am
     3     9    15    1
     4     9    10    1
     5    10    11    1
     6    11    12    1
     7    12    13    1
     8    12     1    1
     9    13    15    1
    10     2     3   ar
    11     3    16    1
    12     4     6   ar
    13     5     1   ar
    14    18    23   ar
    15    19    20   ar
    16    21    22   ar
    17    16    18    1
    18     8    14    2
    19     1     2   ar
    20     3     6   ar
    21     4     5   ar
    22    18    19   ar
    23    20    21   ar
    24    22    23   ar
    25    16    17    1
@<TRIPOS>MOLECULE
MolPort-020-281-540 MCULE-5782000833 PubChem-110257273
 23 25 0 0 0
SMALL
GASTEIGER

@<TRIPOS>ATOM
      1 C          13.1416   39.5941   10.6343 C.ar    1  UNL1       -0.0165
      2 C          14.0917   40.1453    9.7715 C.ar    1  UNL1        0.0302
      3 C          15.4512   39.9301   10.0114 C.ar    1  UNL1        0.1329
      4 C          14.9320   38.6367   11.9395 C.ar    1  UNL1        0.1000
      5 C          13.5660   38.8313   11.7303 C.ar    1  UNL1        0.0166
      6 N          15.8369   39.1843   11.0847 N.ar    1  UNL1       -0.2291
      7 C           7.3495   41.7193   11.6587 C.3     1  UNL1        0.0948
      8 C           8.7574   41.3501   11.9850 C.2     1  UNL1        0.2261
      9 C           9.4156   41.4962    9.5571 C.3     1  UNL1        0.0934
     10 C           9.9619   40.4015    8.6457 C.3     1  UNL1        0.0219
     11 C          11.4523   40.2011    8.9022 C.3     1  UNL1        0.0078
     12 C          11.6891   39.8308   10.3671 C.3     1  UNL1        0.0424
     13 C          11.1309   40.9118   11.2935 C.3     1  UNL1        0.0977
     14 O           9.0734   41.1713   13.1914 O.2     1  UNL1       -0.2749
     15 N           9.7382   41.1897   10.9497 N.am    1  UNL1       -0.2792
     16 N          16.4142   40.5018    9.1178 N.pl3   1  UNL1       -0.2834
     17 H          17.2351   39.9825    8.9574 H       1  UNL1        0.1550
     18 C          16.2984   41.7559    8.4352 C.ar    1  UNL1        0.1332
     19 C          17.2757   42.7336    8.6407 C.ar    1  UNL1        0.0345
     20 C          17.1710   43.9586    7.9797 C.ar    1  UNL1        0.0045
     21 C          16.0957   44.1963    7.1224 C.ar    1  UNL1        0.0208
     22 C          15.1373   43.1976    6.9400 C.ar    1  UNL1        0.1003
     23 N          15.2571   42.0104    7.5933 N.ar    1  UNL1       -0.2290
@<TRIPOS>BOND
     1     7     8    1
     2     8    15   am
     3     9    15    1
     4     9    10    1
     5    10    11    1
     6    11    12    1
     7    12    13    1
     8    12     1    1
     9    13    15    1
    10     2     3   ar
    11     3    16    1
    12     4     6   ar
    13     5     1   ar
    14    18    23   ar
    15    19    20   ar
    16    21    22   ar
    17    16    18    1
    18     8    14    2
    19     1     2   ar
    20     3     6   ar
    21     4     5   ar
    22    18    19   ar
    23    20    21   ar
    24    22    23   ar
    25    16    17    1
@<TRIPOS>MOLECULE
MolPort-020-281-540 MCULE-5782000833 PubChem-110257273
 23 25 0 0 0
SMALL
GASTEIGER

@<TRIPOS>ATOM
      1 C          14.0642   41.1475    7.9763 C.ar    1  UNL1       -0.0165
      2 C          12.8101   41.1727    7.3621 C.ar    1  UNL1        0.0302
      3 C          12.5081   42.1846    6.4473 C.ar    1  UNL1        0.1329
      4 C          14.6684   43.1351    6.7474 C.ar    1  UNL1        0.1000
      5 C          15.0040   42.1393    7.6658 C.ar    1  UNL1        0.0166
      6 N          13.4403   43.1371    6.1633 N.ar    1  UNL1       -0.2291
      7 C          17.6099   37.3471   11.4549 C.3     1  UNL1        0.0948
      8 C          17.2908   38.3247   10.3743 C.2     1  UNL1        0.2261
      9 C          15.2072   39.0634   11.5836 C.3     1  UNL1        0.0934
     10 C          13.7542   38.9796   11.1261 C.3     1  UNL1        0.0219
     11 C          13.4413   40.1201   10.1623 C.3     1  UNL1        0.0078
     12 C          14.3763   40.0590    8.9535 C.3     1  UNL1        0.0424
     13 C          15.8378   40.1248    9.3984 C.3     1  UNL1        0.0977
     14 O          18.0912   38.4440    9.4087 O.2     1  UNL1       -0.2749
     15 N          16.0918   39.1120   10.4207 N.am    1  UNL1       -0.2792
     16 N          11.2176   42.1975    5.8252 N.pl3   1  UNL1       -0.2834
     17 H          10.7987   43.0780    5.6885 H       1  UNL1        0.1550
     18 C          10.4776   41.0535    5.3827 C.ar    1  UNL1        0.1332
     19 C          10.9406   40.3301    4.2803 C.ar    1  UNL1        0.0345
     20 C          10.2259   39.2140    3.8422 C.ar    1  UNL1        0.0045
     21 C           9.0594   38.8309    4.5057 C.ar    1  UNL1        0.0208
     22 C           8.6252   39.5762    5.6035 C.ar    1  UNL1        0.1003
     23 N           9.3357   40.6608    6.0151 N.ar    1  UNL1       -0.2290
@<TRIPOS>BOND
     1     7     8    1
     2     8    15   am
     3     9    15    1
     4     9    10    1
     5    10    11    1
     6    11    12    1
     7    12    13    1
     8    12     1    1
     9    13    15    1
    10     2     3   ar
    11     3    16    1
    12     4     6   ar
    13     5     1   ar
    14    18    23   ar
    15    19    20   ar
    16    21    22   ar
    17    16    18    1
    18     8    14    2
    19     1     2   ar
    20     3     6   ar
    21     4     5   ar
    22    18    19   ar
    23    20    21   ar
    24    22    23   ar
    25    16    17    1
@<TRIPOS>MOLECULE
MolPort-020-281-540 MCULE-5782000833 PubChem-110257273
 23 25 0 0 0
SMALL
GASTEIGER

@<TRIPOS>ATOM
      1 C          11.9831   40.8455    9.9622 C.ar    1  UNL1       -0.0165
      2 C          13.1140   41.0390    9.1657 C.ar    1  UNL1        0.0302
      3 C          14.3154   40.4125    9.5065 C.ar    1  UNL1        0.1329
      4 C          13.2855   39.4140   11.4045 C.ar    1  UNL1        0.1000
      5 C          12.0693   40.0241   11.0940 C.ar    1  UNL1        0.0166
      6 N          14.3720   39.6187   10.6127 N.ar    1  UNL1       -0.2291
      7 C           7.1738   42.5001    6.3224 C.3     1  UNL1        0.0948
      8 C           8.5211   41.9556    6.6589 C.2     1  UNL1        0.2261
      9 C           7.8206   41.5490    9.0449 C.3     1  UNL1        0.0934
     10 C           8.3931   42.1480   10.3260 C.3     1  UNL1        0.0219
     11 C           9.6762   41.4213   10.7168 C.3     1  UNL1        0.0078
     12 C          10.7023   41.5209    9.5870 C.3     1  UNL1        0.0424
     13 C          10.1357   40.9394    8.2912 C.3     1  UNL1        0.0977
     14 O           9.3839   41.8644    5.7452 O.2     1  UNL1       -0.2749
     15 N           8.8407   41.5495    7.9977 N.am    1  UNL1       -0.2792
     16 N          15.4672   40.6203    8.6801 N.pl3   1  UNL1       -0.2834
     17 H          15.9601   39.8174    8.3946 H       1  UNL1        0.1550
     18 C          15.9710   41.8832    8.2290 C.ar    1  UNL1        0.1332
     19 C          15.2913   42.5621    7.2140 C.ar    1  UNL1        0.0345
     20 C          15.7750   43.7932    6.7681 C.ar    1  UNL1        0.0045
     21 C          16.9288   44.3342    7.3372 C.ar    1  UNL1        0.0208
     22 C          17.5831   43.6294    8.3493 C.ar    1  UNL1        0.1003
     23 N          17.0959   42.4309    8.7699 N.ar    1  UNL1       -0.2290
@<TRIPOS>BOND
     1     7     8    1
     2     8    15   am
     3     9    15    1
     4     9    10    1
     5    10    11    1
     6    11    12    1
     7    12    13    1
     8    12     1    1
     9    13    15    1
    10     2     3   ar
    11     3    16    1
    12     4     6   ar
    13     5     1   ar
    14    18    23   ar
    15    19    20   ar
    16    21    22   ar
    17    16    18    1
    18     8    14    2
    19     1     2   ar
    20     3     6   ar
    21     4     5   ar
    22    18    19   ar
    23    20    21   ar
    24    22    23   ar
    25    16    17    1
@<TRIPOS>MOLECULE
MolPort-020-281-540 MCULE-5782000833 PubChem-110257273
 23 25 0 0 0
SMALL
GASTEIGER

@<TRIPOS>ATOM
      1 C          12.5039   41.4138    7.2411 C.ar    1  UNL1       -0.0165
      2 C          13.6426   41.0493    7.9632 C.ar    1  UNL1        0.0302
      3 C          14.8482   41.7183    7.7374 C.ar    1  UNL1        0.1329
      4 C          13.8072   43.0939    6.0990 C.ar    1  UNL1        0.1000
      5 C          12.5867   42.4474    6.2987 C.ar    1  UNL1        0.0166
      6 N          14.9013   42.7199    6.8150 N.ar    1  UNL1       -0.2291
      7 C           6.5886   39.6350    6.2611 C.3     1  UNL1        0.0948
      8 C           7.8202   40.4623    6.1067 C.2     1  UNL1        0.2261
      9 C           9.2590   38.5762    6.9563 C.3     1  UNL1        0.0934
     10 C          10.1527   38.5356    8.1921 C.3     1  UNL1        0.0219
     11 C          11.4747   39.2411    7.9066 C.3     1  UNL1        0.0078
     12 C          11.2187   40.6908    7.4918 C.3     1  UNL1        0.0424
     13 C          10.3098   40.7477    6.2635 C.3     1  UNL1        0.0977
     14 O           7.7148   41.6236    5.6295 O.2     1  UNL1       -0.2749
     15 N           9.1042   39.9568    6.5008 N.am    1  UNL1       -0.2792
     16 N          16.0080   41.3335    8.4855 N.pl3   1  UNL1       -0.2834
     17 H          16.8571   41.7697    8.2449 H       1  UNL1        0.1550
     18 C          16.0517   40.3755    9.5497 C.ar    1  UNL1        0.1332
     19 C          14.8544   39.9583   10.1374 C.ar    1  UNL1        0.0345
     20 C          14.8875   39.0252   11.1750 C.ar    1  UNL1        0.0045
     21 C          16.1109   38.5183   11.6155 C.ar    1  UNL1        0.0208
     22 C          17.2880   38.9568   11.0061 C.ar    1  UNL1        0.1003
     23 N          17.2348   39.8668    9.9964 N.ar    1  UNL1       -0.2290
@<TRIPOS>BOND
     1     7     8    1
     2     8    15   am
     3     9    15    1
     4     9    10    1
     5    10    11    1
     6    11    12    1
     7    12    13    1
     8    12     1    1
     9    13    15    1
    10     2     3   ar
    11     3    16    1
    12     4     6   ar
    13     5     1   ar
    14    18    23   ar
    15    19    20   ar
    16    21    22   ar
    17    16    18    1
    18     8    14    2
    19     1     2   ar
    20     3     6   ar
    21     4     5   ar
    22    18    19   ar
    23    20    21   ar
    24    22    23   ar
    25    16    17    1
