@<TRIPOS>MOLECULE
MolPort-023-253-701 77343341 CSSS00159601091 MCULE-2373710604 PubChem-70723237 ZINC000077343341 ZINC77343341
 28 31 0 0 0
SMALL
GASTEIGER

@<TRIPOS>ATOM
      1 C          13.0980   38.3371    9.5457 C.ar    1  UNL1        0.1022
      2 C          14.4060   37.9037    9.6581 C.ar    1  UNL1        0.1195
      3 C          14.4213   39.8813    8.8513 C.ar    1  UNL1        0.1486
      4 N          13.1142   39.5856    9.0416 N.ar    1  UNL1       -0.2887
      5 N          15.2342   38.8761    9.2255 N.ar    1  UNL1       -0.2248
      6 C          14.9395   41.1297    8.2670 C.ar    1  UNL1        0.0483
      7 C          16.2433   41.6145    8.5747 C.ar    1  UNL1        0.0638
      8 C          16.7113   42.8050    7.9892 C.ar    1  UNL1        0.0517
      9 C          15.8597   43.4801    7.1211 C.ar    1  UNL1        0.1773
     10 C          14.9150   44.9607    5.6704 C.3     1  UNL1        0.4294
     11 C          14.6120   43.0302    6.8409 C.ar    1  UNL1        0.1766
     12 C          14.1069   41.8590    7.3958 C.ar    1  UNL1        0.0440
     13 O          16.0913   44.6536    6.4319 O.3     1  UNL1       -0.4346
     14 O          13.9960   43.8986    5.9624 O.3     1  UNL1       -0.4346
     15 CL         17.2957   40.7799    9.7088 Cl      1  UNL1       -0.0820
     16 C          10.6563   42.4210    9.3592 C.ar    1  UNL1        0.1535
     17 C           9.6514   42.0072    8.4704 C.ar    1  UNL1        0.0848
     18 C           9.8005   40.7954    7.7800 C.ar    1  UNL1        0.0192
     19 C          10.9367   40.0057    7.9662 C.ar    1  UNL1        0.0190
     20 C          11.9503   40.4134    8.8439 C.ar    1  UNL1        0.0685
     21 C          11.7920   41.6178    9.5421 C.ar    1  UNL1        0.0557
     22 C           7.7013   42.9613    7.1016 C.2     1  UNL1        0.2267
     23 C           6.5282   43.8729    7.1026 C.3     1  UNL1        0.0949
     24 O           7.9804   42.3158    6.0571 O.2     1  UNL1       -0.2748
     25 N           8.4920   42.8353    8.2902 N.am    1  UNL1       -0.2815
     26 H           8.2105   43.3734    9.0652 H       1  UNL1        0.1549
     27 C           9.2963   44.0128   10.6811 C.3     1  UNL1        0.2525
     28 O          10.5107   43.6299   10.0491 O.3     1  UNL1       -0.4701
@<TRIPOS>BOND
     1    27    28    1
     2    16    28    1
     3    17    25    1
     4    17    18   ar
     5    23    22    1
     6    19    20   ar
     7    20     4    1
     8    21    16   ar
     9     2     5   ar
    10     3     6    1
    11     3     4   ar
    12     7    15    1
    13     7     8   ar
    14     9    13    1
    15    10    13    1
    16    10    14    1
    17    11    14    1
    18    11     9   ar
    19    12     6   ar
    20    25    22   am
    21     4     1   ar
    22    16    17   ar
    23    22    24    2
    24    18    19   ar
    25    20    21   ar
    26     1     2   ar
    27     3     5   ar
    28     6     7   ar
    29     8     9   ar
    30    11    12   ar
    31    25    26    1
@<TRIPOS>MOLECULE
MolPort-023-253-701 77343341 CSSS00159601091 MCULE-2373710604 PubChem-70723237 ZINC000077343341 ZINC77343341
 28 31 0 0 0
SMALL
GASTEIGER

@<TRIPOS>ATOM
      1 C           9.4563   40.1601    5.9488 C.ar    1  UNL1        0.1022
      2 C           9.9589   40.1209    4.6615 C.ar    1  UNL1        0.1195
      3 C          11.4263   41.0184    5.9278 C.ar    1  UNL1        0.1486
      4 N          10.3872   40.7221    6.7431 N.ar    1  UNL1       -0.2887
      5 N          11.1966   40.6563    4.6521 N.ar    1  UNL1       -0.2248
      6 C          12.6681   41.6960    6.3368 C.ar    1  UNL1        0.0483
      7 C          13.5624   41.1127    7.2800 C.ar    1  UNL1        0.0638
      8 C          14.7462   41.7823    7.6394 C.ar    1  UNL1        0.0517
      9 C          14.9969   43.0182    7.0529 C.ar    1  UNL1        0.1773
     10 C          15.8881   45.0192    6.4273 C.3     1  UNL1        0.4294
     11 C          14.1386   43.5834    6.1688 C.ar    1  UNL1        0.1766
     12 C          12.9569   42.9589    5.7837 C.ar    1  UNL1        0.0440
     13 O          16.0784   43.8547    7.2433 O.3     1  UNL1       -0.4346
     14 O          14.6367   44.8040    5.7596 O.3     1  UNL1       -0.4346
     15 CL         13.2153   39.5718    8.0517 Cl      1  UNL1       -0.0820
     16 C           9.7389   42.2376   10.1290 C.ar    1  UNL1        0.1535
     17 C          10.0843   41.1700   10.9726 C.ar    1  UNL1        0.0848
     18 C          10.5283   39.9645   10.4094 C.ar    1  UNL1        0.0192
     19 C          10.6237   39.8192    9.0241 C.ar    1  UNL1        0.0190
     20 C          10.2726   40.8751    8.1722 C.ar    1  UNL1        0.0685
     21 C           9.8424   42.0823    8.7385 C.ar    1  UNL1        0.0557
     22 C           8.7896   41.2098   13.1883 C.2     1  UNL1        0.2267
     23 C           8.8713   41.4206   14.6567 C.3     1  UNL1        0.0949
     24 O           7.6801   40.9223   12.6668 O.2     1  UNL1       -0.2748
     25 N           9.9761   41.3383   12.3948 N.am    1  UNL1       -0.2815
     26 H          10.8045   41.5661   12.8754 H       1  UNL1        0.1549
     27 C           8.9550   44.5751    9.9006 C.3     1  UNL1        0.2525
     28 O           9.2949   43.4414   10.6879 O.3     1  UNL1       -0.4701
@<TRIPOS>BOND
     1    27    28    1
     2    16    28    1
     3    17    25    1
     4    17    18   ar
     5    23    22    1
     6    19    20   ar
     7    20     4    1
     8    21    16   ar
     9     2     5   ar
    10     3     6    1
    11     3     4   ar
    12     7    15    1
    13     7     8   ar
    14     9    13    1
    15    10    13    1
    16    10    14    1
    17    11    14    1
    18    11     9   ar
    19    12     6   ar
    20    25    22   am
    21     4     1   ar
    22    16    17   ar
    23    22    24    2
    24    18    19   ar
    25    20    21   ar
    26     1     2   ar
    27     3     5   ar
    28     6     7   ar
    29     8     9   ar
    30    11    12   ar
    31    25    26    1
@<TRIPOS>MOLECULE
MolPort-023-253-701 77343341 CSSS00159601091 MCULE-2373710604 PubChem-70723237 ZINC000077343341 ZINC77343341
 28 31 0 0 0
SMALL
GASTEIGER

@<TRIPOS>ATOM
      1 C          14.0251   43.8622    5.9564 C.ar    1  UNL1        0.1022
      2 C          15.3579   44.1785    6.1432 C.ar    1  UNL1        0.1195
      3 C          14.8836   42.5088    7.3880 C.ar    1  UNL1        0.1486
      4 N          13.7332   42.8063    6.7395 N.ar    1  UNL1       -0.2887
      5 N          15.8949   43.3252    7.0388 N.ar    1  UNL1       -0.2248
      6 C          15.0467   41.4496    8.3979 C.ar    1  UNL1        0.0483
      7 C          16.3242   41.1182    8.9342 C.ar    1  UNL1        0.0638
      8 C          16.4424   40.1085    9.9067 C.ar    1  UNL1        0.0517
      9 C          15.2824   39.4543   10.3077 C.ar    1  UNL1        0.1773
     10 C          13.7577   38.0854   11.3033 C.3     1  UNL1        0.4294
     11 C          14.0682   39.7557    9.7857 C.ar    1  UNL1        0.1766
     12 C          13.9029   40.7456    8.8226 C.ar    1  UNL1        0.0440
     13 O          15.1455   38.4426   11.2369 O.3     1  UNL1       -0.4346
     14 O          13.1070   38.9480   10.3595 O.3     1  UNL1       -0.4346
     15 CL         17.7914   41.9178    8.3880 Cl      1  UNL1       -0.0820
     16 C          10.3272   41.6668    7.8716 C.ar    1  UNL1        0.1535
     17 C           9.9885   40.7700    6.8461 C.ar    1  UNL1        0.0848
     18 C          10.8924   40.5538    5.7955 C.ar    1  UNL1        0.0192
     19 C          12.1166   41.2240    5.7611 C.ar    1  UNL1        0.0190
     20 C          12.4611   42.1285    6.7746 C.ar    1  UNL1        0.0685
     21 C          11.5618   42.3320    7.8296 C.ar    1  UNL1        0.0557
     22 C           7.5118   40.4819    6.2382 C.2     1  UNL1        0.2267
     23 C           6.2922   39.6507    6.4089 C.3     1  UNL1        0.0949
     24 O           7.4599   41.5131    5.5174 O.2     1  UNL1       -0.2748
     25 N           8.7230   40.0929    6.8980 N.am    1  UNL1       -0.2815
     26 H           8.6834   39.2751    7.4446 H       1  UNL1        0.1549
     27 C           9.6535   41.4059   10.2399 C.3     1  UNL1        0.2525
     28 O           9.4272   41.8852    8.9209 O.3     1  UNL1       -0.4701
@<TRIPOS>BOND
     1    27    28    1
     2    16    28    1
     3    17    25    1
     4    17    18   ar
     5    23    22    1
     6    19    20   ar
     7    20     4    1
     8    21    16   ar
     9     2     5   ar
    10     3     6    1
    11     3     4   ar
    12     7    15    1
    13     7     8   ar
    14     9    13    1
    15    10    13    1
    16    10    14    1
    17    11    14    1
    18    11     9   ar
    19    12     6   ar
    20    25    22   am
    21     4     1   ar
    22    16    17   ar
    23    22    24    2
    24    18    19   ar
    25    20    21   ar
    26     1     2   ar
    27     3     5   ar
    28     6     7   ar
    29     8     9   ar
    30    11    12   ar
    31    25    26    1
@<TRIPOS>MOLECULE
MolPort-023-253-701 77343341 CSSS00159601091 MCULE-2373710604 PubChem-70723237 ZINC000077343341 ZINC77343341
 28 31 0 0 0
SMALL
GASTEIGER

@<TRIPOS>ATOM
      1 C          12.9309   38.4199    9.1812 C.ar    1  UNL1        0.1022
      2 C          14.2172   38.0900    9.5657 C.ar    1  UNL1        0.1195
      3 C          14.2593   40.0326    8.6790 C.ar    1  UNL1        0.1486
      4 N          12.9628   39.6470    8.6277 N.ar    1  UNL1       -0.2887
      5 N          15.0478   39.1054    9.2531 N.ar    1  UNL1       -0.2248
      6 C          14.7981   41.2943    8.1439 C.ar    1  UNL1        0.0483
      7 C          16.1059   41.7502    8.4777 C.ar    1  UNL1        0.0638
      8 C          16.5937   42.9547    7.9390 C.ar    1  UNL1        0.0517
      9 C          15.7574   43.6721    7.0903 C.ar    1  UNL1        0.1773
     10 C          14.8428   45.2169    5.6879 C.3     1  UNL1        0.4294
     11 C          14.5059   43.2494    6.7855 C.ar    1  UNL1        0.1766
     12 C          13.9814   42.0658    7.2941 C.ar    1  UNL1        0.0440
     13 O          16.0093   44.8666    6.4458 O.3     1  UNL1       -0.4346
     14 O          13.9078   44.1572    5.9349 O.3     1  UNL1       -0.4346
     15 CL         17.1389   40.8610    9.5879 Cl      1  UNL1       -0.0820
     16 C          10.2652   41.0112    6.3820 C.ar    1  UNL1        0.1535
     17 C           9.5652   41.8389    7.2740 C.ar    1  UNL1        0.0848
     18 C           9.9965   41.9352    8.6052 C.ar    1  UNL1        0.0192
     19 C          11.1074   41.2141    9.0470 C.ar    1  UNL1        0.0190
     20 C          11.8081   40.3777    8.1676 C.ar    1  UNL1        0.0685
     21 C          11.3827   40.2942    6.8352 C.ar    1  UNL1        0.0557
     22 C           7.5206   43.3584    7.5870 C.2     1  UNL1        0.2267
     23 C           6.3876   44.0487    6.9184 C.3     1  UNL1        0.0949
     24 O           7.6680   43.4777    8.8318 O.2     1  UNL1       -0.2748
     25 N           8.4230   42.5699    6.8010 N.am    1  UNL1       -0.2815
     26 H           8.2407   42.5245    5.8346 H       1  UNL1        0.1549
     27 C          10.2951   39.8960    4.1716 C.3     1  UNL1        0.2525
     28 O           9.8369   40.9126    5.0533 O.3     1  UNL1       -0.4701
@<TRIPOS>BOND
     1    27    28    1
     2    16    28    1
     3    17    25    1
     4    17    18   ar
     5    23    22    1
     6    19    20   ar
     7    20     4    1
     8    21    16   ar
     9     2     5   ar
    10     3     6    1
    11     3     4   ar
    12     7    15    1
    13     7     8   ar
    14     9    13    1
    15    10    13    1
    16    10    14    1
    17    11    14    1
    18    11     9   ar
    19    12     6   ar
    20    25    22   am
    21     4     1   ar
    22    16    17   ar
    23    22    24    2
    24    18    19   ar
    25    20    21   ar
    26     1     2   ar
    27     3     5   ar
    28     6     7   ar
    29     8     9   ar
    30    11    12   ar
    31    25    26    1
@<TRIPOS>MOLECULE
MolPort-023-253-701 77343341 CSSS00159601091 MCULE-2373710604 PubChem-70723237 ZINC000077343341 ZINC77343341
 28 31 0 0 0
SMALL
GASTEIGER

@<TRIPOS>ATOM
      1 C          10.7286   39.6566    4.7542 C.ar    1  UNL1        0.1022
      2 C           9.4412   39.1690    4.6275 C.ar    1  UNL1        0.1195
      3 C           9.5413   40.3449    6.4078 C.ar    1  UNL1        0.1486
      4 N          10.7844   40.4009    5.8751 N.ar    1  UNL1       -0.2887
      5 N           8.6974   39.6059    5.6642 N.ar    1  UNL1       -0.2248
      6 C           9.1246   40.9705    7.6741 C.ar    1  UNL1        0.0483
      7 C           8.2018   42.0555    7.7040 C.ar    1  UNL1        0.0638
      8 C           7.8162   42.6219    8.9326 C.ar    1  UNL1        0.0517
      9 C           8.3705   42.0936   10.0936 C.ar    1  UNL1        0.1773
     10 C           8.9517   41.6435   12.2498 C.3     1  UNL1        0.4294
     11 C           9.2624   41.0731   10.0665 C.ar    1  UNL1        0.1766
     12 C           9.6729   40.4820    8.8761 C.ar    1  UNL1        0.0440
     13 O           8.1487   42.4761   11.4014 O.3     1  UNL1       -0.4346
     14 O           9.6470   40.7633   11.3555 O.3     1  UNL1       -0.4346
     15 CL          7.5415   42.7478    6.2292 Cl      1  UNL1       -0.0820
     16 C          13.4016   43.0936    6.1592 C.ar    1  UNL1        0.1535
     17 C          14.2167   42.5708    7.1756 C.ar    1  UNL1        0.0848
     18 C          13.8898   41.3342    7.7513 C.ar    1  UNL1        0.0192
     19 C          12.7637   40.6270    7.3260 C.ar    1  UNL1        0.0190
     20 C          11.9377   41.1437    6.3187 C.ar    1  UNL1        0.0685
     21 C          12.2746   42.3728    5.7364 C.ar    1  UNL1        0.0557
     22 C          16.5747   42.7853    8.1659 C.2     1  UNL1        0.2267
     23 C          17.6680   43.7158    8.5482 C.3     1  UNL1        0.0949
     24 O          16.7265   41.5481    8.3446 O.2     1  UNL1       -0.2748
     25 N          15.3688   43.3152    7.6013 N.am    1  UNL1       -0.2815
     26 H          15.3255   44.2928    7.4940 H       1  UNL1        0.1549
     27 C          15.0608   44.8028    5.4835 C.3     1  UNL1        0.2525
     28 O          13.7248   44.3275    5.5832 O.3     1  UNL1       -0.4701
@<TRIPOS>BOND
     1    27    28    1
     2    16    28    1
     3    17    25    1
     4    17    18   ar
     5    23    22    1
     6    19    20   ar
     7    20     4    1
     8    21    16   ar
     9     2     5   ar
    10     3     6    1
    11     3     4   ar
    12     7    15    1
    13     7     8   ar
    14     9    13    1
    15    10    13    1
    16    10    14    1
    17    11    14    1
    18    11     9   ar
    19    12     6   ar
    20    25    22   am
    21     4     1   ar
    22    16    17   ar
    23    22    24    2
    24    18    19   ar
    25    20    21   ar
    26     1     2   ar
    27     3     5   ar
    28     6     7   ar
    29     8     9   ar
    30    11    12   ar
    31    25    26    1
@<TRIPOS>MOLECULE
MolPort-023-253-701 77343341 CSSS00159601091 MCULE-2373710604 PubChem-70723237 ZINC000077343341 ZINC77343341
 28 31 0 0 0
SMALL
GASTEIGER

@<TRIPOS>ATOM
      1 C          11.4397   38.5342    9.3532 C.ar    1  UNL1        0.1022
      2 C          12.7181   38.0349    9.1870 C.ar    1  UNL1        0.1195
      3 C          12.6035   39.9271    8.2028 C.ar    1  UNL1        0.1486
      4 N          11.3749   39.7289    8.7353 N.ar    1  UNL1       -0.2887
      5 N          13.4472   38.9127    8.4684 N.ar    1  UNL1       -0.2248
      6 C          13.0047   41.0842    7.3852 C.ar    1  UNL1        0.0483
      7 C          12.3259   41.4182    6.1780 C.ar    1  UNL1        0.0638
      8 C          12.7281   42.5378    5.4272 C.ar    1  UNL1        0.0517
      9 C          13.8017   43.2849    5.9000 C.ar    1  UNL1        0.1773
     10 C          15.4579   44.8221    6.1893 C.3     1  UNL1        0.4294
     11 C          14.4606   42.9587    7.0389 C.ar    1  UNL1        0.1766
     12 C          14.0988   41.8613    7.8133 C.ar    1  UNL1        0.0440
     13 O          14.3720   44.4133    5.3457 O.3     1  UNL1       -0.4346
     14 O          15.4788   43.8646    7.2574 O.3     1  UNL1       -0.4346
     15 CL         10.9998   40.4416    5.5631 Cl      1  UNL1       -0.0820
     16 C           7.8934   41.0547    8.1850 C.ar    1  UNL1        0.1535
     17 C           8.0039   42.3399    8.7387 C.ar    1  UNL1        0.0848
     18 C           9.2290   42.7502    9.2848 C.ar    1  UNL1        0.0192
     19 C          10.3305   41.8924    9.2854 C.ar    1  UNL1        0.0190
     20 C          10.2290   40.6040    8.7437 C.ar    1  UNL1        0.0685
     21 C           9.0076   40.2021    8.1869 C.ar    1  UNL1        0.0557
     22 C           6.3286   43.9221    7.6087 C.2     1  UNL1        0.2267
     23 C           5.1263   44.7754    7.7928 C.3     1  UNL1        0.0949
     24 O           6.8608   43.8430    6.4703 O.2     1  UNL1       -0.2748
     25 N           6.8583   43.2060    8.7314 N.am    1  UNL1       -0.2815
     26 H           6.3872   43.3200    9.5883 H       1  UNL1        0.1549
     27 C           6.5802   39.9218    6.4177 C.3     1  UNL1        0.2525
     28 O           6.6722   40.6420    7.6399 O.3     1  UNL1       -0.4701
@<TRIPOS>BOND
     1    27    28    1
     2    16    28    1
     3    17    25    1
     4    17    18   ar
     5    23    22    1
     6    19    20   ar
     7    20     4    1
     8    21    16   ar
     9     2     5   ar
    10     3     6    1
    11     3     4   ar
    12     7    15    1
    13     7     8   ar
    14     9    13    1
    15    10    13    1
    16    10    14    1
    17    11    14    1
    18    11     9   ar
    19    12     6   ar
    20    25    22   am
    21     4     1   ar
    22    16    17   ar
    23    22    24    2
    24    18    19   ar
    25    20    21   ar
    26     1     2   ar
    27     3     5   ar
    28     6     7   ar
    29     8     9   ar
    30    11    12   ar
    31    25    26    1
@<TRIPOS>MOLECULE
MolPort-023-253-701 77343341 CSSS00159601091 MCULE-2373710604 PubChem-70723237 ZINC000077343341 ZINC77343341
 28 31 0 0 0
SMALL
GASTEIGER

@<TRIPOS>ATOM
      1 C          10.6360   39.9747    4.4820 C.ar    1  UNL1        0.1022
      2 C           9.2941   39.7343    4.2519 C.ar    1  UNL1        0.1195
      3 C           9.4893   40.6804    6.1568 C.ar    1  UNL1        0.1486
      4 N          10.7524   40.5754    5.6815 N.ar    1  UNL1       -0.2887
      5 N           8.5768   40.1818    5.3025 N.ar    1  UNL1       -0.2248
      6 C           9.1126   41.2316    7.4693 C.ar    1  UNL1        0.0483
      7 C           8.2053   42.3235    7.5892 C.ar    1  UNL1        0.0638
      8 C           7.8579   42.8177    8.8597 C.ar    1  UNL1        0.0517
      9 C           8.4338   42.2125    9.9716 C.ar    1  UNL1        0.1773
     10 C           9.0623   41.6237   12.0806 C.3     1  UNL1        0.4294
     11 C           9.3111   41.1852    9.8591 C.ar    1  UNL1        0.1766
     12 C           9.6841   40.6637    8.6247 C.ar    1  UNL1        0.0440
     13 O           8.2496   42.5163   11.3056 O.3     1  UNL1       -0.4346
     14 O           9.7234   40.7921   11.1165 O.3     1  UNL1       -0.4346
     15 CL          7.5179   43.1130    6.1770 Cl      1  UNL1       -0.0820
     16 C          13.7984   40.8550    7.8781 C.ar    1  UNL1        0.1535
     17 C          14.3873   42.0255    7.3743 C.ar    1  UNL1        0.0848
     18 C          13.7674   42.7066    6.3163 C.ar    1  UNL1        0.0192
     19 C          12.5790   42.2281    5.7616 C.ar    1  UNL1        0.0190
     20 C          11.9873   41.0555    6.2503 C.ar    1  UNL1        0.0685
     21 C          12.6018   40.3851    7.3161 C.ar    1  UNL1        0.0557
     22 C          16.3364   43.6810    7.5920 C.2     1  UNL1        0.2267
     23 C          17.5927   44.0138    8.3120 C.3     1  UNL1        0.0949
     24 O          15.9306   44.4422    6.6747 O.2     1  UNL1       -0.2748
     25 N          15.6116   42.4995    7.9564 N.am    1  UNL1       -0.2815
     26 H          15.9935   41.9553    8.6826 H       1  UNL1        0.1549
     27 C          13.7849   39.9739   10.1920 C.3     1  UNL1        0.2525
     28 O          14.4148   40.1728    8.9333 O.3     1  UNL1       -0.4701
@<TRIPOS>BOND
     1    27    28    1
     2    16    28    1
     3    17    25    1
     4    17    18   ar
     5    23    22    1
     6    19    20   ar
     7    20     4    1
     8    21    16   ar
     9     2     5   ar
    10     3     6    1
    11     3     4   ar
    12     7    15    1
    13     7     8   ar
    14     9    13    1
    15    10    13    1
    16    10    14    1
    17    11    14    1
    18    11     9   ar
    19    12     6   ar
    20    25    22   am
    21     4     1   ar
    22    16    17   ar
    23    22    24    2
    24    18    19   ar
    25    20    21   ar
    26     1     2   ar
    27     3     5   ar
    28     6     7   ar
    29     8     9   ar
    30    11    12   ar
    31    25    26    1
@<TRIPOS>MOLECULE
MolPort-023-253-701 77343341 CSSS00159601091 MCULE-2373710604 PubChem-70723237 ZINC000077343341 ZINC77343341
 28 31 0 0 0
SMALL
GASTEIGER

@<TRIPOS>ATOM
      1 C           9.3975   41.0217   11.3478 C.ar    1  UNL1        0.1022
      2 C           8.8161   41.3517   12.5580 C.ar    1  UNL1        0.1195
      3 C           7.4329   41.8197   10.9992 C.ar    1  UNL1        0.1486
      4 N           8.5194   41.3141   10.3697 N.ar    1  UNL1       -0.2887
      5 N           7.5820   41.8483   12.3364 N.ar    1  UNL1       -0.2248
      6 C           6.2210   42.3302   10.3364 C.ar    1  UNL1        0.0483
      7 C           4.9495   41.7170   10.5277 C.ar    1  UNL1        0.0638
      8 C           3.8099   42.2380    9.8882 C.ar    1  UNL1        0.0517
      9 C           3.9761   43.3504    9.0700 C.ar    1  UNL1        0.1773
     10 C           3.6712   45.1053    7.6499 C.3     1  UNL1        0.4294
     11 C           5.1880   43.9247    8.8723 C.ar    1  UNL1        0.1766
     12 C           6.3418   43.4444    9.4831 C.ar    1  UNL1        0.0440
     13 O           3.0195   44.0338    8.3464 O.3     1  UNL1       -0.4346
     14 O           5.0547   44.9972    8.0137 O.3     1  UNL1       -0.4346
     15 CL          4.7559   40.2833   11.5265 Cl      1  UNL1       -0.0820
     16 C           7.9336   41.1009    6.6558 C.ar    1  UNL1        0.1535
     17 C           9.1214   40.4851    6.2307 C.ar    1  UNL1        0.0848
     18 C          10.0984   40.1477    7.1789 C.ar    1  UNL1        0.0192
     19 C           9.9004   40.4230    8.5332 C.ar    1  UNL1        0.0190
     20 C           8.7226   41.0458    8.9677 C.ar    1  UNL1        0.0685
     21 C           7.7429   41.3693    8.0197 C.ar    1  UNL1        0.0557
     22 C           9.4134   38.9253    4.2137 C.2     1  UNL1        0.2267
     23 C           9.6039   38.8397    2.7427 C.3     1  UNL1        0.0949
     24 O           9.3488   37.8654    4.8903 O.2     1  UNL1       -0.2748
     25 N           9.3074   40.2134    4.8328 N.am    1  UNL1       -0.2815
     26 H           9.3686   40.9947    4.2368 H       1  UNL1        0.1549
     27 C           6.4175   42.7498    5.6007 C.3     1  UNL1        0.2525
     28 O           6.9571   41.4394    5.7121 O.3     1  UNL1       -0.4701
@<TRIPOS>BOND
     1    27    28    1
     2    16    28    1
     3    17    25    1
     4    17    18   ar
     5    23    22    1
     6    19    20   ar
     7    20     4    1
     8    21    16   ar
     9     2     5   ar
    10     3     6    1
    11     3     4   ar
    12     7    15    1
    13     7     8   ar
    14     9    13    1
    15    10    13    1
    16    10    14    1
    17    11    14    1
    18    11     9   ar
    19    12     6   ar
    20    25    22   am
    21     4     1   ar
    22    16    17   ar
    23    22    24    2
    24    18    19   ar
    25    20    21   ar
    26     1     2   ar
    27     3     5   ar
    28     6     7   ar
    29     8     9   ar
    30    11    12   ar
    31    25    26    1
@<TRIPOS>MOLECULE
MolPort-023-253-701 77343341 CSSS00159601091 MCULE-2373710604 PubChem-70723237 ZINC000077343341 ZINC77343341
 28 31 0 0 0
SMALL
GASTEIGER

@<TRIPOS>ATOM
      1 C          14.6763   42.9332    7.1389 C.ar    1  UNL1        0.1022
      2 C          15.9941   42.7529    7.5161 C.ar    1  UNL1        0.1195
      3 C          14.8442   41.1320    8.2987 C.ar    1  UNL1        0.1486
      4 N          13.9574   41.9062    7.6306 N.ar    1  UNL1       -0.2887
      5 N          16.0971   41.6199    8.2401 N.ar    1  UNL1       -0.2248
      6 C          14.5153   39.9101    9.0519 C.ar    1  UNL1        0.0483
      7 C          15.3869   39.3908   10.0520 C.ar    1  UNL1        0.0638
      8 C          15.0359   38.2276   10.7611 C.ar    1  UNL1        0.0517
      9 C          13.8293   37.6131   10.4437 C.ar    1  UNL1        0.1773
     10 C          12.0243   36.2274   10.3373 C.3     1  UNL1        0.4294
     11 C          13.0067   38.0952    9.4801 C.ar    1  UNL1        0.1766
     12 C          13.3120   39.2414    8.7535 C.ar    1  UNL1        0.0440
     13 O          13.2744   36.4758   10.9956 O.3     1  UNL1       -0.4346
     14 O          11.8940   37.2849    9.3767 O.3     1  UNL1       -0.4346
     15 CL         16.9318   40.1472   10.4146 Cl      1  UNL1       -0.0820
     16 C          10.7095   41.1546    5.8793 C.ar    1  UNL1        0.1535
     17 C           9.7943   41.3037    6.9333 C.ar    1  UNL1        0.0848
     18 C          10.2646   41.6524    8.2079 C.ar    1  UNL1        0.0192
     19 C          11.6285   41.8460    8.4346 C.ar    1  UNL1        0.0190
     20 C          12.5519   41.6907    7.3920 C.ar    1  UNL1        0.0685
     21 C          12.0775   41.3557    6.1169 C.ar    1  UNL1        0.0557
     22 C           7.7270   39.8392    6.5233 C.2     1  UNL1        0.2267
     23 C           6.2638   39.8215    6.2663 C.3     1  UNL1        0.0949
     24 O           8.3536   38.7496    6.5982 O.2     1  UNL1       -0.2748
     25 N           8.3958   41.0969    6.6805 N.am    1  UNL1       -0.2815
     26 H           7.8375   41.9045    6.6075 H       1  UNL1        0.1549
     27 C          10.6786   39.6390    3.9215 C.3     1  UNL1        0.2525
     28 O          10.2435   40.8062    4.6064 O.3     1  UNL1       -0.4701
@<TRIPOS>BOND
     1    27    28    1
     2    16    28    1
     3    17    25    1
     4    17    18   ar
     5    23    22    1
     6    19    20   ar
     7    20     4    1
     8    21    16   ar
     9     2     5   ar
    10     3     6    1
    11     3     4   ar
    12     7    15    1
    13     7     8   ar
    14     9    13    1
    15    10    13    1
    16    10    14    1
    17    11    14    1
    18    11     9   ar
    19    12     6   ar
    20    25    22   am
    21     4     1   ar
    22    16    17   ar
    23    22    24    2
    24    18    19   ar
    25    20    21   ar
    26     1     2   ar
    27     3     5   ar
    28     6     7   ar
    29     8     9   ar
    30    11    12   ar
    31    25    26    1
@<TRIPOS>MOLECULE
MolPort-023-253-701 77343341 CSSS00159601091 MCULE-2373710604 PubChem-70723237 ZINC000077343341 ZINC77343341
 28 31 0 0 0
SMALL
GASTEIGER

@<TRIPOS>ATOM
      1 C           9.8876   40.8430    6.1489 C.ar    1  UNL1        0.1022
      2 C          10.4910   40.7697    4.9072 C.ar    1  UNL1        0.1195
      3 C          11.9981   41.1867    6.3621 C.ar    1  UNL1        0.1486
      4 N          10.8428   41.1010    7.0623 N.ar    1  UNL1       -0.2887
      5 N          11.8157   40.9817    5.0446 N.ar    1  UNL1       -0.2248
      6 C          13.3195   41.5061    6.9282 C.ar    1  UNL1        0.0483
      7 C          14.0319   42.6799    6.5482 C.ar    1  UNL1        0.0638
      8 C          15.2872   42.9605    7.1178 C.ar    1  UNL1        0.0517
      9 C          15.7972   42.0558    8.0430 C.ar    1  UNL1        0.1773
     10 C          17.0827   40.9502    9.5644 C.3     1  UNL1        0.4294
     11 C          15.1293   40.9292    8.3927 C.ar    1  UNL1        0.1766
     12 C          13.8862   40.6105    7.8560 C.ar    1  UNL1        0.0440
     13 O          16.9932   42.1138    8.7301 O.3     1  UNL1       -0.4346
     14 O          15.8720   40.2216    9.3163 O.3     1  UNL1       -0.4346
     15 CL         13.4013   43.7941    5.3436 Cl      1  UNL1       -0.0820
     16 C           9.8050   42.3768   10.4500 C.ar    1  UNL1        0.1535
     17 C          10.2417   41.3301   11.2774 C.ar    1  UNL1        0.0848
     18 C          10.8747   40.2180   10.7030 C.ar    1  UNL1        0.0192
     19 C          11.0676   40.1437    9.3223 C.ar    1  UNL1        0.0190
     20 C          10.6274   41.1784    8.4859 C.ar    1  UNL1        0.0685
     21 C          10.0076   42.2940    9.0642 C.ar    1  UNL1        0.0557
     22 C           8.8265   41.1155   13.4076 C.2     1  UNL1        0.2267
     23 C           8.7956   41.2730   14.8847 C.3     1  UNL1        0.0949
     24 O           7.7945   40.7142   12.8081 O.2     1  UNL1       -0.2748
     25 N          10.0309   41.4239   12.6949 N.am    1  UNL1       -0.2815
     26 H          10.7946   41.7328   13.2340 H       1  UNL1        0.1549
     27 C           8.9200   44.6841   10.2954 C.3     1  UNL1        0.2525
     28 O           9.1725   43.4875   11.0201 O.3     1  UNL1       -0.4701
@<TRIPOS>BOND
     1    27    28    1
     2    16    28    1
     3    17    25    1
     4    17    18   ar
     5    23    22    1
     6    19    20   ar
     7    20     4    1
     8    21    16   ar
     9     2     5   ar
    10     3     6    1
    11     3     4   ar
    12     7    15    1
    13     7     8   ar
    14     9    13    1
    15    10    13    1
    16    10    14    1
    17    11    14    1
    18    11     9   ar
    19    12     6   ar
    20    25    22   am
    21     4     1   ar
    22    16    17   ar
    23    22    24    2
    24    18    19   ar
    25    20    21   ar
    26     1     2   ar
    27     3     5   ar
    28     6     7   ar
    29     8     9   ar
    30    11    12   ar
    31    25    26    1
