@<TRIPOS>MOLECULE
MolPort-006-844-843 20595011 ChemDiv-E135-0291 MCULE-3451746067 PubChem-17253599 ZINC000020595011 ZINC20595011
 30 32 0 0 0
SMALL
GASTEIGER

@<TRIPOS>ATOM
      1 C          10.7075   41.3590    7.3980 C.2     1  UNL1        0.1253
      2 C           9.5256   41.9772    7.5589 C.2     1  UNL1        0.0415
      3 C           8.1776   41.3523    7.5342 C.2     1  UNL1        0.1051
      4 C          12.0080   39.1788    7.3805 C.3     1  UNL1        0.1409
      5 N           8.0093   40.0945    7.2544 N.2     1  UNL1       -0.1140
      6 N          10.7779   39.9329    7.1915 N.pl3   1  UNL1       -0.1689
      7 O           9.2709   38.6164    5.4626 O.2     1  UNL1       -0.1310
      8 O           9.2709   37.8486    7.8079 O.2     1  UNL1       -0.1310
      9 S           9.3288   39.0455    6.9011 S.O2    1  UNL1        0.1549
     10 C           6.9912   42.1916    7.8164 C.ar    1  UNL1        0.0195
     11 C           6.7882   43.3998    7.1309 C.ar    1  UNL1        0.0047
     12 C           5.6678   44.1906    7.3996 C.ar    1  UNL1        0.0369
     13 C           4.7323   43.7880    8.3569 C.ar    1  UNL1        0.1387
     14 C           4.9290   42.5814    9.0462 C.ar    1  UNL1        0.0369
     15 C           6.0494   41.7909    8.7773 C.ar    1  UNL1        0.0047
     16 C           3.0039   45.3825    7.5897 C.3     1  UNL1        0.2525
     17 O           3.6224   44.6008    8.6026 O.3     1  UNL1       -0.4714
     18 C          11.9297   42.1998    7.4285 C.2     1  UNL1        0.2646
     19 N          12.6708   42.4443    6.2260 N.am    1  UNL1       -0.2768
     20 O          12.2967   42.7288    8.5142 O.2     1  UNL1       -0.2684
     21 H          12.3337   42.0323    5.3978 H       1  UNL1        0.1553
     22 C          15.0334   42.9806    6.7970 C.ar    1  UNL1        0.1113
     23 C          13.8592   43.2363    6.1265 C.ar    1  UNL1        0.0907
     24 C          14.0480   44.3720    5.3604 C.ar    1  UNL1        0.1363
     25 N          15.8840   43.9563    6.4290 N.ar    1  UNL1       -0.2481
     26 N          15.3125   44.7866    5.5712 N.ar    1  UNL1       -0.1663
     27 C          17.2636   44.0837    6.8691 C.3     1  UNL1        0.1276
     28 C          17.4196   43.5361    8.2790 C.3     1  UNL1        0.0264
     29 C          17.2061   41.2489    9.2471 C.3     1  UNL1        0.0001
     30 C          17.9425   42.1114    8.2395 C.3     1  UNL1        0.0021
@<TRIPOS>BOND
     1    29    30    1
     2    30    28    1
     3    28    27    1
     4    27    25    1
     5    23    19    1
     6    23    24   ar
     7    18     1    1
     8     2     3    1
     9     3    10    1
    10     4     6    1
    11    11    12   ar
    12    13    17    1
    13    13    14   ar
    14    16    17    1
    15    15    10   ar
    16    25    22   ar
    17    25    26   ar
    18    19    18   am
    19     6     1    1
    20     9     5    1
    21     9     6    1
    22    22    23   ar
    23    18    20    2
    24     1     2    2
    25     3     5    2
    26    10    11   ar
    27    12    13   ar
    28    14    15   ar
    29    24    26   ar
    30     9     7    2
    31     9     8    2
    32    19    21    1
@<TRIPOS>MOLECULE
MolPort-006-844-843 20595011 ChemDiv-E135-0291 MCULE-3451746067 PubChem-17253599 ZINC000020595011 ZINC20595011
 30 32 0 0 0
SMALL
GASTEIGER

@<TRIPOS>ATOM
      1 C          10.5820   41.3792    6.4784 C.2     1  UNL1        0.1253
      2 C          10.2714   41.4958    7.7803 C.2     1  UNL1        0.0415
      3 C           9.0046   41.0838    8.4389 C.2     1  UNL1        0.1051
      4 C          10.0728   40.3058    4.2348 C.3     1  UNL1        0.1409
      5 N           7.9956   40.6261    7.7599 N.2     1  UNL1       -0.1140
      6 N           9.6568   40.7858    5.5441 N.pl3   1  UNL1       -0.1689
      7 O           7.0925   41.4169    5.4049 O.2     1  UNL1       -0.1310
      8 O           7.6784   39.0358    5.6833 O.2     1  UNL1       -0.1310
      9 S           8.0432   40.4474    6.0476 S.O2    1  UNL1        0.1549
     10 C           8.8818   41.2180    9.9080 C.ar    1  UNL1        0.0195
     11 C           7.6444   41.5176   10.4996 C.ar    1  UNL1        0.0047
     12 C           7.5311   41.6445   11.8867 C.ar    1  UNL1        0.0369
     13 C           8.6513   41.4745   12.7053 C.ar    1  UNL1        0.1387
     14 C           9.8916   41.1752   12.1206 C.ar    1  UNL1        0.0369
     15 C          10.0045   41.0484   10.7336 C.ar    1  UNL1        0.0047
     16 C           9.2989   40.8822   15.0179 C.3     1  UNL1        0.2525
     17 O           8.5054   41.6078   14.0887 O.3     1  UNL1       -0.4714
     18 C          11.9031   41.8943    6.0410 C.2     1  UNL1        0.2646
     19 N          12.5621   42.9249    6.7883 N.am    1  UNL1       -0.2768
     20 O          12.4619   41.3965    5.0246 O.2     1  UNL1       -0.2684
     21 H          12.1009   43.2659    7.5884 H       1  UNL1        0.1553
     22 C          15.0134   43.2074    7.1156 C.ar    1  UNL1        0.1113
     23 C          13.8338   43.5006    6.4705 C.ar    1  UNL1        0.0907
     24 C          14.1104   44.4304    5.4849 C.ar    1  UNL1        0.1363
     25 N          15.9543   43.9600    6.5164 N.ar    1  UNL1       -0.2481
     26 N          15.4317   44.6873    5.5419 N.ar    1  UNL1       -0.1663
     27 C          17.3695   43.9648    6.8489 C.3     1  UNL1        0.1276
     28 C          17.7812   42.6168    7.4195 C.3     1  UNL1        0.0264
     29 C          17.1466   41.1449    9.3287 C.3     1  UNL1        0.0001
     30 C          17.4926   42.5612    8.9089 C.3     1  UNL1        0.0021
@<TRIPOS>BOND
     1    29    30    1
     2    30    28    1
     3    28    27    1
     4    27    25    1
     5    23    19    1
     6    23    24   ar
     7    18     1    1
     8     2     3    1
     9     3    10    1
    10     4     6    1
    11    11    12   ar
    12    13    17    1
    13    13    14   ar
    14    16    17    1
    15    15    10   ar
    16    25    22   ar
    17    25    26   ar
    18    19    18   am
    19     6     1    1
    20     9     5    1
    21     9     6    1
    22    22    23   ar
    23    18    20    2
    24     1     2    2
    25     3     5    2
    26    10    11   ar
    27    12    13   ar
    28    14    15   ar
    29    24    26   ar
    30     9     7    2
    31     9     8    2
    32    19    21    1
@<TRIPOS>MOLECULE
MolPort-006-844-843 20595011 ChemDiv-E135-0291 MCULE-3451746067 PubChem-17253599 ZINC000020595011 ZINC20595011
 30 32 0 0 0
SMALL
GASTEIGER

@<TRIPOS>ATOM
      1 C          11.1308   41.8455    8.4780 C.2     1  UNL1        0.1253
      2 C           9.8598   42.2753    8.4087 C.2     1  UNL1        0.0415
      3 C           8.7549   41.9585    9.3505 C.2     1  UNL1        0.1051
      4 C          12.9765   40.8110    9.8809 C.3     1  UNL1        0.1409
      5 N           8.9092   41.1218   10.3327 N.2     1  UNL1       -0.1140
      6 N          11.5697   40.9952    9.5576 N.pl3   1  UNL1       -0.1689
      7 O          10.2573   38.8485   10.3716 O.2     1  UNL1       -0.1310
      8 O          10.8209   40.5609   12.0569 O.2     1  UNL1       -0.1310
      9 S          10.4038   40.3205   10.6333 S.O2    1  UNL1        0.1549
     10 C           7.4351   42.5989    9.1515 C.ar    1  UNL1        0.0195
     11 C           7.3213   43.7971    8.4290 C.ar    1  UNL1        0.0047
     12 C           6.0744   44.4001    8.2431 C.ar    1  UNL1        0.0369
     13 C           4.9213   43.8166    8.7757 C.ar    1  UNL1        0.1387
     14 C           5.0277   42.6188    9.4994 C.ar    1  UNL1        0.0369
     15 C           6.2746   42.0162    9.6850 C.ar    1  UNL1        0.0047
     16 C           3.4581   45.3546    7.5061 C.3     1  UNL1        0.2525
     17 O           3.6893   44.4440    8.5724 O.3     1  UNL1       -0.4714
     18 C          12.0564   42.2685    7.3981 C.2     1  UNL1        0.2646
     19 N          13.1855   43.0998    7.6963 N.am    1  UNL1       -0.2768
     20 O          11.8648   41.8644    6.2177 O.2     1  UNL1       -0.2684
     21 H          13.3101   43.3702    8.6347 H       1  UNL1        0.1553
     22 C          15.5016   43.3359    6.8155 C.ar    1  UNL1        0.1113
     23 C          14.1474   43.5705    6.7462 C.ar    1  UNL1        0.0907
     24 C          13.9062   44.3251    5.6127 C.ar    1  UNL1        0.1363
     25 N          16.0341   43.9503    5.7432 N.ar    1  UNL1       -0.2481
     26 N          15.0959   44.5372    5.0171 N.ar    1  UNL1       -0.1663
     27 C          17.4429   43.9525    5.3849 C.3     1  UNL1        0.1276
     28 C          18.3002   44.1817    6.6196 C.3     1  UNL1        0.0264
     29 C          18.2352   42.1463    8.0573 C.3     1  UNL1        0.0001
     30 C          17.6627   43.5336    7.8354 C.3     1  UNL1        0.0021
@<TRIPOS>BOND
     1    29    30    1
     2    30    28    1
     3    28    27    1
     4    27    25    1
     5    23    19    1
     6    23    24   ar
     7    18     1    1
     8     2     3    1
     9     3    10    1
    10     4     6    1
    11    11    12   ar
    12    13    17    1
    13    13    14   ar
    14    16    17    1
    15    15    10   ar
    16    25    22   ar
    17    25    26   ar
    18    19    18   am
    19     6     1    1
    20     9     5    1
    21     9     6    1
    22    22    23   ar
    23    18    20    2
    24     1     2    2
    25     3     5    2
    26    10    11   ar
    27    12    13   ar
    28    14    15   ar
    29    24    26   ar
    30     9     7    2
    31     9     8    2
    32    19    21    1
@<TRIPOS>MOLECULE
MolPort-006-844-843 20595011 ChemDiv-E135-0291 MCULE-3451746067 PubChem-17253599 ZINC000020595011 ZINC20595011
 30 32 0 0 0
SMALL
GASTEIGER

@<TRIPOS>ATOM
      1 C           9.6264   41.6930   10.0859 C.2     1  UNL1        0.1253
      2 C           8.5573   42.2387    9.4823 C.2     1  UNL1        0.0415
      3 C           7.2403   42.5447   10.0988 C.2     1  UNL1        0.1051
      4 C          10.8047   41.1124   12.2583 C.3     1  UNL1        0.1409
      5 N           6.9632   42.2146   11.3247 N.2     1  UNL1       -0.1140
      6 N           9.5940   41.3498   11.4867 N.pl3   1  UNL1       -0.1689
      7 O           7.6205   40.0139   12.6330 O.2     1  UNL1       -0.1310
      8 O           8.2644   42.1842   13.6155 O.2     1  UNL1       -0.1310
      9 S           8.0970   41.4080   12.3396 S.O2    1  UNL1        0.1549
     10 C           6.2077   43.2268    9.2864 C.ar    1  UNL1        0.0195
     11 C           4.8428   43.0085    9.5315 C.ar    1  UNL1        0.0047
     12 C           3.8699   43.6531    8.7628 C.ar    1  UNL1        0.0369
     13 C           4.2441   44.5257    7.7370 C.ar    1  UNL1        0.1387
     14 C           5.6068   44.7484    7.4861 C.ar    1  UNL1        0.0369
     15 C           6.5793   44.1038    8.2550 C.ar    1  UNL1        0.0047
     16 C           2.0579   45.6706    7.5684 C.3     1  UNL1        0.2525
     17 O           3.2474   45.1549    6.9863 O.3     1  UNL1       -0.4714
     18 C          10.8308   41.4475    9.2545 C.2     1  UNL1        0.2646
     19 N          11.6492   42.5428    8.8242 N.am    1  UNL1       -0.2768
     20 O          11.1521   40.2641    8.9552 O.2     1  UNL1       -0.2684
     21 H          11.3746   43.4464    9.1022 H       1  UNL1        0.1553
     22 C          13.2077   43.3320    7.0510 C.ar    1  UNL1        0.1113
     23 C          12.8318   42.4350    8.0245 C.ar    1  UNL1        0.0907
     24 C          13.7921   41.4412    8.0778 C.ar    1  UNL1        0.1363
     25 N          14.3626   42.8605    6.5462 N.ar    1  UNL1       -0.2481
     26 N          14.7238   41.7403    7.1516 N.ar    1  UNL1       -0.1663
     27 C          15.1494   43.4964    5.5023 C.3     1  UNL1        0.1276
     28 C          16.0055   44.6070    6.0903 C.3     1  UNL1        0.0264
     29 C          17.9537   43.7755    7.4046 C.3     1  UNL1        0.0001
     30 C          16.5039   44.2178    7.4704 C.3     1  UNL1        0.0021
@<TRIPOS>BOND
     1    29    30    1
     2    30    28    1
     3    28    27    1
     4    27    25    1
     5    23    19    1
     6    23    24   ar
     7    18     1    1
     8     2     3    1
     9     3    10    1
    10     4     6    1
    11    11    12   ar
    12    13    17    1
    13    13    14   ar
    14    16    17    1
    15    15    10   ar
    16    25    22   ar
    17    25    26   ar
    18    19    18   am
    19     6     1    1
    20     9     5    1
    21     9     6    1
    22    22    23   ar
    23    18    20    2
    24     1     2    2
    25     3     5    2
    26    10    11   ar
    27    12    13   ar
    28    14    15   ar
    29    24    26   ar
    30     9     7    2
    31     9     8    2
    32    19    21    1
@<TRIPOS>MOLECULE
MolPort-006-844-843 20595011 ChemDiv-E135-0291 MCULE-3451746067 PubChem-17253599 ZINC000020595011 ZINC20595011
 30 32 0 0 0
SMALL
GASTEIGER

@<TRIPOS>ATOM
      1 C           9.6861   39.9498    5.5683 C.2     1  UNL1        0.1253
      2 C          10.8954   40.5007    5.7655 C.2     1  UNL1        0.0415
      3 C          11.2236   41.6457    6.6541 C.2     1  UNL1        0.1051
      4 C           7.2946   39.6700    6.3728 C.3     1  UNL1        0.1409
      5 N          10.3030   42.3066    7.2901 N.2     1  UNL1       -0.1140
      6 N           8.5226   40.4431    6.2641 N.pl3   1  UNL1       -0.1689
      7 O           7.8940   43.0046    6.4556 O.2     1  UNL1       -0.1310
      8 O           8.0664   41.7024    8.5448 O.2     1  UNL1       -0.1310
      9 S           8.6322   41.9070    7.1677 S.O2    1  UNL1        0.1549
     10 C          12.6377   42.0579    6.8026 C.ar    1  UNL1        0.0195
     11 C          13.1526   43.1336    6.0620 C.ar    1  UNL1        0.0047
     12 C          14.4880   43.5203    6.2035 C.ar    1  UNL1        0.0369
     13 C          15.3307   42.8392    7.0865 C.ar    1  UNL1        0.1387
     14 C          14.8228   41.7626    7.8299 C.ar    1  UNL1        0.0369
     15 C          13.4874   41.3762    7.6882 C.ar    1  UNL1        0.0047
     16 C          17.3670   43.8822    6.1463 C.3     1  UNL1        0.2525
     17 O          16.6611   43.2501    7.2054 O.3     1  UNL1       -0.4714
     18 C           9.5943   38.8277    4.6016 C.2     1  UNL1        0.2646
     19 N          10.4715   37.6997    4.7162 N.am    1  UNL1       -0.2768
     20 O           8.7158   38.8543    3.6958 O.2     1  UNL1       -0.2684
     21 H          11.1242   37.7100    5.4530 H       1  UNL1        0.1553
     22 C          11.1940   35.4054    4.0760 C.ar    1  UNL1        0.1113
     23 C          10.4793   36.5595    3.8505 C.ar    1  UNL1        0.0907
     24 C           9.7904   36.4050    2.6613 C.ar    1  UNL1        0.1363
     25 N          10.9272   34.6004    3.0312 N.ar    1  UNL1       -0.2481
     26 N          10.0898   35.1804    2.1860 N.ar    1  UNL1       -0.1663
     27 C          11.4448   33.2543    2.8490 C.3     1  UNL1        0.1276
     28 C          11.2471   32.4377    4.1164 C.3     1  UNL1        0.0264
     29 C          11.3264   30.4414    2.6255 C.3     1  UNL1        0.0001
     30 C          11.8039   31.0369    3.9366 C.3     1  UNL1        0.0021
@<TRIPOS>BOND
     1    29    30    1
     2    30    28    1
     3    28    27    1
     4    27    25    1
     5    23    19    1
     6    23    24   ar
     7    18     1    1
     8     2     3    1
     9     3    10    1
    10     4     6    1
    11    11    12   ar
    12    13    17    1
    13    13    14   ar
    14    16    17    1
    15    15    10   ar
    16    25    22   ar
    17    25    26   ar
    18    19    18   am
    19     6     1    1
    20     9     5    1
    21     9     6    1
    22    22    23   ar
    23    18    20    2
    24     1     2    2
    25     3     5    2
    26    10    11   ar
    27    12    13   ar
    28    14    15   ar
    29    24    26   ar
    30     9     7    2
    31     9     8    2
    32    19    21    1
@<TRIPOS>MOLECULE
MolPort-006-844-843 20595011 ChemDiv-E135-0291 MCULE-3451746067 PubChem-17253599 ZINC000020595011 ZINC20595011
 30 32 0 0 0
SMALL
GASTEIGER

@<TRIPOS>ATOM
      1 C           9.4547   41.9202   10.4049 C.2     1  UNL1        0.1253
      2 C           8.3414   42.3805    9.8103 C.2     1  UNL1        0.0415
      3 C           7.0251   42.6370   10.4505 C.2     1  UNL1        0.1051
      4 C          10.7188   41.4943   12.5649 C.3     1  UNL1        0.1409
      5 N           6.7983   42.3415   11.6955 N.2     1  UNL1       -0.1140
      6 N           9.4774   41.6324   11.8184 N.pl3   1  UNL1       -0.1689
      7 O           7.6129   40.2354   13.0695 O.2     1  UNL1       -0.1310
      8 O           8.1568   42.4762   13.9490 O.2     1  UNL1       -0.1310
      9 S           8.0016   41.6411   12.7093 S.O2    1  UNL1        0.1549
     10 C           5.9351   43.2271    9.6411 C.ar    1  UNL1        0.0195
     11 C           6.2126   44.1903    8.6582 C.ar    1  UNL1        0.0047
     12 C           5.1818   44.7463    7.8959 C.ar    1  UNL1        0.0369
     13 C           3.8575   44.3499    8.1027 C.ar    1  UNL1        0.1387
     14 C           3.5727   43.3877    9.0839 C.ar    1  UNL1        0.0369
     15 C           4.6036   42.8319    9.8459 C.ar    1  UNL1        0.0047
     16 C           2.0570   46.0142    7.7763 C.3     1  UNL1        0.2525
     17 O           2.8494   44.9246    7.3242 O.3     1  UNL1       -0.4714
     18 C          10.6497   41.7091    9.5509 C.2     1  UNL1        0.2646
     19 N          10.7709   42.3884    8.2944 N.am    1  UNL1       -0.2768
     20 O          11.5778   40.9533    9.9515 O.2     1  UNL1       -0.2684
     21 H          10.0346   42.9877    8.0337 H       1  UNL1        0.1553
     22 C          13.1976   42.3623    7.7408 C.ar    1  UNL1        0.1113
     23 C          11.8712   42.2697    7.3861 C.ar    1  UNL1        0.0907
     24 C          11.8124   42.0448    6.0229 C.ar    1  UNL1        0.1363
     25 N          13.8929   42.1998    6.6001 N.ar    1  UNL1       -0.2481
     26 N          13.0816   42.0047    5.5727 N.ar    1  UNL1       -0.1663
     27 C          15.3422   42.1958    6.4884 C.3     1  UNL1        0.1276
     28 C          15.8339   43.5355    5.9636 C.3     1  UNL1        0.0264
     29 C          17.4220   44.9101    7.3062 C.3     1  UNL1        0.0001
     30 C          17.2894   43.7496    6.3381 C.3     1  UNL1        0.0021
@<TRIPOS>BOND
     1    29    30    1
     2    30    28    1
     3    28    27    1
     4    27    25    1
     5    23    19    1
     6    23    24   ar
     7    18     1    1
     8     2     3    1
     9     3    10    1
    10     4     6    1
    11    11    12   ar
    12    13    17    1
    13    13    14   ar
    14    16    17    1
    15    15    10   ar
    16    25    22   ar
    17    25    26   ar
    18    19    18   am
    19     6     1    1
    20     9     5    1
    21     9     6    1
    22    22    23   ar
    23    18    20    2
    24     1     2    2
    25     3     5    2
    26    10    11   ar
    27    12    13   ar
    28    14    15   ar
    29    24    26   ar
    30     9     7    2
    31     9     8    2
    32    19    21    1
@<TRIPOS>MOLECULE
MolPort-006-844-843 20595011 ChemDiv-E135-0291 MCULE-3451746067 PubChem-17253599 ZINC000020595011 ZINC20595011
 30 32 0 0 0
SMALL
GASTEIGER

@<TRIPOS>ATOM
      1 C           4.7283   41.5120   11.0709 C.2     1  UNL1        0.1253
      2 C           3.8651   41.8565   12.0410 C.2     1  UNL1        0.0415
      3 C           2.4404   42.2451   11.8753 C.2     1  UNL1        0.1051
      4 C           5.0770   40.7618    8.6708 C.3     1  UNL1        0.1409
      5 N           1.8967   42.3752   10.7022 N.2     1  UNL1       -0.1140
      6 N           4.3147   41.4678    9.6896 N.pl3   1  UNL1       -0.1689
      7 O           2.9443   43.3902    8.4978 O.2     1  UNL1       -0.1310
      8 O           2.0342   41.0983    8.4016 O.2     1  UNL1       -0.1310
      9 S           2.7730   42.0985    9.2455 S.O2    1  UNL1        0.1549
     10 C           1.6232   42.5114   13.0806 C.ar    1  UNL1        0.0195
     11 C           1.6290   43.7785   13.6851 C.ar    1  UNL1        0.0047
     12 C           0.8572   44.0272   14.8233 C.ar    1  UNL1        0.0369
     13 C           0.0676   43.0150   15.3762 C.ar    1  UNL1        0.1387
     14 C           0.0573   41.7458   14.7773 C.ar    1  UNL1        0.0369
     15 C           0.8291   41.4975   13.6392 C.ar    1  UNL1        0.0047
     16 C          -0.1116   43.4980   17.7955 C.3     1  UNL1        0.2525
     17 O          -0.6928   43.2953   16.5146 O.3     1  UNL1       -0.4714
     18 C           6.1202   41.1929   11.4746 C.2     1  UNL1        0.2646
     19 N           7.2277   41.6987   10.7180 N.am    1  UNL1       -0.2768
     20 O           6.3269   40.5005   12.5095 O.2     1  UNL1       -0.2684
     21 H           7.0199   42.2554    9.9330 H       1  UNL1        0.1553
     22 C           9.5866   41.2536   10.0597 C.ar    1  UNL1        0.1113
     23 C           8.6101   41.4636   11.0063 C.ar    1  UNL1        0.0907
     24 C           9.2088   41.4062   12.2516 C.ar    1  UNL1        0.1363
     25 N          10.7289   41.0718   10.7473 N.ar    1  UNL1       -0.2481
     26 N          10.5191   41.1656   12.0508 N.ar    1  UNL1       -0.1663
     27 C          12.0390   40.8403   10.1615 C.3     1  UNL1        0.1276
     28 C          12.8553   39.9116   11.0466 C.3     1  UNL1        0.0264
     29 C          14.4310   40.5605    9.2272 C.3     1  UNL1        0.0001
     30 C          14.2299   39.6793   10.4458 C.3     1  UNL1        0.0021
@<TRIPOS>BOND
     1    29    30    1
     2    30    28    1
     3    28    27    1
     4    27    25    1
     5    23    19    1
     6    23    24   ar
     7    18     1    1
     8     2     3    1
     9     3    10    1
    10     4     6    1
    11    11    12   ar
    12    13    17    1
    13    13    14   ar
    14    16    17    1
    15    15    10   ar
    16    25    22   ar
    17    25    26   ar
    18    19    18   am
    19     6     1    1
    20     9     5    1
    21     9     6    1
    22    22    23   ar
    23    18    20    2
    24     1     2    2
    25     3     5    2
    26    10    11   ar
    27    12    13   ar
    28    14    15   ar
    29    24    26   ar
    30     9     7    2
    31     9     8    2
    32    19    21    1
@<TRIPOS>MOLECULE
MolPort-006-844-843 20595011 ChemDiv-E135-0291 MCULE-3451746067 PubChem-17253599 ZINC000020595011 ZINC20595011
 30 32 0 0 0
SMALL
GASTEIGER

@<TRIPOS>ATOM
      1 C           8.8908   41.7436    8.6367 C.2     1  UNL1        0.1253
      2 C           7.7897   41.7596    9.4063 C.2     1  UNL1        0.0415
      3 C           6.3823   41.9063    8.9524 C.2     1  UNL1        0.1051
      4 C           9.8886   41.4799    6.3173 C.3     1  UNL1        0.1409
      5 N           6.0823   42.1298    7.7079 N.2     1  UNL1       -0.1140
      6 N           8.7960   41.8564    7.2016 N.pl3   1  UNL1       -0.1689
      7 O           7.3278   43.6707    5.9582 O.2     1  UNL1       -0.1310
      8 O           6.9706   41.3007    5.3701 O.2     1  UNL1       -0.1310
      9 S           7.2837   42.2630    6.4810 S.O2    1  UNL1        0.1549
     10 C           5.2923   41.8156    9.9501 C.ar    1  UNL1        0.0195
     11 C           4.1813   42.6707    9.8778 C.ar    1  UNL1        0.0047
     12 C           3.1540   42.5837   10.8212 C.ar    1  UNL1        0.0369
     13 C           3.2195   41.6418   11.8518 C.ar    1  UNL1        0.1387
     14 C           4.3275   40.7839   11.9304 C.ar    1  UNL1        0.0369
     15 C           5.3545   40.8712   10.9869 C.ar    1  UNL1        0.0047
     16 C           1.1800   42.5877   12.8832 C.3     1  UNL1        0.2525
     17 O           2.1763   41.5796   12.7795 O.3     1  UNL1       -0.4714
     18 C          10.2020   41.6186    9.3203 C.2     1  UNL1        0.2646
     19 N          10.9733   40.4171    9.1930 N.am    1  UNL1       -0.2768
     20 O          10.6528   42.5899    9.9885 O.2     1  UNL1       -0.2684
     21 H          10.5943   39.6951    8.6414 H       1  UNL1        0.1553
     22 C          13.4587   40.2847    9.1544 C.ar    1  UNL1        0.1113
     23 C          12.2478   40.1774    9.7995 C.ar    1  UNL1        0.0907
     24 C          12.4970   39.8059   11.1081 C.ar    1  UNL1        0.1363
     25 N          14.3910   39.9741   10.0737 N.ar    1  UNL1       -0.2481
     26 N          13.8330   39.6931   11.2406 N.ar    1  UNL1       -0.1663
     27 C          15.8278   39.9765    9.8529 C.3     1  UNL1        0.1276
     28 C          16.2260   41.1622    8.9882 C.3     1  UNL1        0.0264
     29 C          15.4750   42.7469    7.2165 C.3     1  UNL1        0.0001
     30 C          15.0644   41.5917    8.1101 C.3     1  UNL1        0.0021
@<TRIPOS>BOND
     1    29    30    1
     2    30    28    1
     3    28    27    1
     4    27    25    1
     5    23    19    1
     6    23    24   ar
     7    18     1    1
     8     2     3    1
     9     3    10    1
    10     4     6    1
    11    11    12   ar
    12    13    17    1
    13    13    14   ar
    14    16    17    1
    15    15    10   ar
    16    25    22   ar
    17    25    26   ar
    18    19    18   am
    19     6     1    1
    20     9     5    1
    21     9     6    1
    22    22    23   ar
    23    18    20    2
    24     1     2    2
    25     3     5    2
    26    10    11   ar
    27    12    13   ar
    28    14    15   ar
    29    24    26   ar
    30     9     7    2
    31     9     8    2
    32    19    21    1
@<TRIPOS>MOLECULE
MolPort-006-844-843 20595011 ChemDiv-E135-0291 MCULE-3451746067 PubChem-17253599 ZINC000020595011 ZINC20595011
 30 32 0 0 0
SMALL
GASTEIGER

@<TRIPOS>ATOM
      1 C           8.9527   39.1816    4.2253 C.2     1  UNL1        0.1253
      2 C           8.1889   39.9336    5.0353 C.2     1  UNL1        0.0415
      3 C           8.6552   40.8664    6.0939 C.2     1  UNL1        0.1051
      4 C          11.2482   38.7389    3.2356 C.3     1  UNL1        0.1409
      5 N           9.9120   40.9794    6.4040 N.2     1  UNL1       -0.1140
      6 N          10.3923   39.2308    4.3047 N.pl3   1  UNL1       -0.1689
      7 O          11.7506   39.0876    6.5691 O.2     1  UNL1       -0.1310
      8 O          12.1911   41.0072    5.0821 O.2     1  UNL1       -0.1310
      9 S          11.1413   40.0707    5.6105 S.O2    1  UNL1        0.1549
     10 C           7.6570   41.6747    6.8300 C.ar    1  UNL1        0.0195
     11 C           6.6441   41.0550    7.5788 C.ar    1  UNL1        0.0047
     12 C           5.7026   41.8202    8.2723 C.ar    1  UNL1        0.0369
     13 C           5.7572   43.2163    8.2292 C.ar    1  UNL1        0.1387
     14 C           6.7670   43.8425    7.4823 C.ar    1  UNL1        0.0369
     15 C           7.7082   43.0771    6.7891 C.ar    1  UNL1        0.0047
     16 C           3.5257   44.2706    8.3935 C.3     1  UNL1        0.2525
     17 O           4.8013   43.9532    8.9335 O.3     1  UNL1       -0.4714
     18 C           8.2588   38.2938    3.2597 C.2     1  UNL1        0.2646
     19 N           6.9510   38.6293    2.7781 N.am    1  UNL1       -0.2768
     20 O           8.8399   37.2563    2.8365 O.2     1  UNL1       -0.2684
     21 H           6.5465   39.4609    3.1159 H       1  UNL1        0.1553
     22 C           6.0331   36.4914    1.8936 C.ar    1  UNL1        0.1113
     23 C           6.1829   37.8586    1.8478 C.ar    1  UNL1        0.0907
     24 C           5.4665   38.3266    0.7614 C.ar    1  UNL1        0.1363
     25 N           5.2483   36.1747    0.8473 N.ar    1  UNL1       -0.2481
     26 N           4.9000   37.2570    0.1696 N.ar    1  UNL1       -0.1663
     27 C           4.7963   34.8359    0.5060 C.3     1  UNL1        0.1276
     28 C           3.3830   34.6100    1.0196 C.3     1  UNL1        0.0264
     29 C           2.7076   32.6794    2.4446 C.3     1  UNL1        0.0001
     30 C           3.4152   34.0211    2.4184 C.3     1  UNL1        0.0021
@<TRIPOS>BOND
     1    29    30    1
     2    30    28    1
     3    28    27    1
     4    27    25    1
     5    23    19    1
     6    23    24   ar
     7    18     1    1
     8     2     3    1
     9     3    10    1
    10     4     6    1
    11    11    12   ar
    12    13    17    1
    13    13    14   ar
    14    16    17    1
    15    15    10   ar
    16    25    22   ar
    17    25    26   ar
    18    19    18   am
    19     6     1    1
    20     9     5    1
    21     9     6    1
    22    22    23   ar
    23    18    20    2
    24     1     2    2
    25     3     5    2
    26    10    11   ar
    27    12    13   ar
    28    14    15   ar
    29    24    26   ar
    30     9     7    2
    31     9     8    2
    32    19    21    1
@<TRIPOS>MOLECULE
MolPort-006-844-843 20595011 ChemDiv-E135-0291 MCULE-3451746067 PubChem-17253599 ZINC000020595011 ZINC20595011
 30 32 0 0 0
SMALL
GASTEIGER

@<TRIPOS>ATOM
      1 C          11.6694   38.7392    5.6710 C.2     1  UNL1        0.1253
      2 C          12.7336   38.0227    5.2724 C.2     1  UNL1        0.0415
      3 C          12.9222   37.3552    3.9582 C.2     1  UNL1        0.1051
      4 C           9.5639   40.0017    5.0246 C.3     1  UNL1        0.1409
      5 N          11.9846   37.3335    3.0587 N.2     1  UNL1       -0.1140
      6 N          10.5467   38.9543    4.7909 N.pl3   1  UNL1       -0.1689
      7 O           9.3795   37.0369    3.3930 O.2     1  UNL1       -0.1310
      8 O          10.1734   39.0300    2.1735 O.2     1  UNL1       -0.1310
      9 S          10.4539   38.0831    3.3063 S.O2    1  UNL1        0.1549
     10 C          14.2076   36.6780    3.6740 C.ar    1  UNL1        0.0195
     11 C          15.1218   37.2287    2.7620 C.ar    1  UNL1        0.0047
     12 C          16.3343   36.5872    2.4949 C.ar    1  UNL1        0.0369
     13 C          16.6533   35.3856    3.1338 C.ar    1  UNL1        0.1387
     14 C          15.7439   34.8291    4.0465 C.ar    1  UNL1        0.0369
     15 C          14.5317   35.4709    4.3134 C.ar    1  UNL1        0.0047
     16 C          19.0826   35.1103    3.5096 C.3     1  UNL1        0.2525
     17 O          17.8736   34.7687    2.8454 O.3     1  UNL1       -0.4714
     18 C          11.6902   39.2866    7.0501 C.2     1  UNL1        0.2646
     19 N          12.5327   38.6988    8.0499 N.am    1  UNL1       -0.2768
     20 O          10.9868   40.2961    7.3317 O.2     1  UNL1       -0.2684
     21 H          13.0831   37.9289    7.7789 H       1  UNL1        0.1553
     22 C          13.6365   38.7545   10.2802 C.ar    1  UNL1        0.1113
     23 C          12.6420   39.1358    9.4088 C.ar    1  UNL1        0.0907
     24 C          11.7967   39.9983   10.0827 C.ar    1  UNL1        0.1363
     25 N          13.3663   39.3816   11.4398 N.ar    1  UNL1       -0.2481
     26 N          12.2786   40.1283   11.3341 N.ar    1  UNL1       -0.1663
     27 C          14.1664   39.2986   12.6506 C.3     1  UNL1        0.1276
     28 C          15.4200   38.4758   12.3984 C.3     1  UNL1        0.0264
     29 C          17.4969   38.3001   11.0311 C.3     1  UNL1        0.0001
     30 C          16.3445   39.1998   11.4364 C.3     1  UNL1        0.0021
@<TRIPOS>BOND
     1    29    30    1
     2    30    28    1
     3    28    27    1
     4    27    25    1
     5    23    19    1
     6    23    24   ar
     7    18     1    1
     8     2     3    1
     9     3    10    1
    10     4     6    1
    11    11    12   ar
    12    13    17    1
    13    13    14   ar
    14    16    17    1
    15    15    10   ar
    16    25    22   ar
    17    25    26   ar
    18    19    18   am
    19     6     1    1
    20     9     5    1
    21     9     6    1
    22    22    23   ar
    23    18    20    2
    24     1     2    2
    25     3     5    2
    26    10    11   ar
    27    12    13   ar
    28    14    15   ar
    29    24    26   ar
    30     9     7    2
    31     9     8    2
    32    19    21    1
