@<TRIPOS>MOLECULE
MolPort-002-981-687 MolPort-046-846-370 6204347 CSSS02125562603 ChemDiv-F019-5747 MCULE-4413014932 MCULE-9982046585 PubChem-163328878 PubChem-4239369 ZINC000006204347 ZINC06204347
 22 23 0 0 0
SMALL
GASTEIGER

@<TRIPOS>ATOM
      1 C          11.7066   41.4043    6.6256 C.2     1  UNL1        0.2729
      2 N          12.3930   42.4795    7.2742 N.am    1  UNL1       -0.2485
      3 O          12.0102   41.0508    5.4553 O.2     1  UNL1       -0.2706
      4 H          12.1240   42.7027    8.1945 H       1  UNL1        0.1579
      5 C          13.4412   43.2540    6.6842 C.ar    1  UNL1        0.2617
      6 N          15.3133   44.1215    6.3466 N.ar    1  UNL1       -0.1497
      7 N          14.5056   44.5407    5.3880 N.ar    1  UNL1       -0.0438
      8 N          13.3078   44.0097    5.5746 N.ar    1  UNL1       -0.0918
      9 N          14.6899   43.3078    7.1815 N.ar    1  UNL1       -0.1137
     10 C          16.7155   44.4886    6.4478 C.3     1  UNL1        0.1514
     11 C          17.5813   43.2397    6.4618 C.3     1  UNL1        0.0283
     12 C          17.5409   43.9584    8.8485 C.3     1  UNL1        0.0001
     13 C          18.1889   43.0314    7.8372 C.3     1  UNL1        0.0021
     14 C          10.6450   40.6674    7.3599 C.3     1  UNL1        0.2897
     15 O           9.4546   41.4439    7.3816 O.3     1  UNL1       -0.4656
     16 C           8.6173   41.5101    8.4982 C.ar    1  UNL1        0.1390
     17 C           7.2422   41.3164    8.3262 C.ar    1  UNL1        0.0327
     18 C           6.3780   41.3763    9.4237 C.ar    1  UNL1       -0.0188
     19 C           4.9190   41.1694    9.2320 C.3     1  UNL1        0.0311
     20 C           6.8857   41.6308   10.7008 C.ar    1  UNL1       -0.0041
     21 C           8.2580   41.8254   10.8813 C.ar    1  UNL1        0.0028
     22 C           9.1221   41.7654    9.7841 C.ar    1  UNL1        0.0369
@<TRIPOS>BOND
     1    12    13    1
     2    13    11    1
     3    11    10    1
     4    10     6    1
     5     5     8   ar
     6     5     2    1
     7    14     1    1
     8    14    15    1
     9    16    15    1
    10    17    18   ar
    11    19    18    1
    12    20    21   ar
    13    22    16   ar
    14     6     7   ar
    15     6     9   ar
    16     2     1   am
    17     5     9   ar
    18     1     3    2
    19    16    17   ar
    20    18    20   ar
    21    21    22   ar
    22     7     8   ar
    23     2     4    1
@<TRIPOS>MOLECULE
MolPort-002-981-687 MolPort-046-846-370 6204347 CSSS02125562603 ChemDiv-F019-5747 MCULE-4413014932 MCULE-9982046585 PubChem-163328878 PubChem-4239369 ZINC000006204347 ZINC06204347
 22 23 0 0 0
SMALL
GASTEIGER

@<TRIPOS>ATOM
      1 C          10.2564   42.0176    8.3749 C.2     1  UNL1        0.2729
      2 N          11.0807   41.5949    7.2841 N.am    1  UNL1       -0.2485
      3 O          10.7180   42.7422    9.2961 O.2     1  UNL1       -0.2706
      4 H          10.6629   41.0421    6.5847 H       1  UNL1        0.1579
      5 C          12.4667   41.9162    7.1346 C.ar    1  UNL1        0.2617
      6 N          14.2297   42.8165    6.4618 N.ar    1  UNL1       -0.1497
      7 N          14.5664   41.9261    7.3788 N.ar    1  UNL1       -0.0438
      8 N          13.4696   41.3349    7.8247 N.ar    1  UNL1       -0.0918
      9 N          12.9208   42.8488    6.2781 N.ar    1  UNL1       -0.1137
     10 C          15.1796   43.6696    5.7683 C.3     1  UNL1        0.1514
     11 C          15.9921   44.4692    6.7734 C.3     1  UNL1        0.0283
     12 C          17.8635   43.6101    8.1785 C.3     1  UNL1        0.0001
     13 C          17.4371   44.0038    6.7767 C.3     1  UNL1        0.0021
     14 C           8.8224   41.6275    8.4002 C.3     1  UNL1        0.2897
     15 O           8.1097   42.4904    9.2765 O.3     1  UNL1       -0.4656
     16 C           6.8438   42.9971    8.9717 C.ar    1  UNL1        0.1390
     17 C           5.7137   42.3487    9.4820 C.ar    1  UNL1        0.0327
     18 C           4.4331   42.8312    9.1953 C.ar    1  UNL1       -0.0188
     19 C           3.2385   42.1365    9.7413 C.3     1  UNL1        0.0311
     20 C           4.2762   43.9665    8.3952 C.ar    1  UNL1       -0.0041
     21 C           5.3999   44.6201    7.8815 C.ar    1  UNL1        0.0028
     22 C           6.6802   44.1379    8.1682 C.ar    1  UNL1        0.0369
@<TRIPOS>BOND
     1    12    13    1
     2    13    11    1
     3    11    10    1
     4    10     6    1
     5     5     8   ar
     6     5     2    1
     7    14     1    1
     8    14    15    1
     9    16    15    1
    10    17    18   ar
    11    19    18    1
    12    20    21   ar
    13    22    16   ar
    14     6     7   ar
    15     6     9   ar
    16     2     1   am
    17     5     9   ar
    18     1     3    2
    19    16    17   ar
    20    18    20   ar
    21    21    22   ar
    22     7     8   ar
    23     2     4    1
@<TRIPOS>MOLECULE
MolPort-002-981-687 MolPort-046-846-370 6204347 CSSS02125562603 ChemDiv-F019-5747 MCULE-4413014932 MCULE-9982046585 PubChem-163328878 PubChem-4239369 ZINC000006204347 ZINC06204347
 22 23 0 0 0
SMALL
GASTEIGER

@<TRIPOS>ATOM
      1 C          12.8068   40.9644    9.4810 C.2     1  UNL1        0.2729
      2 N          11.8341   41.9409    9.0962 N.am    1  UNL1       -0.2485
      3 O          12.7100   40.3456   10.5739 O.2     1  UNL1       -0.2706
      4 H          11.9519   42.3826    8.2243 H       1  UNL1        0.1579
      5 C          10.7031   42.3228    9.8847 C.ar    1  UNL1        0.2617
      6 N           8.9140   42.2201   10.9617 N.ar    1  UNL1       -0.1497
      7 N           9.3314   43.4734   11.0086 N.ar    1  UNL1       -0.0438
      8 N          10.4645   43.5729   10.3322 N.ar    1  UNL1       -0.0918
      9 N           9.7459   41.4600   10.2703 N.ar    1  UNL1       -0.1137
     10 C           7.7083   41.7390   11.6141 C.3     1  UNL1        0.1514
     11 C           6.5654   41.6742   10.6144 C.3     1  UNL1        0.0283
     12 C           4.2880   40.7423   10.2150 C.3     1  UNL1        0.0001
     13 C           5.3229   41.0954   11.2667 C.3     1  UNL1        0.0021
     14 C          13.9277   40.6474    8.5579 C.3     1  UNL1        0.2897
     15 O          13.7446   41.3412    7.3308 O.3     1  UNL1       -0.4656
     16 C          14.5328   42.4324    6.9562 C.ar    1  UNL1        0.1390
     17 C          15.7705   42.6203    7.5814 C.ar    1  UNL1        0.0327
     18 C          16.5825   43.7026    7.2286 C.ar    1  UNL1       -0.0188
     19 C          17.8954   43.8947    7.8975 C.3     1  UNL1        0.0311
     20 C          16.1599   44.6036    6.2473 C.ar    1  UNL1       -0.0041
     21 C          14.9250   44.4231    5.6180 C.ar    1  UNL1        0.0028
     22 C          14.1131   43.3412    5.9705 C.ar    1  UNL1        0.0369
@<TRIPOS>BOND
     1    12    13    1
     2    13    11    1
     3    11    10    1
     4    10     6    1
     5     5     8   ar
     6     5     2    1
     7    14     1    1
     8    14    15    1
     9    16    15    1
    10    17    18   ar
    11    19    18    1
    12    20    21   ar
    13    22    16   ar
    14     6     7   ar
    15     6     9   ar
    16     2     1   am
    17     5     9   ar
    18     1     3    2
    19    16    17   ar
    20    18    20   ar
    21    21    22   ar
    22     7     8   ar
    23     2     4    1
@<TRIPOS>MOLECULE
MolPort-002-981-687 MolPort-046-846-370 6204347 CSSS02125562603 ChemDiv-F019-5747 MCULE-4413014932 MCULE-9982046585 PubChem-163328878 PubChem-4239369 ZINC000006204347 ZINC06204347
 22 23 0 0 0
SMALL
GASTEIGER

@<TRIPOS>ATOM
      1 C          12.8790   40.9717    9.2047 C.2     1  UNL1        0.2729
      2 N          12.0766   41.9348    8.5145 N.am    1  UNL1       -0.2485
      3 O          12.5853   40.5961   10.3706 O.2     1  UNL1       -0.2706
      4 H          12.3450   42.1800    7.5996 H       1  UNL1        0.1579
      5 C          10.9132   42.5677    9.0556 C.ar    1  UNL1        0.2617
      6 N           8.9157   43.0867    9.3903 N.ar    1  UNL1       -0.1497
      7 N           9.6540   43.8033   10.2201 N.ar    1  UNL1       -0.0438
      8 N          10.9280   43.4990   10.0315 N.ar    1  UNL1       -0.0918
      9 N           9.6629   42.2930    8.6422 N.ar    1  UNL1       -0.1137
     10 C           7.4652   43.1467    9.3327 C.3     1  UNL1        0.1514
     11 C           7.0250   44.3763    8.5555 C.3     1  UNL1        0.0283
     12 C           6.8377   43.2328    6.3482 C.3     1  UNL1        0.0001
     13 C           6.0846   43.9835    7.4304 C.3     1  UNL1        0.0021
     14 C          14.0556   40.3761    8.5191 C.3     1  UNL1        0.2897
     15 O          15.2448   40.9984    8.9872 O.3     1  UNL1       -0.4656
     16 C          15.8924   42.0153    8.2811 C.ar    1  UNL1        0.1390
     17 C          15.2511   42.5876    7.1770 C.ar    1  UNL1        0.0327
     18 C          15.8728   43.6073    6.4497 C.ar    1  UNL1       -0.0188
     19 C          15.1846   44.2095    5.2784 C.3     1  UNL1        0.0311
     20 C          17.1410   44.0602    6.8238 C.ar    1  UNL1       -0.0041
     21 C          17.7885   43.4939    7.9255 C.ar    1  UNL1        0.0028
     22 C          17.1671   42.4745    8.6527 C.ar    1  UNL1        0.0369
@<TRIPOS>BOND
     1    12    13    1
     2    13    11    1
     3    11    10    1
     4    10     6    1
     5     5     8   ar
     6     5     2    1
     7    14     1    1
     8    14    15    1
     9    16    15    1
    10    17    18   ar
    11    19    18    1
    12    20    21   ar
    13    22    16   ar
    14     6     7   ar
    15     6     9   ar
    16     2     1   am
    17     5     9   ar
    18     1     3    2
    19    16    17   ar
    20    18    20   ar
    21    21    22   ar
    22     7     8   ar
    23     2     4    1
@<TRIPOS>MOLECULE
MolPort-002-981-687 MolPort-046-846-370 6204347 CSSS02125562603 ChemDiv-F019-5747 MCULE-4413014932 MCULE-9982046585 PubChem-163328878 PubChem-4239369 ZINC000006204347 ZINC06204347
 22 23 0 0 0
SMALL
GASTEIGER

@<TRIPOS>ATOM
      1 C          12.5683   41.4945    7.0911 C.2     1  UNL1        0.2729
      2 N          12.7478   41.8806    8.4574 N.am    1  UNL1       -0.2485
      3 O          12.3135   40.3007    6.7807 O.2     1  UNL1       -0.2706
      4 H          12.9301   42.8301    8.6426 H       1  UNL1        0.1579
      5 C          12.6819   40.9887    9.5741 C.ar    1  UNL1        0.2617
      6 N          13.2335   39.5900   11.0269 N.ar    1  UNL1       -0.1497
      7 N          11.9647   39.8960   11.2354 N.ar    1  UNL1       -0.0438
      8 N          11.5828   40.7805   10.3281 N.ar    1  UNL1       -0.0918
      9 N          13.7274   40.2552    9.9966 N.ar    1  UNL1       -0.1137
     10 C          13.9923   38.6616   11.8475 C.3     1  UNL1        0.1514
     11 C          13.7088   37.2325   11.4151 C.3     1  UNL1        0.0283
     12 C          13.9462   36.7087    8.9894 C.3     1  UNL1        0.0001
     13 C          14.6702   36.8099   10.3188 C.3     1  UNL1        0.0021
     14 C          12.6450   42.5271    6.0248 C.3     1  UNL1        0.2897
     15 O          13.4433   43.6149    6.4719 O.3     1  UNL1       -0.4656
     16 C          14.8400   43.5742    6.4758 C.ar    1  UNL1        0.1390
     17 C          15.4948   42.8908    7.5064 C.ar    1  UNL1        0.0327
     18 C          16.8914   42.8317    7.5384 C.ar    1  UNL1       -0.0188
     19 C          17.5788   42.1040    8.6365 C.3     1  UNL1        0.0311
     20 C          17.6411   43.4569    6.5381 C.ar    1  UNL1       -0.0041
     21 C          16.9948   44.1415    5.5050 C.ar    1  UNL1        0.0028
     22 C          15.5985   44.2006    5.4729 C.ar    1  UNL1        0.0369
@<TRIPOS>BOND
     1    12    13    1
     2    13    11    1
     3    11    10    1
     4    10     6    1
     5     5     8   ar
     6     5     2    1
     7    14     1    1
     8    14    15    1
     9    16    15    1
    10    17    18   ar
    11    19    18    1
    12    20    21   ar
    13    22    16   ar
    14     6     7   ar
    15     6     9   ar
    16     2     1   am
    17     5     9   ar
    18     1     3    2
    19    16    17   ar
    20    18    20   ar
    21    21    22   ar
    22     7     8   ar
    23     2     4    1
@<TRIPOS>MOLECULE
MolPort-002-981-687 MolPort-046-846-370 6204347 CSSS02125562603 ChemDiv-F019-5747 MCULE-4413014932 MCULE-9982046585 PubChem-163328878 PubChem-4239369 ZINC000006204347 ZINC06204347
 22 23 0 0 0
SMALL
GASTEIGER

@<TRIPOS>ATOM
      1 C          10.6405   41.0691    5.7569 C.2     1  UNL1        0.2729
      2 N          11.2011   41.8787    6.7952 N.am    1  UNL1       -0.2485
      3 O          11.3719   40.5387    4.8791 O.2     1  UNL1       -0.2706
      4 H          10.5837   42.2555    7.4630 H       1  UNL1        0.1579
      5 C          12.5925   42.1811    6.9346 C.ar    1  UNL1        0.2617
      6 N          14.4079   43.2173    6.8928 N.ar    1  UNL1       -0.1497
      7 N          14.6556   42.0061    7.3605 N.ar    1  UNL1       -0.0438
      8 N          13.5236   41.3216    7.3975 N.ar    1  UNL1       -0.0918
      9 N          13.1248   43.3746    6.6158 N.ar    1  UNL1       -0.1137
     10 C          15.4171   44.2503    6.7335 C.3     1  UNL1        0.1514
     11 C          16.3782   43.8721    5.6186 C.3     1  UNL1        0.0283
     12 C          17.8118   43.9353    7.6570 C.3     1  UNL1        0.0001
     13 C          17.8000   43.8013    6.1458 C.3     1  UNL1        0.0021
     14 C           9.1756   40.8181    5.7375 C.3     1  UNL1        0.2897
     15 O           8.4797   42.0497    5.8766 O.3     1  UNL1       -0.4656
     16 C           7.5588   42.2844    6.9007 C.ar    1  UNL1        0.1390
     17 C           6.7104   43.3933    6.8078 C.ar    1  UNL1        0.0327
     18 C           5.7779   43.6553    7.8162 C.ar    1  UNL1       -0.0188
     19 C           4.8809   44.8351    7.7095 C.3     1  UNL1        0.0311
     20 C           5.6892   42.8081    8.9243 C.ar    1  UNL1       -0.0041
     21 C           6.5329   41.6983    9.0248 C.ar    1  UNL1        0.0028
     22 C           7.4652   41.4362    8.0167 C.ar    1  UNL1        0.0369
@<TRIPOS>BOND
     1    12    13    1
     2    13    11    1
     3    11    10    1
     4    10     6    1
     5     5     8   ar
     6     5     2    1
     7    14     1    1
     8    14    15    1
     9    16    15    1
    10    17    18   ar
    11    19    18    1
    12    20    21   ar
    13    22    16   ar
    14     6     7   ar
    15     6     9   ar
    16     2     1   am
    17     5     9   ar
    18     1     3    2
    19    16    17   ar
    20    18    20   ar
    21    21    22   ar
    22     7     8   ar
    23     2     4    1
@<TRIPOS>MOLECULE
MolPort-002-981-687 MolPort-046-846-370 6204347 CSSS02125562603 ChemDiv-F019-5747 MCULE-4413014932 MCULE-9982046585 PubChem-163328878 PubChem-4239369 ZINC000006204347 ZINC06204347
 22 23 0 0 0
SMALL
GASTEIGER

@<TRIPOS>ATOM
      1 C          11.0215   41.7963    7.4223 C.2     1  UNL1        0.2729
      2 N           9.6483   41.8079    7.0197 N.am    1  UNL1       -0.2485
      3 O          11.3526   42.0456    8.6118 O.2     1  UNL1       -0.2706
      4 H           9.4468   41.5907    6.0809 H       1  UNL1        0.1579
      5 C           8.5467   42.1116    7.8805 C.ar    1  UNL1        0.2617
      6 N           6.9198   41.8777    9.1726 N.ar    1  UNL1       -0.1497
      7 N           7.0984   43.1751    8.9940 N.ar    1  UNL1       -0.0438
      8 N           8.1229   43.3577    8.1764 N.ar    1  UNL1       -0.0918
      9 N           7.8088   41.1705    8.4964 N.ar    1  UNL1       -0.1137
     10 C           5.8932   41.3077   10.0284 C.3     1  UNL1        0.1514
     11 C           4.5958   41.1515    9.2524 C.3     1  UNL1        0.0283
     12 C           3.9930   40.1677   11.4622 C.3     1  UNL1        0.0001
     13 C           3.4562   40.7984   10.1911 C.3     1  UNL1        0.0021
     14 C          12.0704   41.4455    6.4294 C.3     1  UNL1        0.2897
     15 O          13.3510   41.5266    7.0409 O.3     1  UNL1       -0.4656
     16 C          14.2373   42.5793    6.7989 C.ar    1  UNL1        0.1390
     17 C          15.4600   42.6051    7.4789 C.ar    1  UNL1        0.0327
     18 C          16.3686   43.6449    7.2586 C.ar    1  UNL1       -0.0188
     19 C          17.6647   43.6646    7.9850 C.3     1  UNL1        0.0311
     20 C          16.0581   44.6655    6.3556 C.ar    1  UNL1       -0.0041
     21 C          14.8390   44.6472    5.6723 C.ar    1  UNL1        0.0028
     22 C          13.9306   43.6077    5.8924 C.ar    1  UNL1        0.0369
@<TRIPOS>BOND
     1    12    13    1
     2    13    11    1
     3    11    10    1
     4    10     6    1
     5     5     8   ar
     6     5     2    1
     7    14     1    1
     8    14    15    1
     9    16    15    1
    10    17    18   ar
    11    19    18    1
    12    20    21   ar
    13    22    16   ar
    14     6     7   ar
    15     6     9   ar
    16     2     1   am
    17     5     9   ar
    18     1     3    2
    19    16    17   ar
    20    18    20   ar
    21    21    22   ar
    22     7     8   ar
    23     2     4    1
@<TRIPOS>MOLECULE
MolPort-002-981-687 MolPort-046-846-370 6204347 CSSS02125562603 ChemDiv-F019-5747 MCULE-4413014932 MCULE-9982046585 PubChem-163328878 PubChem-4239369 ZINC000006204347 ZINC06204347
 22 23 0 0 0
SMALL
GASTEIGER

@<TRIPOS>ATOM
      1 C          10.6033   41.4007    6.4218 C.2     1  UNL1        0.2729
      2 N           9.5419   40.8586    5.6297 N.am    1  UNL1       -0.2485
      3 O          10.4285   41.6847    7.6365 O.2     1  UNL1       -0.2706
      4 H           9.7397   40.6413    4.6900 H       1  UNL1        0.1579
      5 C           8.2148   40.6091    6.1020 C.ar    1  UNL1        0.2617
      6 N           6.4776   40.6906    7.2625 N.ar    1  UNL1       -0.1497
      7 N           6.2515   39.8443    6.2726 N.ar    1  UNL1       -0.0438
      8 N           7.3362   39.7681    5.5183 N.ar    1  UNL1       -0.0918
      9 N           7.6960   41.1991    7.1939 N.ar    1  UNL1       -0.1137
     10 C           5.4971   41.0364    8.2774 C.3     1  UNL1        0.1514
     11 C           5.8830   42.3430    8.9508 C.3     1  UNL1        0.0283
     12 C           3.4338   42.4429    9.4043 C.3     1  UNL1        0.0001
     13 C           4.6739   43.2524    9.0750 C.3     1  UNL1        0.0021
     14 C          11.9444   41.5946    5.8110 C.3     1  UNL1        0.2897
     15 O          12.9352   41.6015    6.8303 O.3     1  UNL1       -0.4656
     16 C          14.0342   42.4641    6.8082 C.ar    1  UNL1        0.1390
     17 C          15.1754   42.1260    7.5439 C.ar    1  UNL1        0.0327
     18 C          16.2917   42.9680    7.5422 C.ar    1  UNL1       -0.0188
     19 C          17.4995   42.6014    8.3263 C.3     1  UNL1        0.0311
     20 C          16.2718   44.1544    6.8035 C.ar    1  UNL1       -0.0041
     21 C          15.1358   44.4995    6.0659 C.ar    1  UNL1        0.0028
     22 C          14.0198   43.6577    6.0675 C.ar    1  UNL1        0.0369
@<TRIPOS>BOND
     1    12    13    1
     2    13    11    1
     3    11    10    1
     4    10     6    1
     5     5     8   ar
     6     5     2    1
     7    14     1    1
     8    14    15    1
     9    16    15    1
    10    17    18   ar
    11    19    18    1
    12    20    21   ar
    13    22    16   ar
    14     6     7   ar
    15     6     9   ar
    16     2     1   am
    17     5     9   ar
    18     1     3    2
    19    16    17   ar
    20    18    20   ar
    21    21    22   ar
    22     7     8   ar
    23     2     4    1
@<TRIPOS>MOLECULE
MolPort-002-981-687 MolPort-046-846-370 6204347 CSSS02125562603 ChemDiv-F019-5747 MCULE-4413014932 MCULE-9982046585 PubChem-163328878 PubChem-4239369 ZINC000006204347 ZINC06204347
 22 23 0 0 0
SMALL
GASTEIGER

@<TRIPOS>ATOM
      1 C          10.3141   41.2817    6.2786 C.2     1  UNL1        0.2729
      2 N          11.1530   42.0357    7.1592 N.am    1  UNL1       -0.2485
      3 O          10.7746   40.7627    5.2273 O.2     1  UNL1       -0.2706
      4 H          10.7427   42.4058    7.9740 H       1  UNL1        0.1579
      5 C          12.5439   42.2917    6.9431 C.ar    1  UNL1        0.2617
      6 N          14.3157   43.2200    6.3345 N.ar    1  UNL1       -0.1497
      7 N          14.6485   42.0942    6.9418 N.ar    1  UNL1       -0.0438
      8 N          13.5458   41.4794    7.3385 N.ar    1  UNL1       -0.0918
      9 N          13.0045   43.3885    6.3151 N.ar    1  UNL1       -0.1137
     10 C          15.2750   44.1631    5.7857 C.3     1  UNL1        0.1514
     11 C          16.6832   43.7801    6.2100 C.3     1  UNL1        0.0283
     12 C          17.7779   43.1774    8.3671 C.3     1  UNL1        0.0001
     13 C          16.9421   44.2149    7.6413 C.3     1  UNL1        0.0021
     14 C           8.8850   41.0748    6.6310 C.3     1  UNL1        0.2897
     15 O           8.4383   42.1437    7.4548 O.3     1  UNL1       -0.4656
     16 C           7.7549   41.9359    8.6556 C.ar    1  UNL1        0.1390
     17 C           8.4912   41.7664    9.8334 C.ar    1  UNL1        0.0327
     18 C           7.8368   41.5567   11.0512 C.ar    1  UNL1       -0.0188
     19 C           8.6265   41.3776   12.2971 C.3     1  UNL1        0.0311
     20 C           6.4405   41.5155   11.0969 C.ar    1  UNL1       -0.0041
     21 C           5.6975   41.6839    9.9251 C.ar    1  UNL1        0.0028
     22 C           6.3516   41.8936    8.7075 C.ar    1  UNL1        0.0369
@<TRIPOS>BOND
     1    12    13    1
     2    13    11    1
     3    11    10    1
     4    10     6    1
     5     5     8   ar
     6     5     2    1
     7    14     1    1
     8    14    15    1
     9    16    15    1
    10    17    18   ar
    11    19    18    1
    12    20    21   ar
    13    22    16   ar
    14     6     7   ar
    15     6     9   ar
    16     2     1   am
    17     5     9   ar
    18     1     3    2
    19    16    17   ar
    20    18    20   ar
    21    21    22   ar
    22     7     8   ar
    23     2     4    1
@<TRIPOS>MOLECULE
MolPort-002-981-687 MolPort-046-846-370 6204347 CSSS02125562603 ChemDiv-F019-5747 MCULE-4413014932 MCULE-9982046585 PubChem-163328878 PubChem-4239369 ZINC000006204347 ZINC06204347
 22 23 0 0 0
SMALL
GASTEIGER

@<TRIPOS>ATOM
      1 C          11.0218   41.5384    7.1635 C.2     1  UNL1        0.2729
      2 N           9.7318   40.9938    6.8683 N.am    1  UNL1       -0.2485
      3 O          11.2010   42.2791    8.1665 O.2     1  UNL1       -0.2706
      4 H           9.6534   40.4091    6.0800 H       1  UNL1        0.1579
      5 C           8.5476   41.2359    7.6337 C.ar    1  UNL1        0.2617
      6 N           7.2488   41.4513    9.2579 N.ar    1  UNL1       -0.1497
      7 N           6.5525   41.6942    8.1609 N.ar    1  UNL1       -0.0438
      8 N           7.3478   41.5635    7.1112 N.ar    1  UNL1       -0.0918
      9 N           8.5080   41.1633    8.9764 N.ar    1  UNL1       -0.1137
     10 C           6.7012   41.5223   10.6018 C.3     1  UNL1        0.1514
     11 C           7.7806   41.9506   11.5822 C.3     1  UNL1        0.0283
     12 C           9.1954   41.2398   13.5077 C.3     1  UNL1        0.0001
     13 C           8.0923   40.8252   12.5521 C.3     1  UNL1        0.0021
     14 C          12.1767   41.1922    6.2943 C.3     1  UNL1        0.2897
     15 O          13.3838   41.3171    7.0344 O.3     1  UNL1       -0.4656
     16 C          14.2752   42.3772    6.8505 C.ar    1  UNL1        0.1390
     17 C          15.4593   42.4035    7.5956 C.ar    1  UNL1        0.0327
     18 C          16.3719   43.4506    7.4344 C.ar    1  UNL1       -0.0188
     19 C          17.6269   43.4707    8.2297 C.3     1  UNL1        0.0311
     20 C          16.1041   44.4782    6.5256 C.ar    1  UNL1       -0.0041
     21 C          14.9236   44.4594    5.7774 C.ar    1  UNL1        0.0028
     22 C          14.0113   43.4127    5.9384 C.ar    1  UNL1        0.0369
@<TRIPOS>BOND
     1    12    13    1
     2    13    11    1
     3    11    10    1
     4    10     6    1
     5     5     8   ar
     6     5     2    1
     7    14     1    1
     8    14    15    1
     9    16    15    1
    10    17    18   ar
    11    19    18    1
    12    20    21   ar
    13    22    16   ar
    14     6     7   ar
    15     6     9   ar
    16     2     1   am
    17     5     9   ar
    18     1     3    2
    19    16    17   ar
    20    18    20   ar
    21    21    22   ar
    22     7     8   ar
    23     2     4    1
