@<TRIPOS>MOLECULE
MolPort-002-774-483 36613625 CSSS00133001883 MCULE-7966135832 PubChem-44821680 ZINC000036613625 ZINC36613625
 32 35 0 0 0
SMALL
GASTEIGER

@<TRIPOS>ATOM
      1 C           9.3684   42.2250    8.4452 C.ar    1  UNL1        0.0593
      2 C           8.0299   42.4238    8.0671 C.ar    1  UNL1        0.0551
      3 C           7.3760   42.8617    6.9178 C.ar    1  UNL1        0.0821
      4 C           7.9852   43.3325    5.6448 C.3     1  UNL1        0.0540
      5 C           4.5347   42.5019    9.0508 C.3     1  UNL1        0.1554
      6 C           7.0186   42.2492    8.9712 C.ar    1  UNL1        0.1606
      7 C           8.5221   41.7145   10.6971 C.ar    1  UNL1        0.0831
      8 C           9.5991   41.8730    9.7899 C.ar    1  UNL1        0.0238
      9 N           6.0429   42.9221    7.1573 N.ar    1  UNL1       -0.1723
     10 N           5.8371   42.5382    8.4095 N.ar    1  UNL1       -0.2323
     11 N           7.2386   41.9078   10.2643 N.ar    1  UNL1       -0.2269
     12 C           8.7748   41.3436   12.1060 C.ar    1  UNL1        0.0179
     13 C           9.9867   41.6938   12.7197 C.ar    1  UNL1        0.0046
     14 C          10.2349   41.3476   14.0509 C.ar    1  UNL1        0.0369
     15 C           9.2767   40.6466   14.7888 C.ar    1  UNL1        0.1387
     16 C           8.0624   40.2932   14.1802 C.ar    1  UNL1        0.0369
     17 C           7.8146   40.6395   12.8495 C.ar    1  UNL1        0.0046
     18 C           9.4719   38.9855   16.6111 C.3     1  UNL1        0.2525
     19 O           9.5550   40.3157   16.1177 O.3     1  UNL1       -0.4714
     20 C          10.5149   42.3265    7.5250 C.2     1  UNL1        0.2498
     21 O          10.3052   42.5184    6.2963 O.2     1  UNL1       -0.2698
     22 N          11.8535   42.2907    8.0333 N.am    1  UNL1       -0.2779
     23 H          11.9636   42.1902    9.0065 H       1  UNL1        0.1553
     24 C          14.3172   42.5095    7.7556 C.ar    1  UNL1        0.1141
     25 C          13.0446   42.3886    7.2458 C.ar    1  UNL1        0.0908
     26 C          13.1411   42.3701    5.8662 C.ar    1  UNL1        0.1364
     27 N          15.1334   42.5658    6.6882 N.ar    1  UNL1       -0.2187
     28 N          14.4482   42.4807    5.5591 N.ar    1  UNL1       -0.1641
     29 C          16.5805   42.6812    6.7418 C.3     1  UNL1        0.2733
     30 O          17.0037   43.7197    5.9114 O.3     1  UNL1       -0.3311
     31 C          17.8759   44.4174    8.0084 C.3     1  UNL1        0.0347
     32 C          17.1209   44.8201    6.7590 C.3     1  UNL1        0.1446
@<TRIPOS>BOND
     1    31    32    1
     2    32    30    1
     3    29    30    1
     4    29    27    1
     5    25    22    1
     6    25    26   ar
     7    20     1    1
     8     2     3   ar
     9     4     3    1
    10     5    10    1
    11     6     2   ar
    12     7    11   ar
    13     7    12    1
    14     8     1   ar
    15    13    14   ar
    16    15    19    1
    17    15    16   ar
    18    18    19    1
    19    17    12   ar
    20    27    24   ar
    21    27    28   ar
    22    22    20   am
    23    10     9   ar
    24    10     6   ar
    25    24    25   ar
    26    20    21    2
    27     1     2   ar
    28     3     9   ar
    29     6    11   ar
    30     7     8   ar
    31    12    13   ar
    32    14    15   ar
    33    16    17   ar
    34    26    28   ar
    35    22    23    1
@<TRIPOS>MOLECULE
MolPort-002-774-483 36613625 CSSS00133001883 MCULE-7966135832 PubChem-44821680 ZINC000036613625 ZINC36613625
 32 35 0 0 0
SMALL
GASTEIGER

@<TRIPOS>ATOM
      1 C           5.9687   42.1967    9.7081 C.ar    1  UNL1        0.0593
      2 C           5.5870   43.1149    8.7155 C.ar    1  UNL1        0.0551
      3 C           6.2171   43.7334    7.6381 C.ar    1  UNL1        0.0821
      4 C           7.6394   43.6104    7.2198 C.3     1  UNL1        0.0540
      5 C           3.0497   45.3682    7.4214 C.3     1  UNL1        0.1554
      6 C           4.3394   43.6750    8.7290 C.ar    1  UNL1        0.1606
      7 C           3.7408   42.5323   10.6939 C.ar    1  UNL1        0.0831
      8 C           5.0185   41.9198   10.7111 C.ar    1  UNL1        0.0238
      9 N           5.3555   44.6030    7.0553 N.ar    1  UNL1       -0.1723
     10 N           4.2119   44.5518    7.7240 N.ar    1  UNL1       -0.2323
     11 N           3.4232   43.4075    9.6913 N.ar    1  UNL1       -0.2269
     12 C           2.7503   42.2339   11.7505 C.ar    1  UNL1        0.0179
     13 C           1.8315   43.2152   12.1514 C.ar    1  UNL1        0.0046
     14 C           0.8915   42.9428   13.1493 C.ar    1  UNL1        0.0369
     15 C           0.8552   41.6865   13.7615 C.ar    1  UNL1        0.1387
     16 C           1.7720   40.7008   13.3647 C.ar    1  UNL1        0.0369
     17 C           2.7115   40.9734   12.3671 C.ar    1  UNL1        0.0046
     18 C          -0.6483   42.4810   15.5577 C.3     1  UNL1        0.2525
     19 O          -0.0970   41.4455   14.7556 O.3     1  UNL1       -0.4714
     20 C           7.2647   41.4960    9.7369 C.2     1  UNL1        0.2498
     21 O           7.8993   41.4163   10.8237 O.2     1  UNL1       -0.2698
     22 N           7.7574   40.8416    8.5619 N.am    1  UNL1       -0.2779
     23 H           7.2000   40.8899    7.7518 H       1  UNL1        0.1553
     24 C          10.1706   40.5014    9.0675 C.ar    1  UNL1        0.1141
     25 C           8.9918   40.1234    8.4662 C.ar    1  UNL1        0.0908
     26 C           9.2245   38.9444    7.7818 C.ar    1  UNL1        0.1364
     27 N          11.0696   39.5596    8.7307 N.ar    1  UNL1       -0.2187
     28 N          10.5203   38.6265    7.9696 N.ar    1  UNL1       -0.1641
     29 C          12.4594   39.5351    9.1528 C.3     1  UNL1        0.2733
     30 O          12.5853   38.7880   10.3246 O.3     1  UNL1       -0.3311
     31 C          14.3783   38.7813   11.8833 C.3     1  UNL1        0.0347
     32 C          13.3177   39.6053   11.1839 C.3     1  UNL1        0.1446
@<TRIPOS>BOND
     1    31    32    1
     2    32    30    1
     3    29    30    1
     4    29    27    1
     5    25    22    1
     6    25    26   ar
     7    20     1    1
     8     2     3   ar
     9     4     3    1
    10     5    10    1
    11     6     2   ar
    12     7    11   ar
    13     7    12    1
    14     8     1   ar
    15    13    14   ar
    16    15    19    1
    17    15    16   ar
    18    18    19    1
    19    17    12   ar
    20    27    24   ar
    21    27    28   ar
    22    22    20   am
    23    10     9   ar
    24    10     6   ar
    25    24    25   ar
    26    20    21    2
    27     1     2   ar
    28     3     9   ar
    29     6    11   ar
    30     7     8   ar
    31    12    13   ar
    32    14    15   ar
    33    16    17   ar
    34    26    28   ar
    35    22    23    1
@<TRIPOS>MOLECULE
MolPort-002-774-483 36613625 CSSS00133001883 MCULE-7966135832 PubChem-44821680 ZINC000036613625 ZINC36613625
 32 35 0 0 0
SMALL
GASTEIGER

@<TRIPOS>ATOM
      1 C          14.3791   41.6290    7.9818 C.ar    1  UNL1        0.0593
      2 C          15.2528   42.6567    7.5884 C.ar    1  UNL1        0.0551
      3 C          15.1579   43.7874    6.7804 C.ar    1  UNL1        0.0821
      4 C          13.9853   44.2470    5.9886 C.3     1  UNL1        0.0540
      5 C          18.6333   43.9842    7.5770 C.3     1  UNL1        0.1554
      6 C          16.5687   42.6310    7.9600 C.ar    1  UNL1        0.1606
      7 C          16.3106   40.5870    9.0916 C.ar    1  UNL1        0.0831
      8 C          14.9382   40.5803    8.7388 C.ar    1  UNL1        0.0238
      9 N          16.3716   44.3870    6.7059 N.ar    1  UNL1       -0.1723
     10 N          17.2208   43.6775    7.4360 N.ar    1  UNL1       -0.2323
     11 N          17.1075   41.6245    8.6907 N.ar    1  UNL1       -0.2269
     12 C          16.8872   39.4823    9.8875 C.ar    1  UNL1        0.0179
     13 C          18.2790   39.3407    9.9905 C.ar    1  UNL1        0.0046
     14 C          18.8336   38.2996   10.7404 C.ar    1  UNL1        0.0369
     15 C          18.0065   37.3847   11.3984 C.ar    1  UNL1        0.1387
     16 C          16.6132   37.5211   11.2989 C.ar    1  UNL1        0.0369
     17 C          16.0592   38.5619   10.5492 C.ar    1  UNL1        0.0046
     18 C          19.6132   35.5170   11.6174 C.3     1  UNL1        0.2525
     19 O          18.5919   36.3553   12.1405 O.3     1  UNL1       -0.4714
     20 C          12.9362   41.6066    7.6839 C.2     1  UNL1        0.2498
     21 O          12.1206   42.0260    8.5496 O.2     1  UNL1       -0.2698
     22 N          12.4720   41.1907    6.3943 N.am    1  UNL1       -0.2779
     23 H          13.1523   40.9208    5.7359 H       1  UNL1        0.1553
     24 C          10.0607   41.7621    6.6262 C.ar    1  UNL1        0.1141
     25 C          11.1024   41.1345    5.9822 C.ar    1  UNL1        0.0908
     26 C          10.5835   40.4687    4.8866 C.ar    1  UNL1        0.1364
     27 N           8.9586   41.4586    5.9176 N.ar    1  UNL1       -0.2187
     28 N           9.2551   40.6933    4.8794 N.ar    1  UNL1       -0.1641
     29 C           7.6132   41.9167    6.2184 C.3     1  UNL1        0.2733
     30 O           6.6797   41.0336    5.6747 O.3     1  UNL1       -0.3311
     31 C           6.1383   41.0064    7.9878 C.3     1  UNL1        0.0347
     32 C           6.3415   40.1881    6.7300 C.3     1  UNL1        0.1446
@<TRIPOS>BOND
     1    31    32    1
     2    32    30    1
     3    29    30    1
     4    29    27    1
     5    25    22    1
     6    25    26   ar
     7    20     1    1
     8     2     3   ar
     9     4     3    1
    10     5    10    1
    11     6     2   ar
    12     7    11   ar
    13     7    12    1
    14     8     1   ar
    15    13    14   ar
    16    15    19    1
    17    15    16   ar
    18    18    19    1
    19    17    12   ar
    20    27    24   ar
    21    27    28   ar
    22    22    20   am
    23    10     9   ar
    24    10     6   ar
    25    24    25   ar
    26    20    21    2
    27     1     2   ar
    28     3     9   ar
    29     6    11   ar
    30     7     8   ar
    31    12    13   ar
    32    14    15   ar
    33    16    17   ar
    34    26    28   ar
    35    22    23    1
@<TRIPOS>MOLECULE
MolPort-002-774-483 36613625 CSSS00133001883 MCULE-7966135832 PubChem-44821680 ZINC000036613625 ZINC36613625
 32 35 0 0 0
SMALL
GASTEIGER

@<TRIPOS>ATOM
      1 C           8.8970   41.5204    9.9320 C.ar    1  UNL1        0.0593
      2 C           9.5364   41.3137   11.1658 C.ar    1  UNL1        0.0551
      3 C          10.8407   41.0500   11.5779 C.ar    1  UNL1        0.0821
      4 C          12.0439   40.8504   10.7260 C.3     1  UNL1        0.0540
      5 C           9.2219   40.8557   14.7549 C.3     1  UNL1        0.1554
      6 C           8.8121   41.2644   12.3249 C.ar    1  UNL1        0.1606
      7 C           6.7804   41.5705   11.1831 C.ar    1  UNL1        0.0831
      8 C           7.4933   41.6400    9.9605 C.ar    1  UNL1        0.0238
      9 N          10.8573   40.8694   12.9215 N.ar    1  UNL1       -0.1723
     10 N           9.6164   41.0112   13.3660 N.ar    1  UNL1       -0.2323
     11 N           7.4621   41.3822   12.3544 N.ar    1  UNL1       -0.2269
     12 C           5.3074   41.6986   11.2023 C.ar    1  UNL1        0.0179
     13 C           4.6768   42.6889   10.4346 C.ar    1  UNL1        0.0046
     14 C           3.2851   42.8180   10.4462 C.ar    1  UNL1        0.0369
     15 C           2.5027   41.9600   11.2246 C.ar    1  UNL1        0.1387
     16 C           3.1279   40.9673   11.9950 C.ar    1  UNL1        0.0369
     17 C           4.5191   40.8385   11.9831 C.ar    1  UNL1        0.0046
     18 C           0.3425   42.2038   12.4044 C.3     1  UNL1        0.2525
     19 O           1.1138   42.1146   11.2142 O.3     1  UNL1       -0.4714
     20 C           9.6007   41.6523    8.6440 C.2     1  UNL1        0.2498
     21 O           8.9594   41.4880    7.5706 O.2     1  UNL1       -0.2698
     22 N          10.9778   42.0446    8.6110 N.am    1  UNL1       -0.2779
     23 H          11.4200   42.2107    9.4748 H       1  UNL1        0.1553
     24 C          12.8864   43.0084    7.3369 C.ar    1  UNL1        0.1141
     25 C          11.7653   42.2154    7.4281 C.ar    1  UNL1        0.0908
     26 C          11.5620   41.6260    6.1935 C.ar    1  UNL1        0.1364
     27 N          13.3190   42.8833    6.0697 N.ar    1  UNL1       -0.2187
     28 N          12.5433   42.0623    5.3800 N.ar    1  UNL1       -0.1641
     29 C          14.4927   43.5345    5.5141 C.3     1  UNL1        0.2733
     30 O          15.6261   43.1678    6.2406 O.3     1  UNL1       -0.3311
     31 C          17.6434   44.2795    6.8232 C.3     1  UNL1        0.0347
     32 C          16.1349   44.3710    6.7267 C.3     1  UNL1        0.1446
@<TRIPOS>BOND
     1    31    32    1
     2    32    30    1
     3    29    30    1
     4    29    27    1
     5    25    22    1
     6    25    26   ar
     7    20     1    1
     8     2     3   ar
     9     4     3    1
    10     5    10    1
    11     6     2   ar
    12     7    11   ar
    13     7    12    1
    14     8     1   ar
    15    13    14   ar
    16    15    19    1
    17    15    16   ar
    18    18    19    1
    19    17    12   ar
    20    27    24   ar
    21    27    28   ar
    22    22    20   am
    23    10     9   ar
    24    10     6   ar
    25    24    25   ar
    26    20    21    2
    27     1     2   ar
    28     3     9   ar
    29     6    11   ar
    30     7     8   ar
    31    12    13   ar
    32    14    15   ar
    33    16    17   ar
    34    26    28   ar
    35    22    23    1
@<TRIPOS>MOLECULE
MolPort-002-774-483 36613625 CSSS00133001883 MCULE-7966135832 PubChem-44821680 ZINC000036613625 ZINC36613625
 32 35 0 0 0
SMALL
GASTEIGER

@<TRIPOS>ATOM
      1 C           9.5386   41.3895    7.1285 C.ar    1  UNL1        0.0593
      2 C           9.4165   40.4399    6.1002 C.ar    1  UNL1        0.0551
      3 C           8.4133   39.5840    5.6512 C.ar    1  UNL1        0.0821
      4 C           7.0561   39.3874    6.2280 C.3     1  UNL1        0.0540
      5 C          11.0287   38.5505    3.4505 C.3     1  UNL1        0.1554
      6 C          10.4891   40.1270    5.3115 C.ar    1  UNL1        0.1606
      7 C          11.9010   41.6000    6.4785 C.ar    1  UNL1        0.0831
      8 C          10.8130   41.9622    7.3109 C.ar    1  UNL1        0.0238
      9 N           8.8953   38.8226    4.6383 N.ar    1  UNL1       -0.1723
     10 N          10.1587   39.1691    4.4351 N.ar    1  UNL1       -0.2323
     11 N          11.7149   40.6792    5.4837 N.ar    1  UNL1       -0.2269
     12 C          13.2341   42.2080    6.6773 C.ar    1  UNL1        0.0179
     13 C          13.5967   43.3590    5.9621 C.ar    1  UNL1        0.0046
     14 C          14.8546   43.9410    6.1430 C.ar    1  UNL1        0.0369
     15 C          15.7688   43.3822    7.0409 C.ar    1  UNL1        0.1387
     16 C          15.4118   42.2305    7.7592 C.ar    1  UNL1        0.0369
     17 C          14.1544   41.6490    7.5781 C.ar    1  UNL1        0.0046
     18 C          17.8732   43.7074    8.2993 C.3     1  UNL1        0.2525
     19 O          17.0181   43.9881    7.1995 O.3     1  UNL1       -0.4714
     20 C           8.4242   41.8357    7.9832 C.2     1  UNL1        0.2498
     21 O           8.5080   41.6895    9.2330 O.2     1  UNL1       -0.2698
     22 N           7.2955   42.5033    7.4071 N.am    1  UNL1       -0.2779
     23 H           7.3013   42.6386    6.4320 H       1  UNL1        0.1553
     24 C           5.4040   42.2431    9.0037 C.ar    1  UNL1        0.1141
     25 C           6.1600   42.9903    8.1297 C.ar    1  UNL1        0.0908
     26 C           5.6300   44.2673    8.0961 C.ar    1  UNL1        0.1364
     27 N           4.4503   43.0732    9.4621 N.ar    1  UNL1       -0.2187
     28 N           4.5746   44.2802    8.9336 N.ar    1  UNL1       -0.1641
     29 C           3.4228   42.7219   10.4271 C.3     1  UNL1        0.2733
     30 O           2.7612   41.5649   10.0140 O.3     1  UNL1       -0.3311
     31 C           3.7188   40.3117   11.7908 C.3     1  UNL1        0.0347
     32 C           3.6542   40.5319   10.2940 C.3     1  UNL1        0.1446
@<TRIPOS>BOND
     1    31    32    1
     2    32    30    1
     3    29    30    1
     4    29    27    1
     5    25    22    1
     6    25    26   ar
     7    20     1    1
     8     2     3   ar
     9     4     3    1
    10     5    10    1
    11     6     2   ar
    12     7    11   ar
    13     7    12    1
    14     8     1   ar
    15    13    14   ar
    16    15    19    1
    17    15    16   ar
    18    18    19    1
    19    17    12   ar
    20    27    24   ar
    21    27    28   ar
    22    22    20   am
    23    10     9   ar
    24    10     6   ar
    25    24    25   ar
    26    20    21    2
    27     1     2   ar
    28     3     9   ar
    29     6    11   ar
    30     7     8   ar
    31    12    13   ar
    32    14    15   ar
    33    16    17   ar
    34    26    28   ar
    35    22    23    1
@<TRIPOS>MOLECULE
MolPort-002-774-483 36613625 CSSS00133001883 MCULE-7966135832 PubChem-44821680 ZINC000036613625 ZINC36613625
 32 35 0 0 0
SMALL
GASTEIGER

@<TRIPOS>ATOM
      1 C           8.4230   41.3681    9.6282 C.ar    1  UNL1        0.0593
      2 C           9.2150   41.2602   10.7836 C.ar    1  UNL1        0.0551
      3 C          10.5616   41.0203   11.0471 C.ar    1  UNL1        0.0821
      4 C          11.6466   40.7387   10.0689 C.3     1  UNL1        0.0540
      5 C           9.3619   41.1091   14.4093 C.3     1  UNL1        0.1554
      6 C           8.6446   41.3153   12.0254 C.ar    1  UNL1        0.1606
      7 C           6.4832   41.5426   11.1299 C.ar    1  UNL1        0.0831
      8 C           7.0342   41.5024    9.8250 C.ar    1  UNL1        0.0238
      9 N          10.7500   40.9534   12.3881 N.ar    1  UNL1       -0.1723
     10 N           9.5756   41.1434   12.9733 N.ar    1  UNL1       -0.2323
     11 N           7.3093   41.4474   12.2165 N.ar    1  UNL1       -0.2269
     12 C           5.0246   41.6852   11.3255 C.ar    1  UNL1        0.0179
     13 C           4.3251   42.7156   10.6800 C.ar    1  UNL1        0.0046
     14 C           2.9463   42.8587   10.8587 C.ar    1  UNL1        0.0369
     15 C           2.2457   41.9750   11.6847 C.ar    1  UNL1        0.1387
     16 C           2.9401   40.9421   12.3335 C.ar    1  UNL1        0.0369
     17 C           4.3184   40.7994   12.1545 C.ar    1  UNL1        0.0046
     18 C           0.2824   42.5815   13.0615 C.3     1  UNL1        0.2525
     19 O           0.8675   42.1445   11.8424 O.3     1  UNL1       -0.4714
     20 C           8.9563   41.3847    8.2546 C.2     1  UNL1        0.2498
     21 O           9.5820   42.4011    7.8476 O.2     1  UNL1       -0.2698
     22 N           8.8370   40.2266    7.4203 N.am    1  UNL1       -0.2779
     23 H           8.3844   39.4403    7.8025 H       1  UNL1        0.1553
     24 C           8.8820   39.1917    5.1571 C.ar    1  UNL1        0.1141
     25 C           9.3204   40.1161    6.0776 C.ar    1  UNL1        0.0908
     26 C          10.2819   40.8997    5.4658 C.ar    1  UNL1        0.1364
     27 N           9.5830   39.4341    4.0352 N.ar    1  UNL1       -0.2187
     28 N          10.4162   40.4484    4.2035 N.ar    1  UNL1       -0.1641
     29 C           9.4454   38.7077    2.7847 C.3     1  UNL1        0.2733
     30 O           9.1428   37.3706    3.0448 O.3     1  UNL1       -0.3311
     31 C          11.4853   37.7362    3.1978 C.3     1  UNL1        0.0347
     32 C          10.3217   36.8396    3.5654 C.3     1  UNL1        0.1446
@<TRIPOS>BOND
     1    31    32    1
     2    32    30    1
     3    29    30    1
     4    29    27    1
     5    25    22    1
     6    25    26   ar
     7    20     1    1
     8     2     3   ar
     9     4     3    1
    10     5    10    1
    11     6     2   ar
    12     7    11   ar
    13     7    12    1
    14     8     1   ar
    15    13    14   ar
    16    15    19    1
    17    15    16   ar
    18    18    19    1
    19    17    12   ar
    20    27    24   ar
    21    27    28   ar
    22    22    20   am
    23    10     9   ar
    24    10     6   ar
    25    24    25   ar
    26    20    21    2
    27     1     2   ar
    28     3     9   ar
    29     6    11   ar
    30     7     8   ar
    31    12    13   ar
    32    14    15   ar
    33    16    17   ar
    34    26    28   ar
    35    22    23    1
@<TRIPOS>MOLECULE
MolPort-002-774-483 36613625 CSSS00133001883 MCULE-7966135832 PubChem-44821680 ZINC000036613625 ZINC36613625
 32 35 0 0 0
SMALL
GASTEIGER

@<TRIPOS>ATOM
      1 C          13.2213   38.7567    9.2761 C.ar    1  UNL1        0.0593
      2 C          13.0618   39.2591   10.5784 C.ar    1  UNL1        0.0551
      3 C          13.8137   39.2387   11.7509 C.ar    1  UNL1        0.0821
      4 C          15.1207   38.5677   11.9850 C.3     1  UNL1        0.0540
      5 C          10.9073   40.8929   13.0030 C.3     1  UNL1        0.1554
      6 C          11.9020   39.8838   10.9458 C.ar    1  UNL1        0.1606
      7 C          10.9366   39.5493    8.8289 C.ar    1  UNL1        0.0831
      8 C          12.1253   38.9062    8.4032 C.ar    1  UNL1        0.0238
      9 N          13.1116   39.8395   12.7430 N.ar    1  UNL1       -0.1723
     10 N          11.9518   40.2359   12.2375 N.ar    1  UNL1       -0.2323
     11 N          10.8479   40.0311   10.1065 N.ar    1  UNL1       -0.2269
     12 C           9.7927   39.7024    7.9045 C.ar    1  UNL1        0.0179
     13 C           8.7095   40.5222    8.2546 C.ar    1  UNL1        0.0046
     14 C           7.6235   40.6731    7.3876 C.ar    1  UNL1        0.0369
     15 C           7.6033   40.0077    6.1585 C.ar    1  UNL1        0.1387
     16 C           8.6840   39.1859    5.8028 C.ar    1  UNL1        0.0369
     17 C           9.7694   39.0353    6.6696 C.ar    1  UNL1        0.0046
     18 C           5.1635   39.9977    5.7517 C.3     1  UNL1        0.2525
     19 O           6.5032   40.1797    5.3139 O.3     1  UNL1       -0.4714
     20 C          14.4561   38.1290    8.7737 C.2     1  UNL1        0.2498
     21 O          15.4425   38.8571    8.4778 O.2     1  UNL1       -0.2698
     22 N          14.5627   36.7025    8.7014 N.am    1  UNL1       -0.2779
     23 H          13.7826   36.1769    8.9921 H       1  UNL1        0.1553
     24 C          15.9963   35.7157    6.9221 C.ar    1  UNL1        0.1141
     25 C          15.7076   35.9767    8.2421 C.ar    1  UNL1        0.0908
     26 C          16.7155   35.4262    9.0128 C.ar    1  UNL1        0.1364
     27 N          17.1480   35.0214    6.9314 N.ar    1  UNL1       -0.2187
     28 N          17.5883   34.8450    8.1669 N.ar    1  UNL1       -0.1641
     29 C          17.8477   34.5381    5.7536 C.3     1  UNL1        0.2733
     30 O          17.7336   33.1498    5.6716 O.3     1  UNL1       -0.3311
     31 C          16.0947   31.4729    6.0542 C.3     1  UNL1        0.0347
     32 C          16.6086   32.8452    6.4360 C.3     1  UNL1        0.1446
@<TRIPOS>BOND
     1    31    32    1
     2    32    30    1
     3    29    30    1
     4    29    27    1
     5    25    22    1
     6    25    26   ar
     7    20     1    1
     8     2     3   ar
     9     4     3    1
    10     5    10    1
    11     6     2   ar
    12     7    11   ar
    13     7    12    1
    14     8     1   ar
    15    13    14   ar
    16    15    19    1
    17    15    16   ar
    18    18    19    1
    19    17    12   ar
    20    27    24   ar
    21    27    28   ar
    22    22    20   am
    23    10     9   ar
    24    10     6   ar
    25    24    25   ar
    26    20    21    2
    27     1     2   ar
    28     3     9   ar
    29     6    11   ar
    30     7     8   ar
    31    12    13   ar
    32    14    15   ar
    33    16    17   ar
    34    26    28   ar
    35    22    23    1
@<TRIPOS>MOLECULE
MolPort-002-774-483 36613625 CSSS00133001883 MCULE-7966135832 PubChem-44821680 ZINC000036613625 ZINC36613625
 32 35 0 0 0
SMALL
GASTEIGER

@<TRIPOS>ATOM
      1 C          14.1511   41.4760    8.0781 C.ar    1  UNL1        0.0593
      2 C          15.0012   42.5125    7.6576 C.ar    1  UNL1        0.0551
      3 C          14.8741   43.6322    6.8386 C.ar    1  UNL1        0.0821
      4 C          13.6805   44.0642    6.0628 C.3     1  UNL1        0.0540
      5 C          18.3595   43.8926    7.5707 C.3     1  UNL1        0.1554
      6 C          16.3238   42.5118    8.0058 C.ar    1  UNL1        0.1606
      7 C          16.1181   40.4772    9.1649 C.ar    1  UNL1        0.0831
      8 C          14.7400   40.4450    8.8368 C.ar    1  UNL1        0.0238
      9 N          16.0766   44.2498    6.7357 N.ar    1  UNL1       -0.1723
     10 N          16.9498   43.5622    7.4584 N.ar    1  UNL1       -0.2323
     11 N          16.8912   41.5224    8.7381 N.ar    1  UNL1       -0.2269
     12 C          16.7262   39.3910    9.9628 C.ar    1  UNL1        0.0179
     13 C          18.1183   39.2183    9.9715 C.ar    1  UNL1        0.0046
     14 C          18.7024   38.1944   10.7225 C.ar    1  UNL1        0.0369
     15 C          17.9051   37.3279   11.4758 C.ar    1  UNL1        0.1387
     16 C          16.5116   37.4955   11.4709 C.ar    1  UNL1        0.0369
     17 C          15.9280   38.5191   10.7201 C.ar    1  UNL1        0.0046
     18 C          19.6495   35.5947   11.7421 C.3     1  UNL1        0.2525
     19 O          18.5196   36.3145   12.2163 O.3     1  UNL1       -0.4714
     20 C          12.7036   41.4275    7.8063 C.2     1  UNL1        0.2498
     21 O          12.3026   41.1305    6.6481 O.2     1  UNL1       -0.2698
     22 N          11.7630   41.6338    8.8666 N.am    1  UNL1       -0.2779
     23 H          12.1271   41.8123    9.7638 H       1  UNL1        0.1553
     24 C           9.4823   42.5724    9.2012 C.ar    1  UNL1        0.1141
     25 C          10.3384   41.6026    8.7319 C.ar    1  UNL1        0.0908
     26 C           9.5762   40.6277    8.1142 C.ar    1  UNL1        0.1364
     27 N           8.2467   42.1611    8.8653 N.ar    1  UNL1       -0.2187
     28 N           8.2879   41.0085    8.2161 N.ar    1  UNL1       -0.1641
     29 C           7.0160   42.8801    9.1462 C.3     1  UNL1        0.2733
     30 O           7.1117   44.1873    8.6675 O.3     1  UNL1       -0.3311
     31 C           6.3101   43.6489    6.4968 C.3     1  UNL1        0.0347
     32 C           6.0165   44.3298    7.8171 C.3     1  UNL1        0.1446
@<TRIPOS>BOND
     1    31    32    1
     2    32    30    1
     3    29    30    1
     4    29    27    1
     5    25    22    1
     6    25    26   ar
     7    20     1    1
     8     2     3   ar
     9     4     3    1
    10     5    10    1
    11     6     2   ar
    12     7    11   ar
    13     7    12    1
    14     8     1   ar
    15    13    14   ar
    16    15    19    1
    17    15    16   ar
    18    18    19    1
    19    17    12   ar
    20    27    24   ar
    21    27    28   ar
    22    22    20   am
    23    10     9   ar
    24    10     6   ar
    25    24    25   ar
    26    20    21    2
    27     1     2   ar
    28     3     9   ar
    29     6    11   ar
    30     7     8   ar
    31    12    13   ar
    32    14    15   ar
    33    16    17   ar
    34    26    28   ar
    35    22    23    1
@<TRIPOS>MOLECULE
MolPort-002-774-483 36613625 CSSS00133001883 MCULE-7966135832 PubChem-44821680 ZINC000036613625 ZINC36613625
 32 35 0 0 0
SMALL
GASTEIGER

@<TRIPOS>ATOM
      1 C           9.3386   41.3136    7.2575 C.ar    1  UNL1        0.0593
      2 C           9.1642   40.4177    6.1893 C.ar    1  UNL1        0.0551
      3 C           8.1082   39.6581    5.6911 C.ar    1  UNL1        0.0821
      4 C           6.7303   39.5409    6.2397 C.3     1  UNL1        0.0540
      5 C          10.6774   38.5204    3.4874 C.3     1  UNL1        0.1554
      6 C          10.2242   40.0571    5.4039 C.ar    1  UNL1        0.1606
      7 C          11.7212   41.3723    6.6508 C.ar    1  UNL1        0.0831
      8 C          10.6487   41.7814    7.4816 C.ar    1  UNL1        0.0238
      9 N           8.5498   38.9039    4.6546 N.ar    1  UNL1       -0.1723
     10 N           9.8388   39.1625    4.4841 N.ar    1  UNL1       -0.2323
     11 N          11.4844   40.5085    5.6163 N.ar    1  UNL1       -0.2269
     12 C          13.0921   41.8702    6.8936 C.ar    1  UNL1        0.0179
     13 C          13.5797   42.9702    6.1725 C.ar    1  UNL1        0.0046
     14 C          14.8742   43.4480    6.3948 C.ar    1  UNL1        0.0369
     15 C          15.7008   42.8346    7.3406 C.ar    1  UNL1        0.1387
     16 C          15.2187   41.7335    8.0651 C.ar    1  UNL1        0.0369
     17 C          13.9246   41.2560    7.8426 C.ar    1  UNL1        0.0046
     18 C          17.4688   43.7368    8.8165 C.3     1  UNL1        0.2525
     19 O          16.9898   43.3365    7.5398 O.3     1  UNL1       -0.4714
     20 C           8.2458   41.8075    8.1138 C.2     1  UNL1        0.2498
     21 O           7.9447   43.0318    8.0855 O.2     1  UNL1       -0.2698
     22 N           7.4803   40.8925    8.9064 N.am    1  UNL1       -0.2779
     23 H           7.7223   39.9396    8.8546 H       1  UNL1        0.1553
     24 C           5.0685   41.2654    9.3950 C.ar    1  UNL1        0.1141
     25 C           6.3932   41.2467    9.7674 C.ar    1  UNL1        0.0908
     26 C           6.4641   41.6154   11.0985 C.ar    1  UNL1        0.1364
     27 N           4.3873   41.6442   10.4910 N.ar    1  UNL1       -0.2187
     28 N           5.2038   41.8524   11.5115 N.ar    1  UNL1       -0.1641
     29 C           2.9444   41.7905   10.5751 C.3     1  UNL1        0.2733
     30 O           2.6197   42.7234   11.5606 O.3     1  UNL1       -0.3311
     31 C           0.8477   42.8059   13.1411 C.3     1  UNL1        0.0347
     32 C           1.9689   41.9811   12.5446 C.3     1  UNL1        0.1446
@<TRIPOS>BOND
     1    31    32    1
     2    32    30    1
     3    29    30    1
     4    29    27    1
     5    25    22    1
     6    25    26   ar
     7    20     1    1
     8     2     3   ar
     9     4     3    1
    10     5    10    1
    11     6     2   ar
    12     7    11   ar
    13     7    12    1
    14     8     1   ar
    15    13    14   ar
    16    15    19    1
    17    15    16   ar
    18    18    19    1
    19    17    12   ar
    20    27    24   ar
    21    27    28   ar
    22    22    20   am
    23    10     9   ar
    24    10     6   ar
    25    24    25   ar
    26    20    21    2
    27     1     2   ar
    28     3     9   ar
    29     6    11   ar
    30     7     8   ar
    31    12    13   ar
    32    14    15   ar
    33    16    17   ar
    34    26    28   ar
    35    22    23    1
@<TRIPOS>MOLECULE
MolPort-002-774-483 36613625 CSSS00133001883 MCULE-7966135832 PubChem-44821680 ZINC000036613625 ZINC36613625
 32 35 0 0 0
SMALL
GASTEIGER

@<TRIPOS>ATOM
      1 C           9.0028   41.4552    9.5332 C.ar    1  UNL1        0.0593
      2 C           8.8647   41.6907    8.1550 C.ar    1  UNL1        0.0551
      3 C           9.7380   41.8825    7.0868 C.ar    1  UNL1        0.0821
      4 C          11.2242   41.9390    7.1221 C.3     1  UNL1        0.0540
      5 C           6.6540   42.3936    5.3607 C.3     1  UNL1        0.1554
      6 C           7.6271   41.8655    7.5999 C.ar    1  UNL1        0.1606
      7 C           6.5548   41.6399    9.6794 C.ar    1  UNL1        0.0831
      8 C           7.8164   41.4417   10.2934 C.ar    1  UNL1        0.0238
      9 N           9.0222   42.1447    5.9656 N.ar    1  UNL1       -0.1723
     10 N           7.7368   42.1231    6.2897 N.ar    1  UNL1       -0.2323
     11 N           6.4848   41.8499    8.3292 N.ar    1  UNL1       -0.2269
     12 C           5.3157   41.6225   10.4859 C.ar    1  UNL1        0.0179
     13 C           4.3775   42.6575   10.3575 C.ar    1  UNL1        0.0046
     14 C           3.2033   42.6500   11.1156 C.ar    1  UNL1        0.0369
     15 C           2.9486   41.6089   12.0131 C.ar    1  UNL1        0.1387
     16 C           3.8836   40.5707   12.1461 C.ar    1  UNL1        0.0369
     17 C           5.0573   40.5785   11.3881 C.ar    1  UNL1        0.0046
     18 C           1.0482   42.8279   13.0234 C.3     1  UNL1        0.2525
     19 O           1.7652   41.6303   12.7561 O.3     1  UNL1       -0.4714
     20 C          10.2871   41.1916   10.2060 C.2     1  UNL1        0.2498
     21 O          10.4943   41.6753   11.3520 O.2     1  UNL1       -0.2698
     22 N          11.2550   40.3272    9.5999 N.am    1  UNL1       -0.2779
     23 H          11.0243   39.9336    8.7275 H       1  UNL1        0.1553
     24 C          13.7387   40.1825    9.5284 C.ar    1  UNL1        0.1141
     25 C          12.5295   39.9873   10.1557 C.ar    1  UNL1        0.0908
     26 C          12.7808   39.4258   11.3944 C.ar    1  UNL1        0.1364
     27 N          14.6714   39.7357   10.3881 N.ar    1  UNL1       -0.2187
     28 N          14.1165   39.2862   11.5023 N.ar    1  UNL1       -0.1641
     29 C          16.1055   39.7545   10.1569 C.3     1  UNL1        0.2733
     30 O          16.3832   40.4122    8.9580 O.3     1  UNL1       -0.3311
     31 C          17.6468   42.2227    8.0806 C.3     1  UNL1        0.0347
     32 C          17.2633   41.4327    9.3142 C.3     1  UNL1        0.1446
@<TRIPOS>BOND
     1    31    32    1
     2    32    30    1
     3    29    30    1
     4    29    27    1
     5    25    22    1
     6    25    26   ar
     7    20     1    1
     8     2     3   ar
     9     4     3    1
    10     5    10    1
    11     6     2   ar
    12     7    11   ar
    13     7    12    1
    14     8     1   ar
    15    13    14   ar
    16    15    19    1
    17    15    16   ar
    18    18    19    1
    19    17    12   ar
    20    27    24   ar
    21    27    28   ar
    22    22    20   am
    23    10     9   ar
    24    10     6   ar
    25    24    25   ar
    26    20    21    2
    27     1     2   ar
    28     3     9   ar
    29     6    11   ar
    30     7     8   ar
    31    12    13   ar
    32    14    15   ar
    33    16    17   ar
    34    26    28   ar
    35    22    23    1
