@<TRIPOS>MOLECULE
MolPort-020-293-084 MCULE-8317610416 PubChem-110265551
 35 38 0 0 0
SMALL
GASTEIGER

@<TRIPOS>ATOM
      1 C           8.4005   42.3713   11.2837 C.3     1  UNL1        0.0724
      2 C           8.9152   41.2443   12.1813 C.3     1  UNL1        0.0178
      3 C          10.4268   41.0882   12.0249 C.3     1  UNL1        0.0087
      4 C          10.8906   41.2262   10.5681 C.3     1  UNL1        0.0563
      5 C           9.7267   41.1365    9.5795 C.3     1  UNL1        0.0783
      6 N           8.7115   42.1663    9.8539 N.3     1  UNL1       -0.2686
      7 C          11.9474   40.2190   10.2461 C.ar    1  UNL1        0.0614
      8 C          14.1831   39.7832    9.5452 C.ar    1  UNL1        0.1339
      9 C          13.9516   38.4034    9.6305 C.ar    1  UNL1        0.0345
     10 C          12.6991   37.9370   10.0294 C.ar    1  UNL1        0.0041
     11 C          11.6879   38.8451   10.3399 C.ar    1  UNL1        0.0149
     12 N          13.1779   40.6476    9.8542 N.ar    1  UNL1       -0.2348
     13 N          15.4523   40.3154    9.1403 N.pl3   1  UNL1       -0.2680
     14 H          16.2468   39.8017    9.4128 H       1  UNL1        0.1565
     15 C          15.6976   41.5092    8.3845 C.ar    1  UNL1        0.2211
     16 C          17.0927   43.3283    7.7908 C.ar    1  UNL1        0.0634
     17 C          16.1225   43.8000    6.9089 C.ar    1  UNL1        0.0296
     18 C          14.9326   43.0842    6.7920 C.ar    1  UNL1        0.0634
     19 C          13.8718   43.5528    5.8628 C.3     1  UNL1        0.0522
     20 C          18.3759   44.0613    7.9459 C.3     1  UNL1        0.0522
     21 N          16.8650   42.1983    8.5091 N.ar    1  UNL1       -0.2179
     22 N          14.7422   41.9578    7.5276 N.ar    1  UNL1       -0.2179
     23 C           7.4837   41.8759    9.1022 C.3     1  UNL1        0.0991
     24 C           8.1498   39.7115    5.4310 C.ar    1  UNL1        0.1368
     25 C           9.0681   40.6875    5.8553 C.ar    1  UNL1        0.0407
     26 C           8.8465   41.3867    7.0462 C.ar    1  UNL1       -0.0018
     27 C           7.7197   41.1135    7.8279 C.ar    1  UNL1       -0.0062
     28 C           6.8101   40.1352    7.4155 C.ar    1  UNL1        0.0002
     29 C           7.0223   39.4389    6.2236 C.ar    1  UNL1        0.0364
     30 C          10.2636   41.0238    5.0298 C.3     1  UNL1        0.1666
     31 O          10.6993   42.3131    5.3356 O.3     1  UNL1       -0.3771
     32 H           9.9906   42.9475    5.1453 H       1  UNL1        0.2109
     33 O           8.3717   39.0276    4.2296 O.3     1  UNL1       -0.4757
     34 C          10.0465   37.4660    3.5180 C.3     1  UNL1        0.0512
     35 C           9.6551   38.9247    3.6276 C.3     1  UNL1        0.2055
@<TRIPOS>BOND
     1    34    35    1
     2    35    33    1
     3    24    33    1
     4    25    26   ar
     5    27    28   ar
     6    29    24   ar
     7    23    27    1
     8    23     6    1
     9     1     6    1
    10     1     2    1
    11     2     3    1
    12     3     4    1
    13     4     5    1
    14     4     7    1
    15     5     6    1
    16     8    12   ar
    17     8    13    1
    18     9    10   ar
    19    11     7   ar
    20    15    22   ar
    21    16    21   ar
    22    17    18   ar
    23    19    18    1
    24    20    16    1
    25    30    25    1
    26    30    31    1
    27    13    15    1
    28    24    25   ar
    29    26    27   ar
    30    28    29   ar
    31     7    12   ar
    32     8     9   ar
    33    10    11   ar
    34    15    21   ar
    35    16    17   ar
    36    18    22   ar
    37    31    32    1
    38    13    14    1
@<TRIPOS>MOLECULE
MolPort-020-293-084 MCULE-8317610416 PubChem-110265551
 35 38 0 0 0
SMALL
GASTEIGER

@<TRIPOS>ATOM
      1 C           8.1950   42.8692   10.3174 C.3     1  UNL1        0.0724
      2 C           8.6372   41.9003   11.4156 C.3     1  UNL1        0.0178
      3 C          10.1534   41.7163   11.3835 C.3     1  UNL1        0.0087
      4 C          10.7095   41.6159    9.9563 C.3     1  UNL1        0.0563
      5 C           9.6088   41.3715    8.9225 C.3     1  UNL1        0.0783
      6 N           8.5922   42.4352    8.9620 N.3     1  UNL1       -0.2686
      7 C          11.7708   40.5667    9.8689 C.ar    1  UNL1        0.0614
      8 C          14.0228   40.0044    9.3287 C.ar    1  UNL1        0.1339
      9 C          13.7840   38.6685    9.6794 C.ar    1  UNL1        0.0345
     10 C          12.5197   38.2883   10.1290 C.ar    1  UNL1        0.0041
     11 C          11.5038   39.2382   10.2261 C.ar    1  UNL1        0.0149
     12 N          13.0129   40.9113    9.4331 N.ar    1  UNL1       -0.2348
     13 N          15.3044   40.4480    8.8607 N.pl3   1  UNL1       -0.2680
     14 H          16.0673   39.8568    9.0548 H       1  UNL1        0.1565
     15 C          15.6026   41.6531    8.1427 C.ar    1  UNL1        0.2211
     16 C          15.0330   43.2927    6.5318 C.ar    1  UNL1        0.0634
     17 C          16.2208   43.9746    6.7885 C.ar    1  UNL1        0.0296
     18 C          17.0876   43.4531    7.7469 C.ar    1  UNL1        0.0634
     19 C          18.3647   44.1493    8.0509 C.3     1  UNL1        0.0522
     20 C          14.0806   43.8142    5.5175 C.3     1  UNL1        0.0522
     21 N          14.7462   42.1508    7.2089 N.ar    1  UNL1       -0.2179
     22 N          16.7651   42.3081    8.4035 N.ar    1  UNL1       -0.2179
     23 C           7.4102   42.0311    8.1898 C.3     1  UNL1        0.0991
     24 C           3.6935   42.3619   10.3538 C.ar    1  UNL1        0.1368
     25 C           4.5650   41.2872   10.6016 C.ar    1  UNL1        0.0407
     26 C           5.7685   41.1848    9.8963 C.ar    1  UNL1       -0.0018
     27 C           6.1190   42.1532    8.9505 C.ar    1  UNL1       -0.0062
     28 C           5.2605   43.2300    8.7096 C.ar    1  UNL1        0.0002
     29 C           4.0541   43.3337    9.4055 C.ar    1  UNL1        0.0364
     30 C           4.2071   40.2219   11.5817 C.3     1  UNL1        0.1666
     31 O           3.4712   39.2233   10.9438 O.3     1  UNL1       -0.3771
     32 H           2.6591   39.6052   10.5759 H       1  UNL1        0.2109
     33 O           2.4837   42.4480   11.0533 O.3     1  UNL1       -0.4757
     34 C           1.0787   42.6595   12.9850 C.3     1  UNL1        0.0512
     35 C           2.3551   42.0738   12.4184 C.3     1  UNL1        0.2055
@<TRIPOS>BOND
     1    34    35    1
     2    35    33    1
     3    24    33    1
     4    25    26   ar
     5    27    28   ar
     6    29    24   ar
     7    23    27    1
     8    23     6    1
     9     1     6    1
    10     1     2    1
    11     2     3    1
    12     3     4    1
    13     4     5    1
    14     4     7    1
    15     5     6    1
    16     8    12   ar
    17     8    13    1
    18     9    10   ar
    19    11     7   ar
    20    15    22   ar
    21    16    21   ar
    22    17    18   ar
    23    19    18    1
    24    20    16    1
    25    30    25    1
    26    30    31    1
    27    13    15    1
    28    24    25   ar
    29    26    27   ar
    30    28    29   ar
    31     7    12   ar
    32     8     9   ar
    33    10    11   ar
    34    15    21   ar
    35    16    17   ar
    36    18    22   ar
    37    31    32    1
    38    13    14    1
@<TRIPOS>MOLECULE
MolPort-020-293-084 MCULE-8317610416 PubChem-110265551
 35 38 0 0 0
SMALL
GASTEIGER

@<TRIPOS>ATOM
      1 C           8.2474   42.5359   11.6012 C.3     1  UNL1        0.0724
      2 C           8.6390   41.2529   12.3370 C.3     1  UNL1        0.0178
      3 C          10.1456   41.0215   12.2372 C.3     1  UNL1        0.0087
      4 C          10.7061   41.3490   10.8462 C.3     1  UNL1        0.0563
      5 C           9.6025   41.4898    9.7964 C.3     1  UNL1        0.0783
      6 N           8.6339   42.5315   10.1751 N.3     1  UNL1       -0.2686
      7 C          11.7203   40.3342   10.4262 C.ar    1  UNL1        0.0614
      8 C          13.9228   39.8785    9.6383 C.ar    1  UNL1        0.1339
      9 C          13.6469   38.5043    9.6313 C.ar    1  UNL1        0.0345
     10 C          12.3892   38.0508   10.0285 C.ar    1  UNL1        0.0041
     11 C          11.4168   38.9661   10.4289 C.ar    1  UNL1        0.0149
     12 N          12.9551   40.7503   10.0339 N.ar    1  UNL1       -0.2348
     13 N          15.1995   40.3975    9.2393 N.pl3   1  UNL1       -0.2680
     14 H          15.9898   39.9323    9.5974 H       1  UNL1        0.1565
     15 C          15.4574   41.5156    8.3792 C.ar    1  UNL1        0.2211
     16 C          14.8037   42.9677    6.6264 C.ar    1  UNL1        0.0634
     17 C          15.9993   43.6728    6.7487 C.ar    1  UNL1        0.0296
     18 C          16.9135   43.2598    7.7160 C.ar    1  UNL1        0.0634
     19 C          18.2006   43.9842    7.8794 C.3     1  UNL1        0.0522
     20 C          13.8013   43.3747    5.6079 C.3     1  UNL1        0.0522
     21 N          14.5549   41.9078    7.4385 N.ar    1  UNL1       -0.2179
     22 N          16.6281   42.1945    8.5097 N.ar    1  UNL1       -0.2179
     23 C           7.4402   42.4425    9.3242 C.3     1  UNL1        0.0991
     24 C           7.9738   40.0094    5.8027 C.ar    1  UNL1        0.1368
     25 C           8.9404   40.9669    6.1560 C.ar    1  UNL1        0.0407
     26 C           8.7616   41.7535    7.2987 C.ar    1  UNL1       -0.0018
     27 C           7.6297   41.5867    8.1026 C.ar    1  UNL1       -0.0062
     28 C           6.6718   40.6273    7.7611 C.ar    1  UNL1        0.0002
     29 C           6.8413   39.8440    6.6174 C.ar    1  UNL1        0.0364
     30 C          10.1435   41.1904    5.3040 C.3     1  UNL1        0.1666
     31 O          10.3384   42.5585    5.1140 O.3     1  UNL1       -0.3771
     32 H           9.5609   42.9380    4.6754 H       1  UNL1        0.2109
     33 O           8.1535   39.2373    4.6486 O.3     1  UNL1       -0.4757
     34 C           9.5738   38.2840    2.9681 C.3     1  UNL1        0.0512
     35 C           9.2851   38.4007    4.4501 C.3     1  UNL1        0.2055
@<TRIPOS>BOND
     1    34    35    1
     2    35    33    1
     3    24    33    1
     4    25    26   ar
     5    27    28   ar
     6    29    24   ar
     7    23    27    1
     8    23     6    1
     9     1     6    1
    10     1     2    1
    11     2     3    1
    12     3     4    1
    13     4     5    1
    14     4     7    1
    15     5     6    1
    16     8    12   ar
    17     8    13    1
    18     9    10   ar
    19    11     7   ar
    20    15    22   ar
    21    16    21   ar
    22    17    18   ar
    23    19    18    1
    24    20    16    1
    25    30    25    1
    26    30    31    1
    27    13    15    1
    28    24    25   ar
    29    26    27   ar
    30    28    29   ar
    31     7    12   ar
    32     8     9   ar
    33    10    11   ar
    34    15    21   ar
    35    16    17   ar
    36    18    22   ar
    37    31    32    1
    38    13    14    1
@<TRIPOS>MOLECULE
MolPort-020-293-084 MCULE-8317610416 PubChem-110265551
 35 38 0 0 0
SMALL
GASTEIGER

@<TRIPOS>ATOM
      1 C           8.4232   42.8378   10.2249 C.3     1  UNL1        0.0724
      2 C           8.6123   41.6322   11.1476 C.3     1  UNL1        0.0178
      3 C          10.0953   41.4174   11.4445 C.3     1  UNL1        0.0087
      4 C          10.9847   41.6285   10.2113 C.3     1  UNL1        0.0563
      5 C          10.1761   41.6571    8.9131 C.3     1  UNL1        0.0783
      6 N           9.1506   42.7125    8.9449 N.3     1  UNL1       -0.2686
      7 C          12.0649   40.5969   10.1485 C.ar    1  UNL1        0.0614
      8 C          14.2939   40.0347    9.5203 C.ar    1  UNL1        0.1339
      9 C          14.1102   38.7299    9.9980 C.ar    1  UNL1        0.0345
     10 C          12.8849   38.3651   10.5556 C.ar    1  UNL1        0.0041
     11 C          11.8532   39.2995   10.6337 C.ar    1  UNL1        0.0149
     12 N          13.2697   40.9270    9.6090 N.ar    1  UNL1       -0.2348
     13 N          15.5337   40.4613    8.9378 N.pl3   1  UNL1       -0.2680
     14 H          16.3046   39.8631    9.0682 H       1  UNL1        0.1565
     15 C          15.7797   41.6585    8.1876 C.ar    1  UNL1        0.2211
     16 C          17.2026   43.4404    7.5487 C.ar    1  UNL1        0.0634
     17 C          16.2048   43.9575    6.7249 C.ar    1  UNL1        0.0296
     18 C          14.9872   43.2829    6.6594 C.ar    1  UNL1        0.0634
     19 C          13.8966   43.8007    5.7931 C.3     1  UNL1        0.0522
     20 C          18.5158   44.1286    7.6478 C.3     1  UNL1        0.0522
     21 N          16.9743   42.3070    8.2615 N.ar    1  UNL1       -0.2179
     22 N          14.7972   42.1517    7.3877 N.ar    1  UNL1       -0.2179
     23 C           8.2041   42.5284    7.8371 C.3     1  UNL1        0.0991
     24 C           4.1024   42.1883    9.1279 C.ar    1  UNL1        0.1368
     25 C           4.5660   43.3811    8.5463 C.ar    1  UNL1        0.0407
     26 C           5.8973   43.4858    8.1303 C.ar    1  UNL1       -0.0018
     27 C           6.7720   42.4050    8.2783 C.ar    1  UNL1       -0.0062
     28 C           6.3117   41.2129    8.8455 C.ar    1  UNL1        0.0002
     29 C           4.9854   41.1049    9.2694 C.ar    1  UNL1        0.0364
     30 C           3.6671   44.5620    8.4017 C.3     1  UNL1        0.1666
     31 O           4.3569   45.6061    7.7854 O.3     1  UNL1       -0.3771
     32 H           5.1230   45.8518    8.3272 H       1  UNL1        0.2109
     33 O           2.7722   42.0979    9.5557 O.3     1  UNL1       -0.4757
     34 C           3.5534   41.4999   11.7425 C.3     1  UNL1        0.0512
     35 C           2.4056   42.0593   10.9283 C.3     1  UNL1        0.2055
@<TRIPOS>BOND
     1    34    35    1
     2    35    33    1
     3    24    33    1
     4    25    26   ar
     5    27    28   ar
     6    29    24   ar
     7    23    27    1
     8    23     6    1
     9     1     6    1
    10     1     2    1
    11     2     3    1
    12     3     4    1
    13     4     5    1
    14     4     7    1
    15     5     6    1
    16     8    12   ar
    17     8    13    1
    18     9    10   ar
    19    11     7   ar
    20    15    22   ar
    21    16    21   ar
    22    17    18   ar
    23    19    18    1
    24    20    16    1
    25    30    25    1
    26    30    31    1
    27    13    15    1
    28    24    25   ar
    29    26    27   ar
    30    28    29   ar
    31     7    12   ar
    32     8     9   ar
    33    10    11   ar
    34    15    21   ar
    35    16    17   ar
    36    18    22   ar
    37    31    32    1
    38    13    14    1
@<TRIPOS>MOLECULE
MolPort-020-293-084 MCULE-8317610416 PubChem-110265551
 35 38 0 0 0
SMALL
GASTEIGER

@<TRIPOS>ATOM
      1 C          11.0805   37.0810   10.0323 C.3     1  UNL1        0.0724
      2 C          12.2828   36.1353   10.0593 C.3     1  UNL1        0.0178
      3 C          13.3923   36.7107   10.9376 C.3     1  UNL1        0.0087
      4 C          13.5690   38.2247   10.7558 C.3     1  UNL1        0.0563
      5 C          12.8538   38.7446    9.5076 C.3     1  UNL1        0.0783
      6 N          11.4151   38.4362    9.5479 N.3     1  UNL1       -0.2686
      7 C          15.0171   38.5954   10.7386 C.ar    1  UNL1        0.0614
      8 C          16.7225   40.0627    9.9524 C.ar    1  UNL1        0.1339
      9 C          17.6889   39.3354   10.6606 C.ar    1  UNL1        0.0345
     10 C          17.3035   38.2264   11.4135 C.ar    1  UNL1        0.0041
     11 C          15.9618   37.8497   11.4563 C.ar    1  UNL1        0.0149
     12 N          15.4195   39.6730   10.0116 N.ar    1  UNL1       -0.2348
     13 N          17.0653   41.2106    9.1630 N.pl3   1  UNL1       -0.2680
     14 H          17.9834   41.5509    9.2653 H       1  UNL1        0.1565
     15 C          16.2251   41.9197    8.2422 C.ar    1  UNL1        0.2211
     16 C          15.8728   43.6905    6.7099 C.ar    1  UNL1        0.0634
     17 C          14.5711   43.2492    6.4808 C.ar    1  UNL1        0.0296
     18 C          14.1272   42.1190    7.1646 C.ar    1  UNL1        0.0634
     19 C          12.7460   41.6150    6.9491 C.3     1  UNL1        0.0522
     20 C          16.3861   44.8917    6.0016 C.3     1  UNL1        0.0522
     21 N          16.6723   43.0226    7.5813 N.ar    1  UNL1       -0.2179
     22 N          14.9573   41.4777    8.0283 N.ar    1  UNL1       -0.2179
     23 C          10.8131   38.6686    8.2287 C.3     1  UNL1        0.0991
     24 C           7.6091   41.5566    8.2444 C.ar    1  UNL1        0.1368
     25 C           7.5448   40.4308    7.4051 C.ar    1  UNL1        0.0407
     26 C           8.5870   39.4981    7.4037 C.ar    1  UNL1       -0.0018
     27 C           9.6923   39.6709    8.2426 C.ar    1  UNL1       -0.0062
     28 C           9.7546   40.7830    9.0875 C.ar    1  UNL1        0.0002
     29 C           8.7204   41.7215    9.0879 C.ar    1  UNL1        0.0364
     30 C           6.3946   40.2328    6.4769 C.3     1  UNL1        0.1666
     31 O           6.5518   39.0339    5.7815 O.3     1  UNL1       -0.3771
     32 H           7.3749   39.0628    5.2691 H       1  UNL1        0.2109
     33 O           6.5685   42.4932    8.2276 O.3     1  UNL1       -0.4757
     34 C           5.3983   44.5200    7.7055 C.3     1  UNL1        0.0512
     35 C           6.5417   43.5988    7.3350 C.3     1  UNL1        0.2055
@<TRIPOS>BOND
     1    34    35    1
     2    35    33    1
     3    24    33    1
     4    25    26   ar
     5    27    28   ar
     6    29    24   ar
     7    23    27    1
     8    23     6    1
     9     1     6    1
    10     1     2    1
    11     2     3    1
    12     3     4    1
    13     4     5    1
    14     4     7    1
    15     5     6    1
    16     8    12   ar
    17     8    13    1
    18     9    10   ar
    19    11     7   ar
    20    15    22   ar
    21    16    21   ar
    22    17    18   ar
    23    19    18    1
    24    20    16    1
    25    30    25    1
    26    30    31    1
    27    13    15    1
    28    24    25   ar
    29    26    27   ar
    30    28    29   ar
    31     7    12   ar
    32     8     9   ar
    33    10    11   ar
    34    15    21   ar
    35    16    17   ar
    36    18    22   ar
    37    31    32    1
    38    13    14    1
@<TRIPOS>MOLECULE
MolPort-020-293-084 MCULE-8317610416 PubChem-110265551
 35 38 0 0 0
SMALL
GASTEIGER

@<TRIPOS>ATOM
      1 C          10.5982   39.1224    9.6884 C.3     1  UNL1        0.0724
      2 C          11.6159   38.6061    8.6693 C.3     1  UNL1        0.0178
      3 C          12.7915   37.9403    9.3823 C.3     1  UNL1        0.0087
      4 C          13.2337   38.7035   10.6386 C.3     1  UNL1        0.0563
      5 C          12.6451   40.1143   10.6955 C.3     1  UNL1        0.0783
      6 N          11.1741   40.0822   10.6529 N.3     1  UNL1       -0.2686
      7 C          14.7244   38.7390   10.7453 C.ar    1  UNL1        0.0614
      8 C          16.7683   39.8347   10.1964 C.ar    1  UNL1        0.1339
      9 C          17.4908   38.8618   10.9009 C.ar    1  UNL1        0.0345
     10 C          16.8115   37.8194   11.5313 C.ar    1  UNL1        0.0041
     11 C          15.4210   37.7526   11.4563 C.ar    1  UNL1        0.0149
     12 N          15.4112   39.7452   10.1392 N.ar    1  UNL1       -0.2348
     13 N          17.4177   40.9269    9.5304 N.pl3   1  UNL1       -0.2680
     14 H          18.3442   41.1152    9.8047 H       1  UNL1        0.1565
     15 C          16.8730   41.7761    8.5112 C.ar    1  UNL1        0.2211
     16 C          17.1413   43.4392    6.8467 C.ar    1  UNL1        0.0634
     17 C          15.7786   43.3889    6.5601 C.ar    1  UNL1        0.0296
     18 C          14.9837   42.5028    7.2846 C.ar    1  UNL1        0.0634
     19 C          13.5257   42.4179    7.0103 C.3     1  UNL1        0.0522
     20 C          18.0248   44.3700    6.0978 C.3     1  UNL1        0.0522
     21 N          17.6618   42.6371    7.8114 N.ar    1  UNL1       -0.2179
     22 N          15.5418   41.7164    8.2419 N.ar    1  UNL1       -0.2179
     23 C          10.6480   41.4308   10.4052 C.3     1  UNL1        0.0991
     24 C           6.3422   41.6459   10.2622 C.ar    1  UNL1        0.1368
     25 C           7.0921   41.6483    9.0733 C.ar    1  UNL1        0.0407
     26 C           8.4881   41.5791    9.1259 C.ar    1  UNL1       -0.0018
     27 C           9.1465   41.4955   10.3566 C.ar    1  UNL1       -0.0062
     28 C           8.4038   41.4809   11.5410 C.ar    1  UNL1        0.0002
     29 C           7.0101   41.5571   11.4950 C.ar    1  UNL1        0.0364
     30 C           6.4224   41.7668    7.7462 C.3     1  UNL1        0.1666
     31 O           5.6393   40.6366    7.5115 O.3     1  UNL1       -0.3771
     32 H           6.2020   39.8466    7.5163 H       1  UNL1        0.2109
     33 O           4.9460   41.7312   10.2006 O.3     1  UNL1       -0.4757
     34 C           3.9015   40.1768   11.6981 C.3     1  UNL1        0.0512
     35 C           4.1015   40.5894   10.2549 C.3     1  UNL1        0.2055
@<TRIPOS>BOND
     1    34    35    1
     2    35    33    1
     3    24    33    1
     4    25    26   ar
     5    27    28   ar
     6    29    24   ar
     7    23    27    1
     8    23     6    1
     9     1     6    1
    10     1     2    1
    11     2     3    1
    12     3     4    1
    13     4     5    1
    14     4     7    1
    15     5     6    1
    16     8    12   ar
    17     8    13    1
    18     9    10   ar
    19    11     7   ar
    20    15    22   ar
    21    16    21   ar
    22    17    18   ar
    23    19    18    1
    24    20    16    1
    25    30    25    1
    26    30    31    1
    27    13    15    1
    28    24    25   ar
    29    26    27   ar
    30    28    29   ar
    31     7    12   ar
    32     8     9   ar
    33    10    11   ar
    34    15    21   ar
    35    16    17   ar
    36    18    22   ar
    37    31    32    1
    38    13    14    1
@<TRIPOS>MOLECULE
MolPort-020-293-084 MCULE-8317610416 PubChem-110265551
 35 38 0 0 0
SMALL
GASTEIGER

@<TRIPOS>ATOM
      1 C          13.1660   39.6125    8.6204 C.3     1  UNL1        0.0724
      2 C          13.4247   40.2764    9.9743 C.3     1  UNL1        0.0178
      3 C          12.2651   40.0033   10.9305 C.3     1  UNL1        0.0087
      4 C          10.8951   40.0932   10.2439 C.3     1  UNL1        0.0563
      5 C          10.9780   40.7684    8.8738 C.3     1  UNL1        0.0783
      6 N          11.9096   40.0578    7.9829 N.3     1  UNL1       -0.2686
      7 C           9.9011   40.7820   11.1227 C.ar    1  UNL1        0.0614
      8 C           7.7629   41.8112   11.3421 C.ar    1  UNL1        0.1339
      9 C           8.0143   42.0682   12.6968 C.ar    1  UNL1        0.0345
     10 C           9.2272   41.6729   13.2608 C.ar    1  UNL1        0.0041
     11 C          10.1794   41.0261   12.4743 C.ar    1  UNL1        0.0149
     12 N           8.7101   41.1781   10.5972 N.ar    1  UNL1       -0.2348
     13 N           6.5325   42.1967   10.7129 N.pl3   1  UNL1       -0.2680
     14 H           5.7148   42.0824   11.2492 H       1  UNL1        0.1565
     15 C           6.3560   42.7293    9.3932 C.ar    1  UNL1        0.2211
     16 C           5.2078   44.1293    7.8668 C.ar    1  UNL1        0.0634
     17 C           6.0572   43.7252    6.8388 C.ar    1  UNL1        0.0296
     18 C           7.0612   42.8052    7.1351 C.ar    1  UNL1        0.0634
     19 C           7.9884   42.3480    6.0677 C.3     1  UNL1        0.0522
     20 C           4.1240   45.1085    7.5942 C.3     1  UNL1        0.0522
     21 N           5.3706   43.6275    9.1185 N.ar    1  UNL1       -0.2179
     22 N           7.1922   42.3263    8.3998 N.ar    1  UNL1       -0.2179
     23 C          12.2015   40.8793    6.8010 C.3     1  UNL1        0.0991
     24 C          15.6231   43.4647    7.2644 C.ar    1  UNL1        0.1368
     25 C          14.5859   43.8126    6.3816 C.ar    1  UNL1        0.0407
     26 C          13.4792   42.9699    6.2350 C.ar    1  UNL1       -0.0018
     27 C          13.3900   41.7844    6.9711 C.ar    1  UNL1       -0.0062
     28 C          14.4138   41.4406    7.8589 C.ar    1  UNL1        0.0002
     29 C          15.5247   42.2744    8.0042 C.ar    1  UNL1        0.0364
     30 C          14.6645   45.0543    5.5598 C.3     1  UNL1        0.1666
     31 O          15.9056   45.6636    5.7449 O.3     1  UNL1       -0.3771
     32 H          16.0172   45.8921    6.6809 H       1  UNL1        0.2109
     33 O          16.7344   44.3065    7.3931 O.3     1  UNL1       -0.4757
     34 C          18.0958   42.3571    7.7039 C.3     1  UNL1        0.0512
     35 C          17.9884   43.8563    7.8881 C.3     1  UNL1        0.2055
@<TRIPOS>BOND
     1    34    35    1
     2    35    33    1
     3    24    33    1
     4    25    26   ar
     5    27    28   ar
     6    29    24   ar
     7    23    27    1
     8    23     6    1
     9     1     6    1
    10     1     2    1
    11     2     3    1
    12     3     4    1
    13     4     5    1
    14     4     7    1
    15     5     6    1
    16     8    12   ar
    17     8    13    1
    18     9    10   ar
    19    11     7   ar
    20    15    22   ar
    21    16    21   ar
    22    17    18   ar
    23    19    18    1
    24    20    16    1
    25    30    25    1
    26    30    31    1
    27    13    15    1
    28    24    25   ar
    29    26    27   ar
    30    28    29   ar
    31     7    12   ar
    32     8     9   ar
    33    10    11   ar
    34    15    21   ar
    35    16    17   ar
    36    18    22   ar
    37    31    32    1
    38    13    14    1
@<TRIPOS>MOLECULE
MolPort-020-293-084 MCULE-8317610416 PubChem-110265551
 35 38 0 0 0
SMALL
GASTEIGER

@<TRIPOS>ATOM
      1 C          10.9897   37.4781    9.9118 C.3     1  UNL1        0.0724
      2 C          12.0848   36.4104    9.9476 C.3     1  UNL1        0.0178
      3 C          13.2113   36.8353   10.8878 C.3     1  UNL1        0.0087
      4 C          13.5521   38.3274   10.7702 C.3     1  UNL1        0.0563
      5 C          12.9468   38.9620    9.5169 C.3     1  UNL1        0.0783
      6 N          11.4834   38.8060    9.4920 N.3     1  UNL1       -0.2686
      7 C          15.0305   38.5435   10.8209 C.ar    1  UNL1        0.0614
      8 C          16.9083   39.8580   10.1690 C.ar    1  UNL1        0.1339
      9 C          17.7657   38.9998   10.8712 C.ar    1  UNL1        0.0345
     10 C          17.2381   37.9033   11.5529 C.ar    1  UNL1        0.0041
     11 C          15.8640   37.6690   11.5310 C.ar    1  UNL1        0.0149
     12 N          15.5707   39.6058   10.1642 N.ar    1  UNL1       -0.2348
     13 N          17.3990   40.9994    9.4515 N.pl3   1  UNL1       -0.2680
     14 H          18.3175   41.2843    9.6624 H       1  UNL1        0.1565
     15 C          16.7062   41.7733    8.4627 C.ar    1  UNL1        0.2211
     16 C          14.7245   42.3338    7.2937 C.ar    1  UNL1        0.0634
     17 C          15.4184   43.2863    6.5502 C.ar    1  UNL1        0.0296
     18 C          16.7793   43.4544    6.7983 C.ar    1  UNL1        0.0634
     19 C          17.5564   44.4595    6.0276 C.3     1  UNL1        0.0522
     20 C          13.2722   42.1223    7.0611 C.3     1  UNL1        0.0522
     21 N          15.3763   41.5981    8.2312 N.ar    1  UNL1       -0.2179
     22 N          17.3958   42.6993    7.7448 N.ar    1  UNL1       -0.2179
     23 C          10.9633   39.1453    8.1610 C.3     1  UNL1        0.0991
     24 C           7.3779   41.5422    8.2312 C.ar    1  UNL1        0.1368
     25 C           7.4599   40.4134    7.3975 C.ar    1  UNL1        0.0407
     26 C           8.6254   39.6404    7.3784 C.ar    1  UNL1       -0.0018
     27 C           9.7105   39.9759    8.1940 C.ar    1  UNL1       -0.0062
     28 C           9.6285   41.0910    9.0334 C.ar    1  UNL1        0.0002
     29 C           8.4701   41.8709    9.0514 C.ar    1  UNL1        0.0364
     30 C           6.3323   40.0459    6.4936 C.3     1  UNL1        0.1666
     31 O           6.6812   38.9277    5.7362 O.3     1  UNL1       -0.3771
     32 H           7.4655   39.1305    5.2028 H       1  UNL1        0.2109
     33 O           6.2131   42.3192    8.2322 O.3     1  UNL1       -0.4757
     34 C           4.8205   41.1254    9.7767 C.3     1  UNL1        0.0512
     35 C           5.3899   42.4716    9.3807 C.3     1  UNL1        0.2055
@<TRIPOS>BOND
     1    34    35    1
     2    35    33    1
     3    24    33    1
     4    25    26   ar
     5    27    28   ar
     6    29    24   ar
     7    23    27    1
     8    23     6    1
     9     1     6    1
    10     1     2    1
    11     2     3    1
    12     3     4    1
    13     4     5    1
    14     4     7    1
    15     5     6    1
    16     8    12   ar
    17     8    13    1
    18     9    10   ar
    19    11     7   ar
    20    15    22   ar
    21    16    21   ar
    22    17    18   ar
    23    19    18    1
    24    20    16    1
    25    30    25    1
    26    30    31    1
    27    13    15    1
    28    24    25   ar
    29    26    27   ar
    30    28    29   ar
    31     7    12   ar
    32     8     9   ar
    33    10    11   ar
    34    15    21   ar
    35    16    17   ar
    36    18    22   ar
    37    31    32    1
    38    13    14    1
@<TRIPOS>MOLECULE
MolPort-020-293-084 MCULE-8317610416 PubChem-110265551
 35 38 0 0 0
SMALL
GASTEIGER

@<TRIPOS>ATOM
      1 C           8.6945   42.0020   10.9468 C.3     1  UNL1        0.0724
      2 C           9.2139   41.0611   12.0357 C.3     1  UNL1        0.0178
      3 C          10.7415   41.0536   12.0476 C.3     1  UNL1        0.0087
      4 C          11.3466   41.0562   10.6369 C.3     1  UNL1        0.0563
      5 C          10.3120   40.7148    9.5631 C.3     1  UNL1        0.0783
      6 N           9.1785   41.6533    9.5951 N.3     1  UNL1       -0.2686
      7 C          12.5243   40.1387   10.5588 C.ar    1  UNL1        0.0614
      8 C          14.7754   39.7883    9.8595 C.ar    1  UNL1        0.1339
      9 C          14.7442   38.4862   10.3772 C.ar    1  UNL1        0.0345
     10 C          13.5838   38.0150   10.9910 C.ar    1  UNL1        0.0041
     11 C          12.4648   38.8413   11.0850 C.ar    1  UNL1        0.0149
     12 N          13.6686   40.5738    9.9648 N.ar    1  UNL1       -0.2348
     13 N          15.9430   40.3217    9.2188 N.pl3   1  UNL1       -0.2680
     14 H          16.7781   39.8156    9.3444 H       1  UNL1        0.1565
     15 C          16.0343   41.5068    8.4166 C.ar    1  UNL1        0.2211
     16 C          17.2392   43.3975    7.6538 C.ar    1  UNL1        0.0634
     17 C          16.1616   43.7772    6.8561 C.ar    1  UNL1        0.0296
     18 C          15.0186   42.9801    6.8674 C.ar    1  UNL1        0.0634
     19 C          13.8470   43.3494    6.0313 C.3     1  UNL1        0.0522
     20 C          18.4772   44.2190    7.6714 C.3     1  UNL1        0.0522
     21 N          17.1575   42.2760    8.4156 N.ar    1  UNL1       -0.2179
     22 N          14.9753   41.8653    7.6430 N.ar    1  UNL1       -0.2179
     23 C           8.0740   41.1369    8.7762 C.3     1  UNL1        0.0991
     24 C           4.6266   43.7255    8.6341 C.ar    1  UNL1        0.1368
     25 C           4.4952   42.3925    9.0605 C.ar    1  UNL1        0.0407
     26 C           5.6165   41.5576    9.1038 C.ar    1  UNL1       -0.0018
     27 C           6.8750   42.0433    8.7358 C.ar    1  UNL1       -0.0062
     28 C           7.0120   43.3718    8.3224 C.ar    1  UNL1        0.0002
     29 C           5.8947   44.2081    8.2701 C.ar    1  UNL1        0.0364
     30 C           3.1626   41.8352    9.4309 C.3     1  UNL1        0.1666
     31 O           3.2630   40.4558    9.6123 O.3     1  UNL1       -0.3771
     32 H           3.5647   40.0425    8.7883 H       1  UNL1        0.2109
     33 O           3.4959   44.5496    8.5790 O.3     1  UNL1       -0.4757
     34 C           1.7307   45.7408    7.4767 C.3     1  UNL1        0.0512
     35 C           3.2012   45.3791    7.4631 C.3     1  UNL1        0.2055
@<TRIPOS>BOND
     1    34    35    1
     2    35    33    1
     3    24    33    1
     4    25    26   ar
     5    27    28   ar
     6    29    24   ar
     7    23    27    1
     8    23     6    1
     9     1     6    1
    10     1     2    1
    11     2     3    1
    12     3     4    1
    13     4     5    1
    14     4     7    1
    15     5     6    1
    16     8    12   ar
    17     8    13    1
    18     9    10   ar
    19    11     7   ar
    20    15    22   ar
    21    16    21   ar
    22    17    18   ar
    23    19    18    1
    24    20    16    1
    25    30    25    1
    26    30    31    1
    27    13    15    1
    28    24    25   ar
    29    26    27   ar
    30    28    29   ar
    31     7    12   ar
    32     8     9   ar
    33    10    11   ar
    34    15    21   ar
    35    16    17   ar
    36    18    22   ar
    37    31    32    1
    38    13    14    1
@<TRIPOS>MOLECULE
MolPort-020-293-084 MCULE-8317610416 PubChem-110265551
 35 38 0 0 0
SMALL
GASTEIGER

@<TRIPOS>ATOM
      1 C          10.6199   39.8521    5.1787 C.3     1  UNL1        0.0724
      2 C           9.2302   39.3343    5.5546 C.3     1  UNL1        0.0178
      3 C           8.2169   40.4774    5.5476 C.3     1  UNL1        0.0087
      4 C           8.7784   41.7726    6.1508 C.3     1  UNL1        0.0563
      5 C          10.0742   41.5344    6.9280 C.3     1  UNL1        0.0783
      6 N          11.1052   40.9226    6.0741 N.3     1  UNL1       -0.2686
      7 C           7.7566   42.4509    7.0056 C.ar    1  UNL1        0.0614
      8 C           6.8775   42.8419    9.1858 C.ar    1  UNL1        0.1339
      9 C           5.8877   43.6761    8.6482 C.ar    1  UNL1        0.0345
     10 C           5.8412   43.8931    7.2712 C.ar    1  UNL1        0.0041
     11 C           6.7780   43.2797    6.4407 C.ar    1  UNL1        0.0149
     12 N           7.7797   42.2556    8.3520 N.ar    1  UNL1       -0.2348
     13 N           6.9697   42.5853   10.5944 N.pl3   1  UNL1       -0.2680
     14 H           6.1713   42.7994   11.1291 H       1  UNL1        0.1565
     15 C           8.0905   42.0530   11.3134 C.ar    1  UNL1        0.2211
     16 C           9.0757   41.2731   13.3207 C.ar    1  UNL1        0.0634
     17 C          10.2737   41.0297   12.6521 C.ar    1  UNL1        0.0296
     18 C          10.3398   41.3166   11.2900 C.ar    1  UNL1        0.0634
     19 C          11.5986   41.0717   10.5394 C.3     1  UNL1        0.0522
     20 C           8.9622   40.9815   14.7733 C.3     1  UNL1        0.0522
     21 N           8.0114   41.7776   12.6442 N.ar    1  UNL1       -0.2179
     22 N           9.2532   41.8202   10.6483 N.ar    1  UNL1       -0.2179
     23 C          12.2163   40.4314    6.8994 C.3     1  UNL1        0.0991
     24 C          15.5043   43.2047    7.2208 C.ar    1  UNL1        0.1368
     25 C          14.5233   43.3800    6.2295 C.ar    1  UNL1        0.0407
     26 C          13.4598   42.4771    6.1296 C.ar    1  UNL1       -0.0018
     27 C          13.3575   41.4030    7.0190 C.ar    1  UNL1       -0.0062
     28 C          14.3248   41.2319    8.0139 C.ar    1  UNL1        0.0002
     29 C          15.3929   42.1260    8.1140 C.ar    1  UNL1        0.0364
     30 C          14.6193   44.4974    5.2467 C.3     1  UNL1        0.1666
     31 O          15.1229   45.6358    5.8759 O.3     1  UNL1       -0.3771
     32 H          14.5296   45.8953    6.5981 H       1  UNL1        0.2109
     33 O          16.5739   44.1045    7.3034 O.3     1  UNL1       -0.4757
     34 C          17.8322   42.2942    8.2465 C.3     1  UNL1        0.0512
     35 C          17.8703   43.7217    7.7424 C.3     1  UNL1        0.2055
@<TRIPOS>BOND
     1    34    35    1
     2    35    33    1
     3    24    33    1
     4    25    26   ar
     5    27    28   ar
     6    29    24   ar
     7    23    27    1
     8    23     6    1
     9     1     6    1
    10     1     2    1
    11     2     3    1
    12     3     4    1
    13     4     5    1
    14     4     7    1
    15     5     6    1
    16     8    12   ar
    17     8    13    1
    18     9    10   ar
    19    11     7   ar
    20    15    22   ar
    21    16    21   ar
    22    17    18   ar
    23    19    18    1
    24    20    16    1
    25    30    25    1
    26    30    31    1
    27    13    15    1
    28    24    25   ar
    29    26    27   ar
    30    28    29   ar
    31     7    12   ar
    32     8     9   ar
    33    10    11   ar
    34    15    21   ar
    35    16    17   ar
    36    18    22   ar
    37    31    32    1
    38    13    14    1
