@<TRIPOS>MOLECULE
MolPort-007-723-351 6818230 ChemDiv-E157-4633 MCULE-6806045684 PubChem-22517937 ZINC000006818230 ZINC06818230
 25 27 0 0 0
SMALL
GASTEIGER

@<TRIPOS>ATOM
      1 C          14.0680   39.8277    8.9369 C.2     1  UNL1        0.2721
      2 N          13.4040   40.4615    7.8382 N.am    1  UNL1       -0.2597
      3 O          15.0763   40.3491    9.4816 O.2     1  UNL1       -0.2707
      4 H          12.6071   40.0077    7.4800 H       1  UNL1        0.1569
      5 C          16.0918   44.1310    6.1930 C.ar    1  UNL1        0.1643
      6 C          14.0244   43.7729    6.1007 C.ar    1  UNL1        0.2195
      7 C          13.7840   41.6905    7.2084 C.ar    1  UNL1        0.1880
      8 N          15.5179   45.1740    5.5333 N.ar    1  UNL1       -0.1310
      9 N          14.1987   44.9491    5.4748 N.ar    1  UNL1       -0.1202
     10 N          15.0837   42.1001    7.1664 N.ar    1  UNL1       -0.1400
     11 N          15.1423   43.2621    6.5373 N.ar    1  UNL1       -0.1881
     12 S          12.7009   42.8074    6.4452 S.2     1  UNL1       -0.0111
     13 C          17.5517   43.9692    6.4630 C.3     1  UNL1        0.0677
     14 C          18.0089   42.5129    8.4379 C.3     1  UNL1        0.0005
     15 C          17.8319   43.9407    7.9567 C.3     1  UNL1        0.0080
     16 C          13.5705   38.5117    9.4277 C.3     1  UNL1        0.2897
     17 O          12.1910   38.3556    9.1095 O.3     1  UNL1       -0.4656
     18 C          11.2173   39.3117    9.4198 C.ar    1  UNL1        0.1395
     19 C          10.2448   39.7044    8.4863 C.ar    1  UNL1        0.0400
     20 C           9.2867   40.6621    8.8279 C.ar    1  UNL1        0.0400
     21 C           9.2900   41.2409   10.1071 C.ar    1  UNL1        0.1389
     22 C          10.2618   40.8504   11.0341 C.ar    1  UNL1        0.0400
     23 C          11.2201   39.8918   10.6920 C.ar    1  UNL1        0.0400
     24 C           6.9453   41.9780   10.3832 C.3     1  UNL1        0.2525
     25 O           8.3455   42.2006   10.4806 O.3     1  UNL1       -0.4714
@<TRIPOS>BOND
     1    14    15    1
     2    15    13    1
     3    13     5    1
     4     6    12   ar
     5     7    12   ar
     6     7     2    1
     7    16     1    1
     8    16    17    1
     9    18    17    1
    10    19    20   ar
    11    21    25    1
    12    21    22   ar
    13    24    25    1
    14    23    18   ar
    15     8     9   ar
    16     2     1   am
    17    11    10   ar
    18    11     5   ar
    19    11     6   ar
    20     5     8   ar
    21     6     9   ar
    22     7    10   ar
    23     1     3    2
    24    18    19   ar
    25    20    21   ar
    26    22    23   ar
    27     2     4    1
@<TRIPOS>MOLECULE
MolPort-007-723-351 6818230 ChemDiv-E157-4633 MCULE-6806045684 PubChem-22517937 ZINC000006818230 ZINC06818230
 25 27 0 0 0
SMALL
GASTEIGER

@<TRIPOS>ATOM
      1 C          12.2364   40.9281    8.5782 C.2     1  UNL1        0.2721
      2 N          12.2990   41.6638    7.3515 N.am    1  UNL1       -0.2597
      3 O          13.1512   41.0118    9.4393 O.2     1  UNL1       -0.2707
      4 H          11.5352   41.5682    6.7377 H       1  UNL1        0.1569
      5 C          16.5391   43.9876    7.2176 C.ar    1  UNL1        0.1643
      6 C          14.8771   44.0547    5.9354 C.ar    1  UNL1        0.2195
      7 C          13.3626   42.5249    6.9288 C.ar    1  UNL1        0.1880
      8 N          16.8217   44.8645    6.2158 N.ar    1  UNL1       -0.1310
      9 N          15.7623   44.9107    5.3975 N.ar    1  UNL1       -0.1202
     10 N          14.5262   42.6220    7.6325 N.ar    1  UNL1       -0.1400
     11 N          15.3193   43.4878    7.0237 N.ar    1  UNL1       -0.1881
     12 S          13.3365   43.5430    5.5267 S.2     1  UNL1       -0.0111
     13 C          17.4562   43.6206    8.3378 C.3     1  UNL1        0.0677
     14 C          17.2275   41.2943    9.2131 C.3     1  UNL1        0.0005
     15 C          17.9327   42.1832    8.2062 C.3     1  UNL1        0.0080
     16 C          11.0775   40.0255    8.8281 C.3     1  UNL1        0.2897
     17 O          10.0697   40.2319    7.8432 O.3     1  UNL1       -0.4656
     18 C           8.7707   40.6534    8.1488 C.ar    1  UNL1        0.1395
     19 C           8.4808   41.3533    9.3309 C.ar    1  UNL1        0.0400
     20 C           7.1727   41.7595    9.6062 C.ar    1  UNL1        0.0400
     21 C           6.1372   41.4694    8.7035 C.ar    1  UNL1        0.1389
     22 C           6.4279   40.7692    7.5282 C.ar    1  UNL1        0.0400
     23 C           7.7371   40.3631    7.2529 C.ar    1  UNL1        0.0400
     24 C           4.4514   43.2153    9.1803 C.3     1  UNL1        0.2525
     25 O           4.8187   41.8621    8.9486 O.3     1  UNL1       -0.4714
@<TRIPOS>BOND
     1    14    15    1
     2    15    13    1
     3    13     5    1
     4     6    12   ar
     5     7    12   ar
     6     7     2    1
     7    16     1    1
     8    16    17    1
     9    18    17    1
    10    19    20   ar
    11    21    25    1
    12    21    22   ar
    13    24    25    1
    14    23    18   ar
    15     8     9   ar
    16     2     1   am
    17    11    10   ar
    18    11     5   ar
    19    11     6   ar
    20     5     8   ar
    21     6     9   ar
    22     7    10   ar
    23     1     3    2
    24    18    19   ar
    25    20    21   ar
    26    22    23   ar
    27     2     4    1
@<TRIPOS>MOLECULE
MolPort-007-723-351 6818230 ChemDiv-E157-4633 MCULE-6806045684 PubChem-22517937 ZINC000006818230 ZINC06818230
 25 27 0 0 0
SMALL
GASTEIGER

@<TRIPOS>ATOM
      1 C           9.0880   41.6172   11.0290 C.2     1  UNL1        0.2721
      2 N           8.7185   42.0889    9.7287 N.am    1  UNL1       -0.2597
      3 O           8.3105   41.7325   12.0126 O.2     1  UNL1       -0.2707
      4 H           9.3668   41.9414    9.0026 H       1  UNL1        0.1569
      5 C           4.0069   43.0594    9.2228 C.ar    1  UNL1        0.1643
      6 C           5.7164   44.1292    8.6363 C.ar    1  UNL1        0.2195
      7 C           7.4991   42.7542    9.3793 C.ar    1  UNL1        0.1880
      8 N           3.5928   44.2021    8.6103 N.ar    1  UNL1       -0.1310
      9 N           4.6814   44.8856    8.2333 N.ar    1  UNL1       -0.1202
     10 N           6.2815   42.2163    9.6741 N.ar    1  UNL1       -0.1400
     11 N           5.3390   43.0326    9.2331 N.ar    1  UNL1       -0.1881
     12 S           7.3822   44.2732    8.5534 S.2     1  UNL1       -0.0111
     13 C           3.1161   42.0169    9.8144 C.3     1  UNL1        0.0677
     14 C           3.8933   40.5315   11.6637 C.3     1  UNL1        0.0005
     15 C           3.3343   41.8977   11.3140 C.3     1  UNL1        0.0080
     16 C          10.4303   41.0013   11.2263 C.3     1  UNL1        0.2897
     17 O          11.1552   40.9944   10.0004 O.3     1  UNL1       -0.4656
     18 C          12.5068   40.6432    9.9081 C.ar    1  UNL1        0.1395
     19 C          13.1328   39.8547   10.8867 C.ar    1  UNL1        0.0400
     20 C          14.4843   39.5222   10.7649 C.ar    1  UNL1        0.0400
     21 C          15.2276   39.9756    9.6635 C.ar    1  UNL1        0.1389
     22 C          14.6026   40.7636    8.6917 C.ar    1  UNL1        0.0400
     23 C          13.2501   41.0959    8.8137 C.ar    1  UNL1        0.0400
     24 C          17.4037   39.2658   10.6008 C.3     1  UNL1        0.2525
     25 O          16.5805   39.6603    9.5115 O.3     1  UNL1       -0.4714
@<TRIPOS>BOND
     1    14    15    1
     2    15    13    1
     3    13     5    1
     4     6    12   ar
     5     7    12   ar
     6     7     2    1
     7    16     1    1
     8    16    17    1
     9    18    17    1
    10    19    20   ar
    11    21    25    1
    12    21    22   ar
    13    24    25    1
    14    23    18   ar
    15     8     9   ar
    16     2     1   am
    17    11    10   ar
    18    11     5   ar
    19    11     6   ar
    20     5     8   ar
    21     6     9   ar
    22     7    10   ar
    23     1     3    2
    24    18    19   ar
    25    20    21   ar
    26    22    23   ar
    27     2     4    1
@<TRIPOS>MOLECULE
MolPort-007-723-351 6818230 ChemDiv-E157-4633 MCULE-6806045684 PubChem-22517937 ZINC000006818230 ZINC06818230
 25 27 0 0 0
SMALL
GASTEIGER

@<TRIPOS>ATOM
      1 C           9.2719   41.7057    6.9143 C.2     1  UNL1        0.2721
      2 N           8.5593   42.0177    8.1163 N.am    1  UNL1       -0.2597
      3 O           8.8412   42.0629    5.7864 O.2     1  UNL1       -0.2707
      4 H           8.9699   41.7283    8.9630 H       1  UNL1        0.1569
      5 C           3.9241   42.9992    9.0896 C.ar    1  UNL1        0.1643
      6 C           5.4239   44.1471    8.1711 C.ar    1  UNL1        0.2195
      7 C           7.3084   42.7090    8.2091 C.ar    1  UNL1        0.1880
      8 N           3.3826   44.2033    8.7591 N.ar    1  UNL1       -0.1310
      9 N           4.3367   44.9370    8.1712 N.ar    1  UNL1       -0.1202
     10 N           6.2110   42.1286    8.7726 N.ar    1  UNL1       -0.1400
     11 N           5.2032   42.9834    8.7173 N.ar    1  UNL1       -0.1881
     12 S           7.0010   44.3150    7.6353 S.2     1  UNL1       -0.0111
     13 C           3.2112   41.8851    9.7833 C.3     1  UNL1        0.0677
     14 C           4.0446   40.2368   11.4621 C.3     1  UNL1        0.0005
     15 C           3.7341   41.6981   11.1982 C.3     1  UNL1        0.0080
     16 C          10.5350   40.9198    6.9992 C.3     1  UNL1        0.2897
     17 O          11.5881   41.6039    6.3272 O.3     1  UNL1       -0.4656
     18 C          12.8745   41.7472    6.8592 C.ar    1  UNL1        0.1395
     19 C          13.7791   42.6964    6.3573 C.ar    1  UNL1        0.0400
     20 C          15.0565   42.8135    6.9107 C.ar    1  UNL1        0.0400
     21 C          15.4464   41.9815    7.9724 C.ar    1  UNL1        0.1389
     22 C          14.5446   41.0345    8.4684 C.ar    1  UNL1        0.0400
     23 C          13.2663   40.9178    7.9145 C.ar    1  UNL1        0.0400
     24 C          17.4397   43.2947    8.6200 C.3     1  UNL1        0.2525
     25 O          16.7161   42.0737    8.5487 O.3     1  UNL1       -0.4714
@<TRIPOS>BOND
     1    14    15    1
     2    15    13    1
     3    13     5    1
     4     6    12   ar
     5     7    12   ar
     6     7     2    1
     7    16     1    1
     8    16    17    1
     9    18    17    1
    10    19    20   ar
    11    21    25    1
    12    21    22   ar
    13    24    25    1
    14    23    18   ar
    15     8     9   ar
    16     2     1   am
    17    11    10   ar
    18    11     5   ar
    19    11     6   ar
    20     5     8   ar
    21     6     9   ar
    22     7    10   ar
    23     1     3    2
    24    18    19   ar
    25    20    21   ar
    26    22    23   ar
    27     2     4    1
@<TRIPOS>MOLECULE
MolPort-007-723-351 6818230 ChemDiv-E157-4633 MCULE-6806045684 PubChem-22517937 ZINC000006818230 ZINC06818230
 25 27 0 0 0
SMALL
GASTEIGER

@<TRIPOS>ATOM
      1 C           9.7939   42.4263   10.1887 C.2     1  UNL1        0.2721
      2 N           8.6432   41.9077    9.5128 N.am    1  UNL1       -0.2597
      3 O           9.8211   43.6078   10.6229 O.2     1  UNL1       -0.2707
      4 H           8.6848   40.9675    9.2240 H       1  UNL1        0.1569
      5 C           3.9803   43.1896    9.4098 C.ar    1  UNL1        0.1643
      6 C           5.6733   44.0329    8.4970 C.ar    1  UNL1        0.2195
      7 C           7.4375   42.6213    9.2152 C.ar    1  UNL1        0.1880
      8 N           3.5719   44.2758    8.6987 N.ar    1  UNL1       -0.1310
      9 N           4.6496   44.8146    8.1137 N.ar    1  UNL1       -0.1202
     10 N           6.2316   42.2266    9.7140 N.ar    1  UNL1       -0.1400
     11 N           5.2989   43.0551    9.2748 N.ar    1  UNL1       -0.1881
     12 S           7.3225   44.0282    8.2099 S.2     1  UNL1       -0.0111
     13 C           3.1005   42.3067   10.2326 C.3     1  UNL1        0.0677
     14 C           3.8518   40.1424   11.2234 C.3     1  UNL1        0.0005
     15 C           3.3878   40.8394    9.9584 C.3     1  UNL1        0.0080
     16 C          10.9925   41.5574   10.3578 C.3     1  UNL1        0.2897
     17 O          10.6382   40.1886   10.1862 O.3     1  UNL1       -0.4656
     18 C          11.5717   39.1460   10.1921 C.ar    1  UNL1        0.1395
     19 C          11.2432   37.8587    9.7380 C.ar    1  UNL1        0.0400
     20 C          12.1986   36.8397    9.7577 C.ar    1  UNL1        0.0400
     21 C          13.4947   37.0945   10.2336 C.ar    1  UNL1        0.1389
     22 C          13.8186   38.3768   10.6885 C.ar    1  UNL1        0.0400
     23 C          12.8623   39.3964   10.6683 C.ar    1  UNL1        0.0400
     24 C          14.7430   35.2504    9.1572 C.3     1  UNL1        0.2525
     25 O          14.4736   36.0977   10.2658 O.3     1  UNL1       -0.4714
@<TRIPOS>BOND
     1    14    15    1
     2    15    13    1
     3    13     5    1
     4     6    12   ar
     5     7    12   ar
     6     7     2    1
     7    16     1    1
     8    16    17    1
     9    18    17    1
    10    19    20   ar
    11    21    25    1
    12    21    22   ar
    13    24    25    1
    14    23    18   ar
    15     8     9   ar
    16     2     1   am
    17    11    10   ar
    18    11     5   ar
    19    11     6   ar
    20     5     8   ar
    21     6     9   ar
    22     7    10   ar
    23     1     3    2
    24    18    19   ar
    25    20    21   ar
    26    22    23   ar
    27     2     4    1
@<TRIPOS>MOLECULE
MolPort-007-723-351 6818230 ChemDiv-E157-4633 MCULE-6806045684 PubChem-22517937 ZINC000006818230 ZINC06818230
 25 27 0 0 0
SMALL
GASTEIGER

@<TRIPOS>ATOM
      1 C           8.9155   41.5864    6.5563 C.2     1  UNL1        0.2721
      2 N           8.5126   42.4120    7.6545 N.am    1  UNL1       -0.2597
      3 O           8.0724   41.1089    5.7523 O.2     1  UNL1       -0.2707
      4 H           9.2295   42.7704    8.2261 H       1  UNL1        0.1569
      5 C           3.9511   42.1063    9.2340 C.ar    1  UNL1        0.1643
      6 C           5.0410   43.7160    8.4393 C.ar    1  UNL1        0.2195
      7 C           7.1700   42.7681    8.0039 C.ar    1  UNL1        0.1880
      8 N           3.1319   43.1929    9.2121 N.ar    1  UNL1       -0.1310
      9 N           3.8241   44.2208    8.7037 N.ar    1  UNL1       -0.1202
     10 N           6.3040   41.8581    8.5335 N.ar    1  UNL1       -0.1400
     11 N           5.1429   42.4533    8.7501 N.ar    1  UNL1       -0.1881
     12 S           6.4611   44.3370    7.8067 S.2     1  UNL1       -0.0111
     13 C           3.5859   40.7509    9.7442 C.3     1  UNL1        0.0677
     14 C           3.1458   41.5442   12.0695 C.3     1  UNL1        0.0005
     15 C           3.9618   40.5981   11.2090 C.3     1  UNL1        0.0080
     16 C          10.3595   41.2651    6.3777 C.3     1  UNL1        0.2897
     17 O          11.1470   41.9953    7.3133 O.3     1  UNL1       -0.4656
     18 C          11.9533   41.3856    8.2811 C.ar    1  UNL1        0.1395
     19 C          11.4168   40.8771    9.4748 C.ar    1  UNL1        0.0400
     20 C          12.2496   40.2746   10.4210 C.ar    1  UNL1        0.0400
     21 C          13.6303   40.1744   10.1861 C.ar    1  UNL1        0.1389
     22 C          14.1628   40.6845    8.9978 C.ar    1  UNL1        0.0400
     23 C          13.3290   41.2871    8.0511 C.ar    1  UNL1        0.0400
     24 C          14.2173   38.3180   11.7116 C.3     1  UNL1        0.2525
     25 O          14.4904   39.5769   11.1114 O.3     1  UNL1       -0.4714
@<TRIPOS>BOND
     1    14    15    1
     2    15    13    1
     3    13     5    1
     4     6    12   ar
     5     7    12   ar
     6     7     2    1
     7    16     1    1
     8    16    17    1
     9    18    17    1
    10    19    20   ar
    11    21    25    1
    12    21    22   ar
    13    24    25    1
    14    23    18   ar
    15     8     9   ar
    16     2     1   am
    17    11    10   ar
    18    11     5   ar
    19    11     6   ar
    20     5     8   ar
    21     6     9   ar
    22     7    10   ar
    23     1     3    2
    24    18    19   ar
    25    20    21   ar
    26    22    23   ar
    27     2     4    1
@<TRIPOS>MOLECULE
MolPort-007-723-351 6818230 ChemDiv-E157-4633 MCULE-6806045684 PubChem-22517937 ZINC000006818230 ZINC06818230
 25 27 0 0 0
SMALL
GASTEIGER

@<TRIPOS>ATOM
      1 C           8.9981   41.8475   11.3175 C.2     1  UNL1        0.2721
      2 N           7.7711   41.1233   11.1760 N.am    1  UNL1       -0.2597
      3 O           9.0715   43.0726   11.0362 O.2     1  UNL1       -0.2707
      4 H           7.7832   40.1748   11.4394 H       1  UNL1        0.1569
      5 C           4.5542   43.6815    8.6258 C.ar    1  UNL1        0.1643
      6 C           4.3038   42.2710   10.1615 C.ar    1  UNL1        0.2195
      7 C           6.5279   41.6420   10.6892 C.ar    1  UNL1        0.1880
      8 N           3.2190   43.5454    8.8520 N.ar    1  UNL1       -0.1310
      9 N           3.0565   42.6476    9.8327 N.ar    1  UNL1       -0.1202
     10 N           6.4823   42.5714    9.6929 N.ar    1  UNL1       -0.1400
     11 N           5.2174   42.8736    9.4520 N.ar    1  UNL1       -0.1881
     12 S           4.9564   41.2003   11.2707 S.2     1  UNL1       -0.0111
     13 C           5.1771   44.5694    7.5991 C.3     1  UNL1        0.0677
     14 C           6.5388   43.0839    6.1263 C.3     1  UNL1        0.0005
     15 C           6.5807   44.1018    7.2504 C.3     1  UNL1        0.0080
     16 C          10.2183   41.1297   11.7823 C.3     1  UNL1        0.2897
     17 O          10.7353   40.3087   10.7396 O.3     1  UNL1       -0.4656
     18 C          11.8118   40.6836    9.9278 C.ar    1  UNL1        0.1395
     19 C          13.1109   40.2025   10.1563 C.ar    1  UNL1        0.0400
     20 C          14.1641   40.5968    9.3273 C.ar    1  UNL1        0.0400
     21 C          13.9317   41.4788    8.2598 C.ar    1  UNL1        0.1389
     22 C          12.6374   41.9592    8.0362 C.ar    1  UNL1        0.0400
     23 C          11.5838   41.5642    8.8659 C.ar    1  UNL1        0.0400
     24 C          16.2098   42.3710    7.8966 C.3     1  UNL1        0.2525
     25 O          14.9628   41.8919    7.4118 O.3     1  UNL1       -0.4714
@<TRIPOS>BOND
     1    14    15    1
     2    15    13    1
     3    13     5    1
     4     6    12   ar
     5     7    12   ar
     6     7     2    1
     7    16     1    1
     8    16    17    1
     9    18    17    1
    10    19    20   ar
    11    21    25    1
    12    21    22   ar
    13    24    25    1
    14    23    18   ar
    15     8     9   ar
    16     2     1   am
    17    11    10   ar
    18    11     5   ar
    19    11     6   ar
    20     5     8   ar
    21     6     9   ar
    22     7    10   ar
    23     1     3    2
    24    18    19   ar
    25    20    21   ar
    26    22    23   ar
    27     2     4    1
@<TRIPOS>MOLECULE
MolPort-007-723-351 6818230 ChemDiv-E157-4633 MCULE-6806045684 PubChem-22517937 ZINC000006818230 ZINC06818230
 25 27 0 0 0
SMALL
GASTEIGER

@<TRIPOS>ATOM
      1 C           9.3344   41.1415    9.1510 C.2     1  UNL1        0.2721
      2 N           8.4468   41.5386    8.1000 N.am    1  UNL1       -0.2597
      3 O           9.1121   41.4565   10.3496 O.2     1  UNL1       -0.2707
      4 H           8.6714   41.2340    7.1911 H       1  UNL1        0.1569
      5 C           3.9194   42.8804    9.1479 C.ar    1  UNL1        0.1643
      6 C           5.5207   43.9402    8.2973 C.ar    1  UNL1        0.2195
      7 C           7.2647   42.3351    8.2397 C.ar    1  UNL1        0.1880
      8 N           3.4919   44.1475    8.8945 N.ar    1  UNL1       -0.1310
      9 N           4.5110   44.8252    8.3500 N.ar    1  UNL1       -0.1202
     10 N           6.1172   41.8244    8.7699 N.ar    1  UNL1       -0.1400
     11 N           5.1926   42.7701    8.7710 N.ar    1  UNL1       -0.1881
     12 S           7.1078   43.9951    7.7676 S.2     1  UNL1       -0.0111
     13 C           3.1053   41.7958    9.7735 C.3     1  UNL1        0.0677
     14 C           4.0117   40.2407   11.5027 C.3     1  UNL1        0.0005
     15 C           3.4549   41.6278   11.2432 C.3     1  UNL1        0.0080
     16 C          10.5590   40.3621    8.8148 C.3     1  UNL1        0.2897
     17 O          10.6616   39.2170    9.6555 O.3     1  UNL1       -0.4656
     18 C          11.8611   38.7993   10.2429 C.ar    1  UNL1        0.1395
     19 C          12.7570   39.7126   10.8214 C.ar    1  UNL1        0.0400
     20 C          13.9466   39.2626   11.3993 C.ar    1  UNL1        0.0400
     21 C          14.2566   37.8931   11.4045 C.ar    1  UNL1        0.1389
     22 C          13.3642   36.9857   10.8248 C.ar    1  UNL1        0.0400
     23 C          12.1737   37.4364   10.2468 C.ar    1  UNL1        0.0400
     24 C          16.7218   37.6950   11.4372 C.3     1  UNL1        0.2525
     25 O          15.4374   37.4104   11.9749 O.3     1  UNL1       -0.4714
@<TRIPOS>BOND
     1    14    15    1
     2    15    13    1
     3    13     5    1
     4     6    12   ar
     5     7    12   ar
     6     7     2    1
     7    16     1    1
     8    16    17    1
     9    18    17    1
    10    19    20   ar
    11    21    25    1
    12    21    22   ar
    13    24    25    1
    14    23    18   ar
    15     8     9   ar
    16     2     1   am
    17    11    10   ar
    18    11     5   ar
    19    11     6   ar
    20     5     8   ar
    21     6     9   ar
    22     7    10   ar
    23     1     3    2
    24    18    19   ar
    25    20    21   ar
    26    22    23   ar
    27     2     4    1
@<TRIPOS>MOLECULE
MolPort-007-723-351 6818230 ChemDiv-E157-4633 MCULE-6806045684 PubChem-22517937 ZINC000006818230 ZINC06818230
 25 27 0 0 0
SMALL
GASTEIGER

@<TRIPOS>ATOM
      1 C          11.4224   37.4231   10.0519 C.2     1  UNL1        0.2721
      2 N          10.4260   37.5149    9.0279 N.am    1  UNL1       -0.2597
      3 O          12.1460   38.4089   10.3517 O.2     1  UNL1       -0.2707
      4 H           9.8810   36.7111    8.8662 H       1  UNL1        0.1569
      5 C           9.4691   40.2823    5.1780 C.ar    1  UNL1        0.1643
      6 C           9.7129   40.7626    7.2079 C.ar    1  UNL1        0.2195
      7 C          10.1433   38.6602    8.2156 C.ar    1  UNL1        0.1880
      8 N           9.3043   41.6268    5.3100 N.ar    1  UNL1       -0.1310
      9 N           9.4614   41.9363    6.6037 N.ar    1  UNL1       -0.1202
     10 N           9.9548   38.5529    6.8696 N.ar    1  UNL1       -0.1400
     11 N           9.7205   39.7576    6.3765 N.ar    1  UNL1       -0.1881
     12 S          10.0142   40.2915    8.7858 S.2     1  UNL1       -0.0111
     13 C           9.3579   39.5127    3.9028 C.3     1  UNL1        0.0677
     14 C          10.1226   37.2294    3.2457 C.3     1  UNL1        0.0005
     15 C          10.5624   38.6072    3.7035 C.3     1  UNL1        0.0080
     16 C          11.6240   36.1266   10.7582 C.3     1  UNL1        0.2897
     17 O          12.7676   35.4546   10.2396 O.3     1  UNL1       -0.4656
     18 C          14.0072   36.0772   10.0543 C.ar    1  UNL1        0.1395
     19 C          14.6798   36.0304    8.8227 C.ar    1  UNL1        0.0400
     20 C          15.9165   36.6624    8.6711 C.ar    1  UNL1        0.0400
     21 C          16.4974   37.3480    9.7499 C.ar    1  UNL1        0.1389
     22 C          15.8270   37.3904   10.9766 C.ar    1  UNL1        0.0400
     23 C          14.5893   36.7582   11.1279 C.ar    1  UNL1        0.0400
     24 C          18.0679   39.1525   10.3781 C.3     1  UNL1        0.2525
     25 O          17.7323   37.9911    9.6310 O.3     1  UNL1       -0.4714
@<TRIPOS>BOND
     1    14    15    1
     2    15    13    1
     3    13     5    1
     4     6    12   ar
     5     7    12   ar
     6     7     2    1
     7    16     1    1
     8    16    17    1
     9    18    17    1
    10    19    20   ar
    11    21    25    1
    12    21    22   ar
    13    24    25    1
    14    23    18   ar
    15     8     9   ar
    16     2     1   am
    17    11    10   ar
    18    11     5   ar
    19    11     6   ar
    20     5     8   ar
    21     6     9   ar
    22     7    10   ar
    23     1     3    2
    24    18    19   ar
    25    20    21   ar
    26    22    23   ar
    27     2     4    1
@<TRIPOS>MOLECULE
MolPort-007-723-351 6818230 ChemDiv-E157-4633 MCULE-6806045684 PubChem-22517937 ZINC000006818230 ZINC06818230
 25 27 0 0 0
SMALL
GASTEIGER

@<TRIPOS>ATOM
      1 C           9.2835   41.0477    8.9922 C.2     1  UNL1        0.2721
      2 N           8.2696   41.2654    8.0051 N.am    1  UNL1       -0.2597
      3 O           9.2456   41.6283   10.1088 O.2     1  UNL1       -0.2707
      4 H           8.3515   40.7573    7.1658 H       1  UNL1        0.1569
      5 C           3.9170   43.0247    9.1695 C.ar    1  UNL1        0.1643
      6 C           5.5063   43.8591    8.0793 C.ar    1  UNL1        0.2195
      7 C           7.1480   42.1490    8.1175 C.ar    1  UNL1        0.1880
      8 N           3.5434   44.2740    8.7796 N.ar    1  UNL1       -0.1310
      9 N           4.5547   44.8079    8.0822 N.ar    1  UNL1       -0.1202
     10 N           6.0171   41.7870    8.7872 N.ar    1  UNL1       -0.1400
     11 N           5.1498   42.7836    8.7253 N.ar    1  UNL1       -0.1881
     12 S           7.0494   43.7413    7.4408 S.2     1  UNL1       -0.0111
     13 C           3.0930   42.0852    9.9873 C.3     1  UNL1        0.0677
     14 C           4.0684   40.3595   11.5041 C.3     1  UNL1        0.0005
     15 C           3.7354   41.8305   11.3412 C.3     1  UNL1        0.0080
     16 C          10.4197   40.1354    8.6807 C.3     1  UNL1        0.2897
     17 O          11.0185   40.4984    7.4405 O.3     1  UNL1       -0.4656
     18 C          12.2596   41.1378    7.3438 C.ar    1  UNL1        0.1395
     19 C          13.3303   40.8024    8.1878 C.ar    1  UNL1        0.0400
     20 C          14.5566   41.4604    8.0654 C.ar    1  UNL1        0.0400
     21 C          14.7274   42.4638    7.0983 C.ar    1  UNL1        0.1389
     22 C          13.6584   42.7984    6.2609 C.ar    1  UNL1        0.0400
     23 C          12.4315   42.1395    6.3834 C.ar    1  UNL1        0.0400
     24 C          16.2147   43.9917    5.8449 C.3     1  UNL1        0.2525
     25 O          15.9410   43.1404    6.9495 O.3     1  UNL1       -0.4714
@<TRIPOS>BOND
     1    14    15    1
     2    15    13    1
     3    13     5    1
     4     6    12   ar
     5     7    12   ar
     6     7     2    1
     7    16     1    1
     8    16    17    1
     9    18    17    1
    10    19    20   ar
    11    21    25    1
    12    21    22   ar
    13    24    25    1
    14    23    18   ar
    15     8     9   ar
    16     2     1   am
    17    11    10   ar
    18    11     5   ar
    19    11     6   ar
    20     5     8   ar
    21     6     9   ar
    22     7    10   ar
    23     1     3    2
    24    18    19   ar
    25    20    21   ar
    26    22    23   ar
    27     2     4    1
