@<TRIPOS>MOLECULE
MolPort-007-714-480 ChemDiv-E002-1797 MCULE-9825008472 PubChem-22510800 ZINC000006792409 ZINC06792409
 28 29 0 0 0
SMALL
GASTEIGER

@<TRIPOS>ATOM
      1 C           7.0082   41.8696    7.4978 C.ar    1  UNL1        0.1868
      2 C           9.0735   41.7388    6.2962 C.ar    1  UNL1        0.1904
      3 N           6.9013   41.2008    6.3267 N.ar    1  UNL1       -0.1242
      4 N           8.0507   41.1281    5.6578 N.ar    1  UNL1       -0.1240
      5 S           8.5865   42.4143    7.7578 S.2     1  UNL1       -0.0154
      6 C          11.5662   42.1353    6.5740 C.2     1  UNL1        0.3096
      7 N          10.4121   41.8054    5.7949 N.am    1  UNL1       -0.2468
      8 N          12.8472   42.1626    5.9318 N.am    1  UNL1       -0.2679
      9 O          11.4548   42.3968    7.8021 O.2     1  UNL1       -0.2521
     10 H          10.5497   41.6090    4.8401 H       1  UNL1        0.1584
     11 H          12.8627   41.9483    4.9710 H       1  UNL1        0.1564
     12 C          14.1090   42.4690    6.5411 C.ar    1  UNL1        0.0538
     13 C          14.6351   41.6989    7.5893 C.ar    1  UNL1        0.0145
     14 C          15.8683   42.0281    8.1584 C.ar    1  UNL1       -0.0008
     15 C          16.5868   43.1295    7.6854 C.ar    1  UNL1        0.0057
     16 C          17.8988   43.4667    8.3024 C.3     1  UNL1        0.0334
     17 C          16.0671   43.9034    6.6383 C.ar    1  UNL1        0.1374
     18 C          14.8327   43.5703    6.0719 C.ar    1  UNL1        0.0440
     19 F          16.7500   44.9760    6.1660 F       1  UNL1       -0.2045
     20 N           5.9060   42.0739    8.3955 N.pl3   1  UNL1       -0.2868
     21 C           5.0322   40.9586    8.7433 C.3     1  UNL1        0.0926
     22 C           2.6417   41.1898    9.4012 C.3     1  UNL1        0.0018
     23 C           4.0782   41.3401    9.8636 C.3     1  UNL1        0.0198
     24 C           4.3148   40.4333   11.0522 C.3     1  UNL1        0.0018
     25 C           5.7775   43.3228    9.1415 C.3     1  UNL1        0.0926
     26 C           5.2697   44.4468    8.2493 C.3     1  UNL1        0.0198
     27 C           3.7560   44.4473    8.2602 C.3     1  UNL1        0.0018
     28 C           5.7552   44.2545    6.8267 C.3     1  UNL1        0.0018
@<TRIPOS>BOND
     1    22    23    1
     2    23    24    1
     3    23    21    1
     4    21    20    1
     5    25    20    1
     6    25    26    1
     7    26    27    1
     8    26    28    1
     9     1     5   ar
    10     2     7    1
    11     2     5   ar
    12     6     8   am
    13    13    14   ar
    14    15    17   ar
    15    16    15    1
    16    17    19    1
    17    18    12   ar
    18    20     1    1
    19     3     4   ar
    20     7     6   am
    21     8    12    1
    22     1     3   ar
    23     2     4   ar
    24     6     9    2
    25    12    13   ar
    26    14    15   ar
    27    17    18   ar
    28     7    10    1
    29     8    11    1
@<TRIPOS>MOLECULE
MolPort-007-714-480 ChemDiv-E002-1797 MCULE-9825008472 PubChem-22510800 ZINC000006792409 ZINC06792409
 28 29 0 0 0
SMALL
GASTEIGER

@<TRIPOS>ATOM
      1 C           6.9831   41.8228    7.8059 C.ar    1  UNL1        0.1868
      2 C           9.0013   41.7553    6.5218 C.ar    1  UNL1        0.1904
      3 N           6.8404   41.1819    6.6230 N.ar    1  UNL1       -0.1242
      4 N           7.9635   41.1444    5.9082 N.ar    1  UNL1       -0.1240
      5 S           8.5621   42.3861    8.0181 S.2     1  UNL1       -0.0154
      6 C          11.5017   42.1521    6.7182 C.2     1  UNL1        0.3096
      7 N          10.3180   41.8559    5.9706 N.am    1  UNL1       -0.2468
      8 N          12.7553   42.2203    6.0267 N.am    1  UNL1       -0.2679
      9 O          11.4396   42.3490    7.9618 O.2     1  UNL1       -0.2521
     10 H          10.4172   41.7101    5.0020 H       1  UNL1        0.1584
     11 H          12.7323   42.0563    5.0563 H       1  UNL1        0.1564
     12 C          14.0397   42.5024    6.5993 C.ar    1  UNL1        0.0538
     13 C          14.6024   41.6937    7.5981 C.ar    1  UNL1        0.0145
     14 C          15.8568   42.0000    8.1325 C.ar    1  UNL1       -0.0008
     15 C          16.5602   43.1171    7.6738 C.ar    1  UNL1        0.0057
     16 C          17.8952   43.4298    8.2534 C.3     1  UNL1        0.0334
     17 C          16.0039   43.9298    6.6760 C.ar    1  UNL1        0.1374
     18 C          14.7483   43.6193    6.1442 C.ar    1  UNL1        0.0440
     19 F          16.6715   45.0182    6.2183 F       1  UNL1       -0.2045
     20 N           5.9141   41.9868    8.7507 N.pl3   1  UNL1       -0.2868
     21 C           5.4376   43.3238    9.0879 C.3     1  UNL1        0.0926
     22 C           3.6585   44.7526    8.0905 C.3     1  UNL1        0.0018
     23 C           4.9931   44.0759    7.8438 C.3     1  UNL1        0.0198
     24 C           6.0266   45.1266    7.4991 C.3     1  UNL1        0.0018
     25 C           5.1453   40.8332    9.2098 C.3     1  UNL1        0.0926
     26 C           4.0405   41.2546   10.1685 C.3     1  UNL1        0.0198
     27 C           4.0355   40.3256   11.3635 C.3     1  UNL1        0.0018
     28 C           2.6905   41.1882    9.4831 C.3     1  UNL1        0.0018
@<TRIPOS>BOND
     1    22    23    1
     2    23    24    1
     3    23    21    1
     4    21    20    1
     5    25    20    1
     6    25    26    1
     7    26    27    1
     8    26    28    1
     9     1     5   ar
    10     2     7    1
    11     2     5   ar
    12     6     8   am
    13    13    14   ar
    14    15    17   ar
    15    16    15    1
    16    17    19    1
    17    18    12   ar
    18    20     1    1
    19     3     4   ar
    20     7     6   am
    21     8    12    1
    22     1     3   ar
    23     2     4   ar
    24     6     9    2
    25    12    13   ar
    26    14    15   ar
    27    17    18   ar
    28     7    10    1
    29     8    11    1
@<TRIPOS>MOLECULE
MolPort-007-714-480 ChemDiv-E002-1797 MCULE-9825008472 PubChem-22510800 ZINC000006792409 ZINC06792409
 28 29 0 0 0
SMALL
GASTEIGER

@<TRIPOS>ATOM
      1 C           7.7396   41.6420    7.8665 C.ar    1  UNL1        0.1868
      2 C           9.6560   41.7838    6.4403 C.ar    1  UNL1        0.1904
      3 N           7.5538   41.0494    6.6646 N.ar    1  UNL1       -0.1242
      4 N           8.6202   41.1284    5.8708 N.ar    1  UNL1       -0.1240
      5 S           9.2869   42.3089    7.9953 S.2     1  UNL1       -0.0154
      6 C          12.1186   42.4021    6.4729 C.2     1  UNL1        0.3096
      7 N          10.9175   42.0068    5.8029 N.am    1  UNL1       -0.2468
      8 N          13.3107   42.5883    5.6994 N.am    1  UNL1       -0.2679
      9 O          12.1246   42.5825    7.7205 O.2     1  UNL1       -0.2521
     10 H          10.9627   41.8784    4.8278 H       1  UNL1        0.1584
     11 H          13.2359   42.4307    4.7304 H       1  UNL1        0.1564
     12 C          14.6011   42.9800    6.1878 C.ar    1  UNL1        0.0538
     13 C          15.3221   44.0395    5.6167 C.ar    1  UNL1        0.0145
     14 C          16.5772   44.3927    6.1198 C.ar    1  UNL1       -0.0008
     15 C          17.1231   43.6906    7.1978 C.ar    1  UNL1        0.0057
     16 C          18.4610   44.0793    7.7218 C.3     1  UNL1        0.0334
     17 C          16.4082   42.6307    7.7733 C.ar    1  UNL1        0.1374
     18 C          15.1526   42.2808    7.2665 C.ar    1  UNL1        0.0440
     19 F          16.9218   41.9377    8.8200 F       1  UNL1       -0.2045
     20 N           6.7354   41.6821    8.8924 N.pl3   1  UNL1       -0.2868
     21 C           5.3567   42.0145    8.5507 C.3     1  UNL1        0.0926
     22 C           3.8840   44.0204    8.6451 C.3     1  UNL1        0.0018
     23 C           5.2238   43.4828    8.1802 C.3     1  UNL1        0.0198
     24 C           6.3326   44.2688    8.8465 C.3     1  UNL1        0.0018
     25 C           7.0224   41.1776   10.2325 C.3     1  UNL1        0.0926
     26 C           8.2121   41.8997   10.8491 C.3     1  UNL1        0.0198
     27 C           9.3416   40.9137   11.0565 C.3     1  UNL1        0.0018
     28 C           7.8304   42.5046   12.1851 C.3     1  UNL1        0.0018
@<TRIPOS>BOND
     1    22    23    1
     2    23    24    1
     3    23    21    1
     4    21    20    1
     5    25    20    1
     6    25    26    1
     7    26    27    1
     8    26    28    1
     9     1     5   ar
    10     2     7    1
    11     2     5   ar
    12     6     8   am
    13    13    14   ar
    14    15    17   ar
    15    16    15    1
    16    17    19    1
    17    18    12   ar
    18    20     1    1
    19     3     4   ar
    20     7     6   am
    21     8    12    1
    22     1     3   ar
    23     2     4   ar
    24     6     9    2
    25    12    13   ar
    26    14    15   ar
    27    17    18   ar
    28     7    10    1
    29     8    11    1
@<TRIPOS>MOLECULE
MolPort-007-714-480 ChemDiv-E002-1797 MCULE-9825008472 PubChem-22510800 ZINC000006792409 ZINC06792409
 28 29 0 0 0
SMALL
GASTEIGER

@<TRIPOS>ATOM
      1 C           7.1238   41.6092    9.8408 C.ar    1  UNL1        0.1868
      2 C           9.3749   41.0867    9.2193 C.ar    1  UNL1        0.1904
      3 N           8.0005   41.7305   10.8641 N.ar    1  UNL1       -0.1242
      4 N           9.2532   41.4396   10.5183 N.ar    1  UNL1       -0.1240
      5 S           7.8955   41.1205    8.4192 S.2     1  UNL1       -0.0154
      6 C          11.7708   41.5622    8.5255 C.2     1  UNL1        0.3096
      7 N          10.6106   40.7274    8.5936 N.am    1  UNL1       -0.2468
      8 N          12.9407   41.0649    7.8636 N.am    1  UNL1       -0.2679
      9 O          11.7608   42.7134    9.0392 O.2     1  UNL1       -0.2521
     10 H          10.6669   39.8368    8.1778 H       1  UNL1        0.1584
     11 H          12.8803   40.1582    7.4848 H       1  UNL1        0.1564
     12 C          14.1901   41.7487    7.6946 C.ar    1  UNL1        0.0538
     13 C          14.3784   42.7182    6.6981 C.ar    1  UNL1        0.0145
     14 C          15.6104   43.3639    6.5638 C.ar    1  UNL1       -0.0008
     15 C          16.6654   43.0466    7.4237 C.ar    1  UNL1        0.0057
     16 C          17.9715   43.7434    7.2673 C.3     1  UNL1        0.0334
     17 C          16.4844   42.0787    8.4217 C.ar    1  UNL1        0.1374
     18 C          15.2497   41.4353    8.5524 C.ar    1  UNL1        0.0440
     19 F          17.4966   41.7575    9.2655 F       1  UNL1       -0.2045
     20 N           5.7180   41.8738    9.9680 N.pl3   1  UNL1       -0.2868
     21 C           5.1015   41.9219   11.2893 C.3     1  UNL1        0.0926
     22 C           2.6257   42.0956   11.4924 C.3     1  UNL1        0.0018
     23 C           3.7944   41.1462   11.3115 C.3     1  UNL1        0.0198
     24 C           3.6322   40.4025   10.0032 C.3     1  UNL1        0.0018
     25 C           4.9387   42.3176    8.8154 C.3     1  UNL1        0.0926
     26 C           5.0466   43.8242    8.6256 C.3     1  UNL1        0.0198
     27 C           3.6606   44.4049    8.4447 C.3     1  UNL1        0.0018
     28 C           5.8824   44.1456    7.4030 C.3     1  UNL1        0.0018
@<TRIPOS>BOND
     1    22    23    1
     2    23    24    1
     3    23    21    1
     4    21    20    1
     5    25    20    1
     6    25    26    1
     7    26    27    1
     8    26    28    1
     9     1     5   ar
    10     2     7    1
    11     2     5   ar
    12     6     8   am
    13    13    14   ar
    14    15    17   ar
    15    16    15    1
    16    17    19    1
    17    18    12   ar
    18    20     1    1
    19     3     4   ar
    20     7     6   am
    21     8    12    1
    22     1     3   ar
    23     2     4   ar
    24     6     9    2
    25    12    13   ar
    26    14    15   ar
    27    17    18   ar
    28     7    10    1
    29     8    11    1
@<TRIPOS>MOLECULE
MolPort-007-714-480 ChemDiv-E002-1797 MCULE-9825008472 PubChem-22510800 ZINC000006792409 ZINC06792409
 28 29 0 0 0
SMALL
GASTEIGER

@<TRIPOS>ATOM
      1 C           7.1641   41.7516   10.0080 C.ar    1  UNL1        0.1868
      2 C           9.3941   41.0921    9.4431 C.ar    1  UNL1        0.1904
      3 N           7.9665   41.6078   11.0878 N.ar    1  UNL1       -0.1242
      4 N           9.2074   41.2406   10.7735 N.ar    1  UNL1       -0.1240
      5 S           7.9918   41.4183    8.5730 S.2     1  UNL1       -0.0154
      6 C          11.7572   41.5689    8.6454 C.2     1  UNL1        0.3096
      7 N          10.6331   40.7052    8.8409 N.am    1  UNL1       -0.2468
      8 N          12.9354   41.0381    8.0257 N.am    1  UNL1       -0.2679
      9 O          11.7087   42.7740    9.0125 O.2     1  UNL1       -0.2521
     10 H          10.7188   39.7726    8.5375 H       1  UNL1        0.1584
     11 H          12.9058   40.0896    7.7636 H       1  UNL1        0.1564
     12 C          14.1531   41.7429    7.7470 C.ar    1  UNL1        0.0538
     13 C          14.2363   42.7131    6.7370 C.ar    1  UNL1        0.0145
     14 C          15.4404   43.3796    6.4943 C.ar    1  UNL1       -0.0008
     15 C          16.5722   43.0825    7.2584 C.ar    1  UNL1        0.0057
     16 C          17.8473   43.8013    6.9872 C.3     1  UNL1        0.0334
     17 C          16.4964   42.1140    8.2692 C.ar    1  UNL1        0.1374
     18 C          15.2893   41.4497    8.5086 C.ar    1  UNL1        0.0440
     19 F          17.5843   41.8123    9.0211 F       1  UNL1       -0.2045
     20 N           5.7857   42.1454   10.0936 N.pl3   1  UNL1       -0.2868
     21 C           5.0372   42.4491    8.8788 C.3     1  UNL1        0.0926
     22 C           5.8536   44.2860    7.4089 C.3     1  UNL1        0.0018
     23 C           5.0028   43.9462    8.6176 C.3     1  UNL1        0.0198
     24 C           3.5750   44.3754    8.3564 C.3     1  UNL1        0.0018
     25 C           5.0574   42.0299   11.3542 C.3     1  UNL1        0.0926
     26 C           3.8082   41.1753   11.1914 C.3     1  UNL1        0.0198
     27 C           3.8165   40.5356    9.8196 C.3     1  UNL1        0.0018
     28 C           2.5621   42.0257   11.3345 C.3     1  UNL1        0.0018
@<TRIPOS>BOND
     1    22    23    1
     2    23    24    1
     3    23    21    1
     4    21    20    1
     5    25    20    1
     6    25    26    1
     7    26    27    1
     8    26    28    1
     9     1     5   ar
    10     2     7    1
    11     2     5   ar
    12     6     8   am
    13    13    14   ar
    14    15    17   ar
    15    16    15    1
    16    17    19    1
    17    18    12   ar
    18    20     1    1
    19     3     4   ar
    20     7     6   am
    21     8    12    1
    22     1     3   ar
    23     2     4   ar
    24     6     9    2
    25    12    13   ar
    26    14    15   ar
    27    17    18   ar
    28     7    10    1
    29     8    11    1
@<TRIPOS>MOLECULE
MolPort-007-714-480 ChemDiv-E002-1797 MCULE-9825008472 PubChem-22510800 ZINC000006792409 ZINC06792409
 28 29 0 0 0
SMALL
GASTEIGER

@<TRIPOS>ATOM
      1 C          13.8731   41.9242    7.8971 C.ar    1  UNL1        0.1868
      2 C          12.1179   41.3974    9.4360 C.ar    1  UNL1        0.1904
      3 N          13.9909   40.6891    8.4366 N.ar    1  UNL1       -0.1242
      4 N          13.0142   40.3960    9.2931 N.ar    1  UNL1       -0.1240
      5 S          12.5058   42.7271    8.4813 S.2     1  UNL1       -0.0154
      6 C           9.6217   41.5501    9.8761 C.2     1  UNL1        0.3096
      7 N          10.9740   41.3396   10.2938 N.am    1  UNL1       -0.2468
      8 N           8.5761   41.4598   10.8522 N.am    1  UNL1       -0.2679
      9 O           9.3582   41.8102    8.6710 O.2     1  UNL1       -0.2521
     10 H          11.1295   41.1394   11.2451 H       1  UNL1        0.1584
     11 H           8.8516   41.2537   11.7746 H       1  UNL1        0.1564
     12 C           7.1709   41.6381   10.6270 C.ar    1  UNL1        0.0538
     13 C           6.2054   41.1074   11.4957 C.ar    1  UNL1        0.0145
     14 C           4.8446   41.3018   11.2439 C.ar    1  UNL1       -0.0008
     15 C           4.4363   42.0280   10.1219 C.ar    1  UNL1        0.0057
     16 C           2.9829   42.2260    9.8678 C.3     1  UNL1        0.0334
     17 C           5.3956   42.5611    9.2495 C.ar    1  UNL1        0.1374
     18 C           6.7562   42.3641    9.5056 C.ar    1  UNL1        0.0440
     19 F           5.0183   43.2687    8.1555 F       1  UNL1       -0.2045
     20 N          14.8025   42.4630    6.9440 N.pl3   1  UNL1       -0.2868
     21 C          16.2377   42.3364    7.1730 C.3     1  UNL1        0.0926
     22 C          17.3166   41.3665    9.1969 C.3     1  UNL1        0.0018
     23 C          16.5807   42.5679    8.6357 C.3     1  UNL1        0.0198
     24 C          17.4638   43.7913    8.7544 C.3     1  UNL1        0.0018
     25 C          14.3404   42.9358    5.6418 C.3     1  UNL1        0.0926
     26 C          15.1293   44.1560    5.1879 C.3     1  UNL1        0.0198
     27 C          16.6075   43.8315    5.2113 C.3     1  UNL1        0.0018
     28 C          14.8648   45.3303    6.1084 C.3     1  UNL1        0.0018
@<TRIPOS>BOND
     1    22    23    1
     2    23    24    1
     3    23    21    1
     4    21    20    1
     5    25    20    1
     6    25    26    1
     7    26    27    1
     8    26    28    1
     9     1     5   ar
    10     2     7    1
    11     2     5   ar
    12     6     8   am
    13    13    14   ar
    14    15    17   ar
    15    16    15    1
    16    17    19    1
    17    18    12   ar
    18    20     1    1
    19     3     4   ar
    20     7     6   am
    21     8    12    1
    22     1     3   ar
    23     2     4   ar
    24     6     9    2
    25    12    13   ar
    26    14    15   ar
    27    17    18   ar
    28     7    10    1
    29     8    11    1
@<TRIPOS>MOLECULE
MolPort-007-714-480 ChemDiv-E002-1797 MCULE-9825008472 PubChem-22510800 ZINC000006792409 ZINC06792409
 28 29 0 0 0
SMALL
GASTEIGER

@<TRIPOS>ATOM
      1 C           6.6382   41.8044   10.4313 C.ar    1  UNL1        0.1868
      2 C           8.8461   41.4658   11.2899 C.ar    1  UNL1        0.1904
      3 N           6.6626   41.5845   11.7660 N.ar    1  UNL1       -0.1242
      4 N           7.8913   41.3959   12.2438 N.ar    1  UNL1       -0.1240
      5 S           8.1931   41.7729    9.7703 S.2     1  UNL1       -0.0154
      6 C          11.0825   40.3267   10.9040 C.2     1  UNL1        0.3096
      7 N          10.2459   41.3002   11.5365 N.am    1  UNL1       -0.2468
      8 N          12.4717   40.2796   11.2532 N.am    1  UNL1       -0.2679
      9 O          10.6033   39.5266   10.0558 O.2     1  UNL1       -0.2521
     10 H          10.6659   41.9028   12.1920 H       1  UNL1        0.1584
     11 H          12.7799   40.9328   11.9223 H       1  UNL1        0.1564
     12 C          13.4605   39.3814   10.7310 C.ar    1  UNL1        0.0538
     13 C          14.5820   39.8399   10.0237 C.ar    1  UNL1        0.0145
     14 C          15.5249   38.9344    9.5296 C.ar    1  UNL1       -0.0008
     15 C          15.3556   37.5629    9.7376 C.ar    1  UNL1        0.0057
     16 C          16.3689   36.6115    9.2048 C.3     1  UNL1        0.0334
     17 C          14.2371   37.0977   10.4435 C.ar    1  UNL1        0.1374
     18 C          13.2963   38.0075   10.9361 C.ar    1  UNL1        0.0440
     19 F          14.0559   35.7702   10.6553 F       1  UNL1       -0.2045
     20 N           5.4307   42.0390    9.6901 N.pl3   1  UNL1       -0.2868
     21 C           4.5973   40.9145    9.2789 C.3     1  UNL1        0.0926
     22 C           3.8709   39.9867   11.4727 C.3     1  UNL1        0.0018
     23 C           3.4240   40.7278   10.2273 C.3     1  UNL1        0.0198
     24 C           2.8813   42.0838   10.6241 C.3     1  UNL1        0.0018
     25 C           4.9057   43.3929    9.5354 C.3     1  UNL1        0.0926
     26 C           5.1434   43.9174    8.1262 C.3     1  UNL1        0.0198
     27 C           6.4672   44.6501    8.0832 C.3     1  UNL1        0.0018
     28 C           4.0362   44.8696    7.7215 C.3     1  UNL1        0.0018
@<TRIPOS>BOND
     1    22    23    1
     2    23    24    1
     3    23    21    1
     4    21    20    1
     5    25    20    1
     6    25    26    1
     7    26    27    1
     8    26    28    1
     9     1     5   ar
    10     2     7    1
    11     2     5   ar
    12     6     8   am
    13    13    14   ar
    14    15    17   ar
    15    16    15    1
    16    17    19    1
    17    18    12   ar
    18    20     1    1
    19     3     4   ar
    20     7     6   am
    21     8    12    1
    22     1     3   ar
    23     2     4   ar
    24     6     9    2
    25    12    13   ar
    26    14    15   ar
    27    17    18   ar
    28     7    10    1
    29     8    11    1
@<TRIPOS>MOLECULE
MolPort-007-714-480 ChemDiv-E002-1797 MCULE-9825008472 PubChem-22510800 ZINC000006792409 ZINC06792409
 28 29 0 0 0
SMALL
GASTEIGER

@<TRIPOS>ATOM
      1 C           7.4041   41.3563    8.3641 C.ar    1  UNL1        0.1868
      2 C           9.2899   41.4962    6.8975 C.ar    1  UNL1        0.1904
      3 N           7.4950   40.3091    7.5124 N.ar    1  UNL1       -0.1242
      4 N           8.5444   40.3870    6.6961 N.ar    1  UNL1       -0.1240
      5 S           8.6654   42.4562    8.1297 S.2     1  UNL1       -0.0154
      6 C          11.7169   42.2240    6.7303 C.2     1  UNL1        0.3096
      7 N          10.4699   41.8203    6.1559 N.am    1  UNL1       -0.2468
      8 N          12.8154   42.5175    5.8578 N.am    1  UNL1       -0.2679
      9 O          11.8434   42.3189    7.9810 O.2     1  UNL1       -0.2521
     10 H          10.4201   41.7610    5.1745 H       1  UNL1        0.1584
     11 H          12.6481   42.4232    4.8922 H       1  UNL1        0.1564
     12 C          14.1327   42.9342    6.2429 C.ar    1  UNL1        0.0538
     13 C          14.7571   44.0512    5.6677 C.ar    1  UNL1        0.0145
     14 C          16.0420   44.4272    6.0684 C.ar    1  UNL1       -0.0008
     15 C          16.7145   43.6907    7.0473 C.ar    1  UNL1        0.0057
     16 C          18.0827   44.1044    7.4631 C.3     1  UNL1        0.0334
     17 C          16.0966   42.5733    7.6263 C.ar    1  UNL1        0.1374
     18 C          14.8107   42.2008    7.2222 C.ar    1  UNL1        0.0440
     19 F          16.7336   41.8462    8.5778 F       1  UNL1       -0.2045
     20 N           6.3608   41.4928    9.3415 N.pl3   1  UNL1       -0.2868
     21 C           6.6515   42.0905   10.6401 C.3     1  UNL1        0.0926
     22 C           8.8542   42.9350   11.4377 C.3     1  UNL1        0.0018
     23 C           8.0370   41.6962   11.1257 C.3     1  UNL1        0.0198
     24 C           7.9074   40.8579   12.3793 C.3     1  UNL1        0.0018
     25 C           4.9670   41.2510    8.9785 C.3     1  UNL1        0.0926
     26 C           4.0359   42.2181    9.6963 C.3     1  UNL1        0.0198
     27 C           2.6701   41.5818    9.8401 C.3     1  UNL1        0.0018
     28 C           3.9023   43.5068    8.9103 C.3     1  UNL1        0.0018
@<TRIPOS>BOND
     1    22    23    1
     2    23    24    1
     3    23    21    1
     4    21    20    1
     5    25    20    1
     6    25    26    1
     7    26    27    1
     8    26    28    1
     9     1     5   ar
    10     2     7    1
    11     2     5   ar
    12     6     8   am
    13    13    14   ar
    14    15    17   ar
    15    16    15    1
    16    17    19    1
    17    18    12   ar
    18    20     1    1
    19     3     4   ar
    20     7     6   am
    21     8    12    1
    22     1     3   ar
    23     2     4   ar
    24     6     9    2
    25    12    13   ar
    26    14    15   ar
    27    17    18   ar
    28     7    10    1
    29     8    11    1
@<TRIPOS>MOLECULE
MolPort-007-714-480 ChemDiv-E002-1797 MCULE-9825008472 PubChem-22510800 ZINC000006792409 ZINC06792409
 28 29 0 0 0
SMALL
GASTEIGER

@<TRIPOS>ATOM
      1 C           6.9922   41.8327    9.7373 C.ar    1  UNL1        0.1868
      2 C           9.2494   41.1688    9.3005 C.ar    1  UNL1        0.1904
      3 N           7.8334   42.0987   10.7630 N.ar    1  UNL1       -0.1242
      4 N           9.0896   41.7291   10.5200 N.ar    1  UNL1       -0.1240
      5 S           7.8023   41.1048    8.4452 S.2     1  UNL1       -0.0154
      6 C          11.6986   41.4583    8.6956 C.2     1  UNL1        0.3096
      7 N          10.4971   40.6870    8.7917 N.am    1  UNL1       -0.2468
      8 N          12.8757   40.8381    8.1628 N.am    1  UNL1       -0.2679
      9 O          11.7180   42.6609    9.0733 O.2     1  UNL1       -0.2521
     10 H          10.5315   39.7525    8.4840 H       1  UNL1        0.1584
     11 H          12.7910   39.8968    7.8870 H       1  UNL1        0.1564
     12 C          14.1641   41.4439    7.9890 C.ar    1  UNL1        0.0538
     13 C          15.2519   41.1284    8.8169 C.ar    1  UNL1        0.0145
     14 C          16.4929   41.7392    8.6171 C.ar    1  UNL1       -0.0008
     15 C          16.6580   42.6708    7.5885 C.ar    1  UNL1        0.0057
     16 C          17.9862   43.3125    7.3890 C.3     1  UNL1        0.0334
     17 C          15.5752   42.9909    6.7575 C.ar    1  UNL1        0.1374
     18 C          14.3353   42.3771    6.9611 C.ar    1  UNL1        0.0440
     19 F          15.7164   43.8926    5.7540 F       1  UNL1       -0.2045
     20 N           5.5906   42.1444    9.7626 N.pl3   1  UNL1       -0.2868
     21 C           4.8808   42.2097   11.0355 C.3     1  UNL1        0.0926
     22 C           3.1677   41.1605    9.5639 C.3     1  UNL1        0.0018
     23 C           3.6128   41.3722   10.9982 C.3     1  UNL1        0.0198
     24 C           3.8829   40.0274   11.6380 C.3     1  UNL1        0.0018
     25 C           4.9132   42.6176    8.5584 C.3     1  UNL1        0.0926
     26 C           5.2828   44.0619    8.2510 C.3     1  UNL1        0.0198
     27 C           4.0227   44.8481    7.9590 C.3     1  UNL1        0.0018
     28 C           6.1996   44.1293    7.0462 C.3     1  UNL1        0.0018
@<TRIPOS>BOND
     1    22    23    1
     2    23    24    1
     3    23    21    1
     4    21    20    1
     5    25    20    1
     6    25    26    1
     7    26    27    1
     8    26    28    1
     9     1     5   ar
    10     2     7    1
    11     2     5   ar
    12     6     8   am
    13    13    14   ar
    14    15    17   ar
    15    16    15    1
    16    17    19    1
    17    18    12   ar
    18    20     1    1
    19     3     4   ar
    20     7     6   am
    21     8    12    1
    22     1     3   ar
    23     2     4   ar
    24     6     9    2
    25    12    13   ar
    26    14    15   ar
    27    17    18   ar
    28     7    10    1
    29     8    11    1
@<TRIPOS>MOLECULE
MolPort-007-714-480 ChemDiv-E002-1797 MCULE-9825008472 PubChem-22510800 ZINC000006792409 ZINC06792409
 28 29 0 0 0
SMALL
GASTEIGER

@<TRIPOS>ATOM
      1 C           6.7416   41.6645    9.3174 C.ar    1  UNL1        0.1868
      2 C           9.0103   41.0483    8.8701 C.ar    1  UNL1        0.1904
      3 N           7.5400   41.7458   10.4065 N.ar    1  UNL1       -0.1242
      4 N           8.8025   41.4027   10.1577 N.ar    1  UNL1       -0.1240
      5 S           7.6007   41.1470    7.9574 S.2     1  UNL1       -0.0154
      6 C          11.4783   41.4108    8.3951 C.2     1  UNL1        0.3096
      7 N          10.2748   40.6384    8.3406 N.am    1  UNL1       -0.2468
      8 N          12.6733   40.8675    7.8198 N.am    1  UNL1       -0.2679
      9 O          11.4838   42.5477    8.9397 O.2     1  UNL1       -0.2521
     10 H          10.3205   39.7567    7.9051 H       1  UNL1        0.1584
     11 H          12.5987   39.9751    7.4109 H       1  UNL1        0.1564
     12 C          13.9663   41.4867    7.7770 C.ar    1  UNL1        0.0538
     13 C          14.9982   41.1150    8.6519 C.ar    1  UNL1        0.0145
     14 C          16.2456   41.7409    8.5803 C.ar    1  UNL1       -0.0008
     15 C          16.4731   42.7440    7.6342 C.ar    1  UNL1        0.0057
     16 C          17.8074   43.4009    7.5710 C.3     1  UNL1        0.0334
     17 C          15.4465   43.1206    6.7568 C.ar    1  UNL1        0.1374
     18 C          14.1999   42.4913    6.8320 C.ar    1  UNL1        0.0440
     19 F          15.6487   44.0920    5.8320 F       1  UNL1       -0.2045
     20 N           5.3426   41.9883    9.3361 N.pl3   1  UNL1       -0.2868
     21 C           4.9173   43.3832    9.3778 C.3     1  UNL1        0.0926
     22 C           3.9993   45.0029    7.7241 C.3     1  UNL1        0.0018
     23 C           5.1492   44.0658    8.0395 C.3     1  UNL1        0.0198
     24 C           6.4356   44.8611    8.1003 C.3     1  UNL1        0.0018
     25 C           4.3384   40.9575    9.0874 C.3     1  UNL1        0.0926
     26 C           3.4668   40.7312   10.3147 C.3     1  UNL1        0.0198
     27 C           2.7488   42.0179   10.6610 C.3     1  UNL1        0.0018
     28 C           4.3150   40.3035   11.4954 C.3     1  UNL1        0.0018
@<TRIPOS>BOND
     1    22    23    1
     2    23    24    1
     3    23    21    1
     4    21    20    1
     5    25    20    1
     6    25    26    1
     7    26    27    1
     8    26    28    1
     9     1     5   ar
    10     2     7    1
    11     2     5   ar
    12     6     8   am
    13    13    14   ar
    14    15    17   ar
    15    16    15    1
    16    17    19    1
    17    18    12   ar
    18    20     1    1
    19     3     4   ar
    20     7     6   am
    21     8    12    1
    22     1     3   ar
    23     2     4   ar
    24     6     9    2
    25    12    13   ar
    26    14    15   ar
    27    17    18   ar
    28     7    10    1
    29     8    11    1
