@<TRIPOS>MOLECULE
MolPort-020-295-287 MCULE-7988798873 PubChem-110267370
 29 31 0 0 0
SMALL
GASTEIGER

@<TRIPOS>ATOM
      1 C          16.5410   41.4025    8.8094 C.ar    1  UNL1        0.2214
      2 C          17.2432   39.6600   10.2483 C.ar    1  UNL1        0.1031
      3 C          15.9166   39.3409   10.5273 C.ar    1  UNL1        0.0355
      4 C          14.9075   40.0969    9.9234 C.ar    1  UNL1        0.0644
      5 N          17.5313   40.6799    9.3993 N.ar    1  UNL1       -0.2120
      6 N          15.2422   41.1043    9.0749 N.ar    1  UNL1       -0.2179
      7 C          13.4629   39.7890   10.1562 C.3     1  UNL1        0.0564
      8 C          13.1343   38.3207    9.8601 C.3     1  UNL1        0.0087
      9 C          11.6754   38.1205    9.4419 C.3     1  UNL1        0.0178
     10 C          10.7852   39.1784   10.0900 C.3     1  UNL1        0.0725
     11 C          12.5610   40.7377    9.3608 C.3     1  UNL1        0.0784
     12 N          11.1273   40.5409    9.6442 N.3     1  UNL1       -0.2647
     13 C          10.7760   41.4453   10.7292 C.3     1  UNL1        0.1587
     14 C          10.2211   42.7243   10.1858 C.2     1  UNL1        0.2421
     15 C           7.9118   41.7334    9.9853 C.3     1  UNL1        0.1149
     16 C           8.3003   44.1230    9.3862 C.3     1  UNL1        0.1149
     17 N           8.8270   42.8582    9.8651 N.am    1  UNL1       -0.2749
     18 O          11.0103   43.6874    9.9945 O.2     1  UNL1       -0.2734
     19 N          16.8436   42.4686    7.9017 N.pl3   1  UNL1       -0.2678
     20 H          17.7901   42.7251    7.8139 H       1  UNL1        0.1565
     21 C          13.7100   43.3760    6.1226 C.ar    1  UNL1        0.1331
     22 C          15.2921   45.1173    5.8683 C.ar    1  UNL1        0.2012
     23 C          15.8974   43.1959    7.1101 C.ar    1  UNL1        0.1389
     24 C          14.6342   42.6487    6.8815 C.ar    1  UNL1        0.0686
     25 N          14.0578   44.5958    5.6353 N.ar    1  UNL1       -0.2091
     26 N          16.1998   44.4195    6.5989 N.ar    1  UNL1       -0.2088
     27 C          12.0566   41.4567    6.0302 C.3     1  UNL1        0.1096
     28 N          12.4056   42.8565    5.8499 N.pl3   1  UNL1       -0.3166
     29 H          11.7121   43.4752    5.5252 H       1  UNL1        0.1482
@<TRIPOS>BOND
     1    27    28    1
     2    22    25   ar
     3    23    26   ar
     4    23    19    1
     5    24    21   ar
     6     1     6   ar
     7     2     5   ar
     8     3     4   ar
     9     7     4    1
    10     7     8    1
    11     8     9    1
    12     9    10    1
    13    10    12    1
    14    11    12    1
    15    11     7    1
    16    13    12    1
    17    13    14    1
    18    14    17   am
    19    15    17    1
    20    16    17    1
    21    28    21    1
    22    19     1    1
    23    21    25   ar
    24    22    26   ar
    25    23    24   ar
    26     1     5   ar
    27     2     3   ar
    28     4     6   ar
    29    14    18    2
    30    28    29    1
    31    19    20    1
@<TRIPOS>MOLECULE
MolPort-020-295-287 MCULE-7988798873 PubChem-110267370
 29 31 0 0 0
SMALL
GASTEIGER

@<TRIPOS>ATOM
      1 C          12.1338   41.4574    6.7245 C.ar    1  UNL1        0.2214
      2 C          12.3021   39.6741    8.2708 C.ar    1  UNL1        0.1031
      3 C          10.9204   39.6804    8.4451 C.ar    1  UNL1        0.0355
      4 C          10.1625   40.6158    7.7343 C.ar    1  UNL1        0.0644
      5 N          12.8821   40.5581    7.4187 N.ar    1  UNL1       -0.2120
      6 N          10.7849   41.4770    6.8870 N.ar    1  UNL1       -0.2179
      7 C           8.6725   40.6575    7.8521 C.3     1  UNL1        0.0564
      8 C           7.9970   39.6080    6.9611 C.3     1  UNL1        0.0087
      9 C           6.5847   40.0207    6.5387 C.3     1  UNL1        0.0178
     10 C           5.9481   40.9100    7.6044 C.3     1  UNL1        0.0725
     11 C           8.1355   42.0637    7.5692 C.3     1  UNL1        0.0784
     12 N           6.6804   42.1769    7.7803 N.3     1  UNL1       -0.2647
     13 C           6.4779   42.5985    9.1586 C.3     1  UNL1        0.1587
     14 C           5.0177   42.7377    9.4545 C.2     1  UNL1        0.2421
     15 C           5.1410   41.0135   11.2893 C.3     1  UNL1        0.1149
     16 C           2.9872   42.1778   10.8141 C.3     1  UNL1        0.1149
     17 N           4.3943   41.9906   10.5117 N.am    1  UNL1       -0.2749
     18 O           4.3323   43.5165    8.7400 O.2     1  UNL1       -0.2734
     19 N          12.7431   42.3801    5.8137 N.pl3   1  UNL1       -0.2678
     20 H          12.3417   42.4540    4.9178 H       1  UNL1        0.1565
     21 C          16.0291   43.5132    7.1280 C.ar    1  UNL1        0.1331
     22 C          15.0799   45.2256    5.7989 C.ar    1  UNL1        0.2012
     23 C          13.8819   43.2050    6.0853 C.ar    1  UNL1        0.1389
     24 C          14.9117   42.7062    6.8841 C.ar    1  UNL1        0.0686
     25 N          16.0905   44.7539    6.5773 N.ar    1  UNL1       -0.2091
     26 N          13.9879   44.4546    5.5588 N.ar    1  UNL1       -0.2088
     27 C          17.0397   41.8349    8.7366 C.3     1  UNL1        0.1096
     28 N          17.1073   43.0545    7.9481 N.pl3   1  UNL1       -0.3166
     29 H          17.9334   43.5892    7.9802 H       1  UNL1        0.1482
@<TRIPOS>BOND
     1    27    28    1
     2    22    25   ar
     3    23    26   ar
     4    23    19    1
     5    24    21   ar
     6     1     6   ar
     7     2     5   ar
     8     3     4   ar
     9     7     4    1
    10     7     8    1
    11     8     9    1
    12     9    10    1
    13    10    12    1
    14    11    12    1
    15    11     7    1
    16    13    12    1
    17    13    14    1
    18    14    17   am
    19    15    17    1
    20    16    17    1
    21    28    21    1
    22    19     1    1
    23    21    25   ar
    24    22    26   ar
    25    23    24   ar
    26     1     5   ar
    27     2     3   ar
    28     4     6   ar
    29    14    18    2
    30    28    29    1
    31    19    20    1
@<TRIPOS>MOLECULE
MolPort-020-295-287 MCULE-7988798873 PubChem-110267370
 29 31 0 0 0
SMALL
GASTEIGER

@<TRIPOS>ATOM
      1 C          12.0047   41.6287    6.7565 C.ar    1  UNL1        0.2214
      2 C           9.9563   41.3515    5.6046 C.ar    1  UNL1        0.1031
      3 C           9.2511   41.5428    6.7902 C.ar    1  UNL1        0.0355
      4 C           9.9722   41.7700    7.9661 C.ar    1  UNL1        0.0644
      5 N          11.3135   41.3969    5.6080 N.ar    1  UNL1       -0.2120
      6 N          11.3298   41.8140    7.9212 N.ar    1  UNL1       -0.2179
      7 C           9.2773   42.0127    9.2677 C.3     1  UNL1        0.0564
      8 C          10.1904   41.7303   10.4669 C.3     1  UNL1        0.0087
      9 C           9.4059   41.3213   11.7161 C.3     1  UNL1        0.0178
     10 C           8.0213   41.9651   11.7105 C.3     1  UNL1        0.0725
     11 C           7.9732   41.2141    9.3546 C.3     1  UNL1        0.0784
     12 N           7.2001   41.5064   10.5759 N.3     1  UNL1       -0.2647
     13 C           6.2786   42.5856   10.2526 C.3     1  UNL1        0.1587
     14 C           5.1011   42.0592    9.4940 C.2     1  UNL1        0.2421
     15 C           3.7683   41.7545   11.6119 C.3     1  UNL1        0.1149
     16 C           2.7355   41.2343    9.4022 C.3     1  UNL1        0.1149
     17 N           3.8824   41.6958   10.1626 N.am    1  UNL1       -0.2749
     18 O           5.2044   41.9207    8.2461 O.2     1  UNL1       -0.2734
     19 N          13.4358   41.6921    6.7584 N.pl3   1  UNL1       -0.2678
     20 H          13.9198   40.8503    6.9211 H       1  UNL1        0.1565
     21 C          16.2450   44.1175    6.9430 C.ar    1  UNL1        0.1331
     22 C          14.5659   44.9655    5.5073 C.ar    1  UNL1        0.2012
     23 C          14.2279   42.8661    6.5457 C.ar    1  UNL1        0.1389
     24 C          15.4701   42.9748    7.1724 C.ar    1  UNL1        0.0686
     25 N          15.7776   45.0864    6.1128 N.ar    1  UNL1       -0.2091
     26 N          13.8020   43.8640    5.7255 N.ar    1  UNL1       -0.2088
     27 C          17.8020   43.8394    8.9240 C.3     1  UNL1        0.1096
     28 N          17.5205   44.2836    7.5686 N.pl3   1  UNL1       -0.3166
     29 H          18.2409   44.7188    7.0579 H       1  UNL1        0.1482
@<TRIPOS>BOND
     1    27    28    1
     2    22    25   ar
     3    23    26   ar
     4    23    19    1
     5    24    21   ar
     6     1     6   ar
     7     2     5   ar
     8     3     4   ar
     9     7     4    1
    10     7     8    1
    11     8     9    1
    12     9    10    1
    13    10    12    1
    14    11    12    1
    15    11     7    1
    16    13    12    1
    17    13    14    1
    18    14    17   am
    19    15    17    1
    20    16    17    1
    21    28    21    1
    22    19     1    1
    23    21    25   ar
    24    22    26   ar
    25    23    24   ar
    26     1     5   ar
    27     2     3   ar
    28     4     6   ar
    29    14    18    2
    30    28    29    1
    31    19    20    1
@<TRIPOS>MOLECULE
MolPort-020-295-287 MCULE-7988798873 PubChem-110267370
 29 31 0 0 0
SMALL
GASTEIGER

@<TRIPOS>ATOM
      1 C          16.7096   40.1407    9.9179 C.ar    1  UNL1        0.2214
      2 C          16.3176   38.7099   11.7614 C.ar    1  UNL1        0.1031
      3 C          14.9523   38.7113   11.4863 C.ar    1  UNL1        0.0355
      4 C          14.4913   39.4628   10.4012 C.ar    1  UNL1        0.0644
      5 N          17.1681   39.4209   10.9773 N.ar    1  UNL1       -0.2120
      6 N          15.3797   40.1538    9.6395 N.ar    1  UNL1       -0.2179
      7 C          13.0424   39.4846   10.0325 C.3     1  UNL1        0.0564
      8 C          12.3791   38.1164   10.2318 C.3     1  UNL1        0.0087
      9 C          11.1831   37.9047    9.3001 C.3     1  UNL1        0.0178
     10 C          10.5197   39.2405    8.9724 C.3     1  UNL1        0.0725
     11 C          12.8438   40.0022    8.6047 C.3     1  UNL1        0.0784
     12 N          11.4228   40.1433    8.2365 N.3     1  UNL1       -0.2647
     13 C          11.0269   41.5045    8.5667 C.3     1  UNL1        0.1587
     14 C           9.6063   41.7487    8.1648 C.2     1  UNL1        0.2421
     15 C          10.1968   41.6576    5.7158 C.3     1  UNL1        0.1149
     16 C           7.8239   41.9727    6.4161 C.3     1  UNL1        0.1149
     17 N           9.2155   41.7839    6.7826 N.am    1  UNL1       -0.2749
     18 O           8.7518   41.9439    9.0697 O.2     1  UNL1       -0.2734
     19 N          17.6078   40.8787    9.0809 N.pl3   1  UNL1       -0.2678
     20 H          18.5214   40.5246    8.9849 H       1  UNL1        0.1565
     21 C          15.6911   43.5147    7.2959 C.ar    1  UNL1        0.1331
     22 C          17.9632   44.1590    7.4464 C.ar    1  UNL1        0.2012
     23 C          17.3004   42.0837    8.3706 C.ar    1  UNL1        0.1389
     24 C          15.9848   42.3253    7.9727 C.ar    1  UNL1        0.0686
     25 N          16.6860   44.4072    7.0505 N.ar    1  UNL1       -0.2091
     26 N          18.2623   43.0063    8.0994 N.ar    1  UNL1       -0.2088
     27 C          14.0319   44.1061    5.4731 C.3     1  UNL1        0.1096
     28 N          14.3615   43.8066    6.8570 N.pl3   1  UNL1       -0.3166
     29 H          13.6361   43.8045    7.5226 H       1  UNL1        0.1482
@<TRIPOS>BOND
     1    27    28    1
     2    22    25   ar
     3    23    26   ar
     4    23    19    1
     5    24    21   ar
     6     1     6   ar
     7     2     5   ar
     8     3     4   ar
     9     7     4    1
    10     7     8    1
    11     8     9    1
    12     9    10    1
    13    10    12    1
    14    11    12    1
    15    11     7    1
    16    13    12    1
    17    13    14    1
    18    14    17   am
    19    15    17    1
    20    16    17    1
    21    28    21    1
    22    19     1    1
    23    21    25   ar
    24    22    26   ar
    25    23    24   ar
    26     1     5   ar
    27     2     3   ar
    28     4     6   ar
    29    14    18    2
    30    28    29    1
    31    19    20    1
@<TRIPOS>MOLECULE
MolPort-020-295-287 MCULE-7988798873 PubChem-110267370
 29 31 0 0 0
SMALL
GASTEIGER

@<TRIPOS>ATOM
      1 C          12.0535   41.3954    6.5725 C.ar    1  UNL1        0.2214
      2 C          10.4357   40.6732    5.0039 C.ar    1  UNL1        0.1031
      3 C           9.4120   41.0456    5.8718 C.ar    1  UNL1        0.0355
      4 C           9.7548   41.5926    7.1119 C.ar    1  UNL1        0.0644
      5 N          11.7317   40.8530    5.3672 N.ar    1  UNL1       -0.2120
      6 N          11.0652   41.7605    7.4306 N.ar    1  UNL1       -0.2179
      7 C           8.7058   42.0409    8.0785 C.3     1  UNL1        0.0564
      8 C           9.2913   42.9097    9.1983 C.3     1  UNL1        0.0087
      9 C           8.4720   42.8311   10.4890 C.3     1  UNL1        0.0178
     10 C           7.0036   42.5567   10.1723 C.3     1  UNL1        0.0725
     11 C           7.9281   40.8478    8.6420 C.3     1  UNL1        0.0784
     12 N           6.8115   41.2506    9.5171 N.3     1  UNL1       -0.2647
     13 C           5.6278   41.3646    8.6778 C.3     1  UNL1        0.1587
     14 C           5.0367   42.7347    8.7894 C.2     1  UNL1        0.2421
     15 C           6.1703   43.4864    6.6670 C.3     1  UNL1        0.1149
     16 C           4.6565   45.0445    7.8921 C.3     1  UNL1        0.1149
     17 N           5.2799   43.7378    7.7899 N.am    1  UNL1       -0.2749
     18 O           4.3290   43.0027    9.7966 O.2     1  UNL1       -0.2734
     19 N          13.4201   41.5997    6.9504 N.pl3   1  UNL1       -0.2678
     20 H          13.8589   40.8731    7.4491 H       1  UNL1        0.1565
     21 C          16.1469   44.1194    7.1067 C.ar    1  UNL1        0.1331
     22 C          14.6125   44.7242    5.4097 C.ar    1  UNL1        0.2012
     23 C          14.2075   42.7627    6.6702 C.ar    1  UNL1        0.1389
     24 C          15.3743   42.9900    7.4011 C.ar    1  UNL1        0.0686
     25 N          15.7511   44.9600    6.1152 N.ar    1  UNL1       -0.2091
     26 N          13.8512   43.6347    5.6890 N.ar    1  UNL1       -0.2088
     27 C          18.4997   43.5202    7.8353 C.3     1  UNL1        0.1096
     28 N          17.3458   44.4046    7.8326 N.pl3   1  UNL1       -0.3166
     29 H          17.3918   45.2381    8.3544 H       1  UNL1        0.1482
@<TRIPOS>BOND
     1    27    28    1
     2    22    25   ar
     3    23    26   ar
     4    23    19    1
     5    24    21   ar
     6     1     6   ar
     7     2     5   ar
     8     3     4   ar
     9     7     4    1
    10     7     8    1
    11     8     9    1
    12     9    10    1
    13    10    12    1
    14    11    12    1
    15    11     7    1
    16    13    12    1
    17    13    14    1
    18    14    17   am
    19    15    17    1
    20    16    17    1
    21    28    21    1
    22    19     1    1
    23    21    25   ar
    24    22    26   ar
    25    23    24   ar
    26     1     5   ar
    27     2     3   ar
    28     4     6   ar
    29    14    18    2
    30    28    29    1
    31    19    20    1
@<TRIPOS>MOLECULE
MolPort-020-295-287 MCULE-7988798873 PubChem-110267370
 29 31 0 0 0
SMALL
GASTEIGER

@<TRIPOS>ATOM
      1 C          11.5666   41.3173    6.6145 C.ar    1  UNL1        0.2214
      2 C          10.3666   40.3998    4.7930 C.ar    1  UNL1        0.1031
      3 C           9.1670   40.8384    5.3482 C.ar    1  UNL1        0.0355
      4 C           9.2063   41.5194    6.5686 C.ar    1  UNL1        0.0644
      5 N          11.5393   40.6449    5.4322 N.ar    1  UNL1       -0.2120
      6 N          10.4036   41.7484    7.1694 N.ar    1  UNL1       -0.2179
      7 C           7.9588   42.0433    7.2051 C.3     1  UNL1        0.0564
      8 C           7.2940   43.1319    6.3539 C.3     1  UNL1        0.0087
      9 C           6.4750   44.1139    7.1953 C.3     1  UNL1        0.0178
     10 C           5.9297   43.4214    8.4423 C.3     1  UNL1        0.0725
     11 C           8.2301   42.5328    8.6308 C.3     1  UNL1        0.0784
     12 N           7.0064   42.9577    9.3356 N.3     1  UNL1       -0.2647
     13 C           6.4971   41.7963   10.0499 C.3     1  UNL1        0.1587
     14 C           5.2048   41.3382    9.4507 C.2     1  UNL1        0.2421
     15 C           3.8922   42.1833   11.4299 C.3     1  UNL1        0.1149
     16 C           2.7047   41.1568    9.4918 C.3     1  UNL1        0.1149
     17 N           3.9507   41.5651   10.1141 N.am    1  UNL1       -0.2749
     18 O           5.2374   40.7260    8.3501 O.2     1  UNL1       -0.2734
     19 N          12.8045   41.5898    7.2819 N.pl3   1  UNL1       -0.2678
     20 H          13.0031   41.0605    8.0879 H       1  UNL1        0.1565
     21 C          16.0512   43.3567    6.9009 C.ar    1  UNL1        0.1331
     22 C          14.3784   44.5140    5.6915 C.ar    1  UNL1        0.2012
     23 C          13.7800   42.5605    6.8857 C.ar    1  UNL1        0.1389
     24 C          15.1015   42.4131    7.3092 C.ar    1  UNL1        0.0686
     25 N          15.6698   44.3847    6.0982 N.ar    1  UNL1       -0.2091
     26 N          13.4462   43.6081    6.0849 N.ar    1  UNL1       -0.2088
     27 C          17.9077   43.8157    8.5647 C.3     1  UNL1        0.1096
     28 N          17.4167   43.2582    7.3151 N.pl3   1  UNL1       -0.3166
     29 H          18.0533   42.7913    6.7269 H       1  UNL1        0.1482
@<TRIPOS>BOND
     1    27    28    1
     2    22    25   ar
     3    23    26   ar
     4    23    19    1
     5    24    21   ar
     6     1     6   ar
     7     2     5   ar
     8     3     4   ar
     9     7     4    1
    10     7     8    1
    11     8     9    1
    12     9    10    1
    13    10    12    1
    14    11    12    1
    15    11     7    1
    16    13    12    1
    17    13    14    1
    18    14    17   am
    19    15    17    1
    20    16    17    1
    21    28    21    1
    22    19     1    1
    23    21    25   ar
    24    22    26   ar
    25    23    24   ar
    26     1     5   ar
    27     2     3   ar
    28     4     6   ar
    29    14    18    2
    30    28    29    1
    31    19    20    1
@<TRIPOS>MOLECULE
MolPort-020-295-287 MCULE-7988798873 PubChem-110267370
 29 31 0 0 0
SMALL
GASTEIGER

@<TRIPOS>ATOM
      1 C          14.6267   40.3140    9.5900 C.ar    1  UNL1        0.2214
      2 C          13.7142   39.2373   11.4894 C.ar    1  UNL1        0.1031
      3 C          12.4655   39.7904   11.2166 C.ar    1  UNL1        0.0355
      4 C          12.3348   40.6260   10.1034 C.ar    1  UNL1        0.0644
      5 N          14.7678   39.5073   10.6763 N.ar    1  UNL1       -0.2120
      6 N          13.4149   40.8630    9.3134 N.ar    1  UNL1       -0.2179
      7 C          11.0165   41.2287    9.7364 C.3     1  UNL1        0.0564
      8 C          10.1839   41.5843   10.9741 C.3     1  UNL1        0.0087
      9 C           8.6792   41.5600   10.6937 C.3     1  UNL1        0.0178
     10 C           8.4033   41.9110    9.2335 C.3     1  UNL1        0.0725
     11 C          10.2403   40.3183    8.7801 C.3     1  UNL1        0.0784
     12 N           8.9813   40.9223    8.3059 N.3     1  UNL1       -0.2647
     13 C           9.2820   41.6247    7.0671 C.3     1  UNL1        0.1587
     14 C           8.9166   40.7823    5.8855 C.2     1  UNL1        0.2421
     15 C          11.3379   40.4578    5.2639 C.3     1  UNL1        0.1149
     16 C           9.5479   39.3416    3.9334 C.3     1  UNL1        0.1149
     17 N           9.9235   40.1961    5.0448 N.am    1  UNL1       -0.2749
     18 O           7.6959   40.6095    5.6263 O.2     1  UNL1       -0.2734
     19 N          15.7338   40.5871    8.7229 N.pl3   1  UNL1       -0.2678
     20 H          16.2085   39.8109    8.3468 H       1  UNL1        0.1565
     21 C          15.9210   43.9487    7.1503 C.ar    1  UNL1        0.1331
     22 C          17.8285   43.6077    8.5087 C.ar    1  UNL1        0.2012
     23 C          16.2143   41.8842    8.3523 C.ar    1  UNL1        0.1389
     24 C          15.4519   42.6748    7.4914 C.ar    1  UNL1        0.0686
     25 N          17.0973   44.3888    7.6690 N.ar    1  UNL1       -0.2091
     26 N          17.3869   42.3677    8.8434 N.ar    1  UNL1       -0.2088
     27 C          14.1720   44.2937    5.3482 C.3     1  UNL1        0.1096
     28 N          15.1837   44.7951    6.2639 N.pl3   1  UNL1       -0.3166
     29 H          15.3700   45.7618    6.2743 H       1  UNL1        0.1482
@<TRIPOS>BOND
     1    27    28    1
     2    22    25   ar
     3    23    26   ar
     4    23    19    1
     5    24    21   ar
     6     1     6   ar
     7     2     5   ar
     8     3     4   ar
     9     7     4    1
    10     7     8    1
    11     8     9    1
    12     9    10    1
    13    10    12    1
    14    11    12    1
    15    11     7    1
    16    13    12    1
    17    13    14    1
    18    14    17   am
    19    15    17    1
    20    16    17    1
    21    28    21    1
    22    19     1    1
    23    21    25   ar
    24    22    26   ar
    25    23    24   ar
    26     1     5   ar
    27     2     3   ar
    28     4     6   ar
    29    14    18    2
    30    28    29    1
    31    19    20    1
@<TRIPOS>MOLECULE
MolPort-020-295-287 MCULE-7988798873 PubChem-110267370
 29 31 0 0 0
SMALL
GASTEIGER

@<TRIPOS>ATOM
      1 C          14.2459   40.4163    9.5059 C.ar    1  UNL1        0.2214
      2 C          13.1807   39.4018   11.3595 C.ar    1  UNL1        0.1031
      3 C          12.0216   40.1311   11.1065 C.ar    1  UNL1        0.0355
      4 C          12.0146   41.0195   10.0271 C.ar    1  UNL1        0.0644
      5 N          14.2672   39.5562   10.5597 N.ar    1  UNL1       -0.2120
      6 N          13.1228   41.1368    9.2491 N.ar    1  UNL1       -0.2179
      7 C          10.7940   41.8112    9.6818 C.3     1  UNL1        0.0564
      8 C          11.0339   43.3204    9.8098 C.3     1  UNL1        0.0087
      9 C           9.7494   44.0927   10.1210 C.3     1  UNL1        0.0178
     10 C           8.5385   43.3725    9.5321 C.3     1  UNL1        0.0725
     11 C           9.5902   41.3613   10.5151 C.3     1  UNL1        0.0784
     12 N           8.3389   42.0408   10.1312 N.3     1  UNL1       -0.2647
     13 C           7.6922   41.2127    9.1240 C.3     1  UNL1        0.1587
     14 C           6.3217   41.7314    8.8208 C.2     1  UNL1        0.2421
     15 C           5.5203   41.2156   11.1545 C.3     1  UNL1        0.1149
     16 C           3.9861   42.3123    9.5225 C.3     1  UNL1        0.1149
     17 N           5.2936   41.7590    9.8240 N.am    1  UNL1       -0.2749
     18 O           6.0765   42.1308    7.6514 O.2     1  UNL1       -0.2734
     19 N          15.3863   40.5686    8.6524 N.pl3   1  UNL1       -0.2678
     20 H          15.7694   39.7471    8.2684 H       1  UNL1        0.1565
     21 C          15.9768   43.9164    7.1517 C.ar    1  UNL1        0.1331
     22 C          17.8360   43.3125    8.4854 C.ar    1  UNL1        0.2012
     23 C          16.0207   41.8048    8.3058 C.ar    1  UNL1        0.1389
     24 C          15.3563   42.7026    7.4692 C.ar    1  UNL1        0.0686
     25 N          17.2015   44.1964    7.6694 N.ar    1  UNL1       -0.2091
     26 N          17.2469   42.1290    8.7970 N.ar    1  UNL1       -0.2088
     27 C          14.4920   44.4830    5.1769 C.3     1  UNL1        0.1096
     28 N          15.3441   44.8670    6.2904 N.pl3   1  UNL1       -0.3166
     29 H          15.4924   45.8255    6.4595 H       1  UNL1        0.1482
@<TRIPOS>BOND
     1    27    28    1
     2    22    25   ar
     3    23    26   ar
     4    23    19    1
     5    24    21   ar
     6     1     6   ar
     7     2     5   ar
     8     3     4   ar
     9     7     4    1
    10     7     8    1
    11     8     9    1
    12     9    10    1
    13    10    12    1
    14    11    12    1
    15    11     7    1
    16    13    12    1
    17    13    14    1
    18    14    17   am
    19    15    17    1
    20    16    17    1
    21    28    21    1
    22    19     1    1
    23    21    25   ar
    24    22    26   ar
    25    23    24   ar
    26     1     5   ar
    27     2     3   ar
    28     4     6   ar
    29    14    18    2
    30    28    29    1
    31    19    20    1
@<TRIPOS>MOLECULE
MolPort-020-295-287 MCULE-7988798873 PubChem-110267370
 29 31 0 0 0
SMALL
GASTEIGER

@<TRIPOS>ATOM
      1 C          12.4635   41.9009    6.3478 C.ar    1  UNL1        0.2214
      2 C          14.6361   42.6367    6.9292 C.ar    1  UNL1        0.1031
      3 C          14.7518   41.6005    7.8527 C.ar    1  UNL1        0.0355
      4 C          13.6762   40.7208    8.0064 C.ar    1  UNL1        0.0644
      5 N          13.5002   42.7688    6.1970 N.ar    1  UNL1       -0.2120
      6 N          12.5613   40.8871    7.2473 N.ar    1  UNL1       -0.2179
      7 C          13.7454   39.5698    8.9583 C.3     1  UNL1        0.0564
      8 C          13.0336   38.3275    8.4090 C.3     1  UNL1        0.0087
      9 C          12.5085   37.4148    9.5201 C.3     1  UNL1        0.0178
     10 C          13.3856   37.5314   10.7647 C.3     1  UNL1        0.0725
     11 C          13.2076   39.9611   10.3380 C.3     1  UNL1        0.0784
     12 N          13.3571   38.8885   11.3389 N.3     1  UNL1       -0.2647
     13 C          14.6350   39.0969   12.0039 C.3     1  UNL1        0.1587
     14 C          15.5956   38.0069   11.6457 C.2     1  UNL1        0.2421
     15 C          17.0143   39.5897   10.2905 C.3     1  UNL1        0.1149
     16 C          17.7052   37.2076   10.5523 C.3     1  UNL1        0.1149
     17 N          16.7603   38.2693   10.8463 N.am    1  UNL1       -0.2749
     18 O          15.3527   36.8374   12.0463 O.2     1  UNL1       -0.2734
     19 N          11.2709   42.0302    5.5649 N.pl3   1  UNL1       -0.2678
     20 H          11.0310   42.9361    5.2630 H       1  UNL1        0.1565
     21 C           8.3678   39.7111    5.5157 C.ar    1  UNL1        0.1331
     22 C           9.8253   39.1860    3.7269 C.ar    1  UNL1        0.2012
     23 C          10.3951   40.9643    5.1806 C.ar    1  UNL1        0.1389
     24 C           9.2267   40.7432    5.9110 C.ar    1  UNL1        0.0686
     25 N           8.6840   38.9572    4.4304 N.ar    1  UNL1       -0.2091
     26 N          10.6696   40.1810    4.1031 N.ar    1  UNL1       -0.2088
     27 C           6.5289   40.4013    7.1182 C.3     1  UNL1        0.1096
     28 N           7.1630   39.4356    6.2357 N.pl3   1  UNL1       -0.3166
     29 H           6.7439   38.5512    6.1287 H       1  UNL1        0.1482
@<TRIPOS>BOND
     1    27    28    1
     2    22    25   ar
     3    23    26   ar
     4    23    19    1
     5    24    21   ar
     6     1     6   ar
     7     2     5   ar
     8     3     4   ar
     9     7     4    1
    10     7     8    1
    11     8     9    1
    12     9    10    1
    13    10    12    1
    14    11    12    1
    15    11     7    1
    16    13    12    1
    17    13    14    1
    18    14    17   am
    19    15    17    1
    20    16    17    1
    21    28    21    1
    22    19     1    1
    23    21    25   ar
    24    22    26   ar
    25    23    24   ar
    26     1     5   ar
    27     2     3   ar
    28     4     6   ar
    29    14    18    2
    30    28    29    1
    31    19    20    1
@<TRIPOS>MOLECULE
MolPort-020-295-287 MCULE-7988798873 PubChem-110267370
 29 31 0 0 0
SMALL
GASTEIGER

@<TRIPOS>ATOM
      1 C          15.0277   40.0653    9.7842 C.ar    1  UNL1        0.2214
      2 C          14.2354   38.6867   11.5366 C.ar    1  UNL1        0.1031
      3 C          12.9827   39.2905   11.4601 C.ar    1  UNL1        0.0355
      4 C          12.7883   40.3065   10.5196 C.ar    1  UNL1        0.0644
      5 N          15.2311   39.0824   10.7024 N.ar    1  UNL1       -0.2120
      6 N          13.8115   40.6655    9.7004 N.ar    1  UNL1       -0.2179
      7 C          11.4604   40.9761   10.3644 C.3     1  UNL1        0.0564
      8 C          10.6659   40.9855   11.6760 C.3     1  UNL1        0.0087
      9 C           9.1534   41.0263   11.4435 C.3     1  UNL1        0.0178
     10 C           8.8342   41.7499   10.1373 C.3     1  UNL1        0.0725
     11 C          10.6545   40.3465    9.2242 C.3     1  UNL1        0.0784
     12 N           9.3826   41.0462    8.9642 N.3     1  UNL1       -0.2647
     13 C           9.6469   42.0537    7.9476 C.3     1  UNL1        0.1587
     14 C           8.5307   42.0983    6.9519 C.2     1  UNL1        0.2421
     15 C           7.4238   44.0171    8.1551 C.3     1  UNL1        0.1149
     16 C           6.4370   43.1340    6.0417 C.3     1  UNL1        0.1149
     17 N           7.4830   43.0769    7.0463 N.am    1  UNL1       -0.2749
     18 O           8.5152   41.2407    6.0292 O.2     1  UNL1       -0.2734
     19 N          16.0729   40.4729    8.8933 N.pl3   1  UNL1       -0.2678
     20 H          16.6601   39.7657    8.5408 H       1  UNL1        0.1565
     21 C          15.7293   43.7542    7.1836 C.ar    1  UNL1        0.1331
     22 C          17.6635   43.7755    8.5467 C.ar    1  UNL1        0.2012
     23 C          16.3429   41.8134    8.4678 C.ar    1  UNL1        0.1389
     24 C          15.4669   42.4373    7.5785 C.ar    1  UNL1        0.0686
     25 N          16.8199   44.3959    7.6788 N.ar    1  UNL1       -0.2091
     26 N          17.4230   42.4962    8.9338 N.ar    1  UNL1       -0.2088
     27 C          14.7925   44.1009    4.8538 C.3     1  UNL1        0.1096
     28 N          14.8694   44.4361    6.2663 N.pl3   1  UNL1       -0.3166
     29 H          14.3036   45.1661    6.6072 H       1  UNL1        0.1482
@<TRIPOS>BOND
     1    27    28    1
     2    22    25   ar
     3    23    26   ar
     4    23    19    1
     5    24    21   ar
     6     1     6   ar
     7     2     5   ar
     8     3     4   ar
     9     7     4    1
    10     7     8    1
    11     8     9    1
    12     9    10    1
    13    10    12    1
    14    11    12    1
    15    11     7    1
    16    13    12    1
    17    13    14    1
    18    14    17   am
    19    15    17    1
    20    16    17    1
    21    28    21    1
    22    19     1    1
    23    21    25   ar
    24    22    26   ar
    25    23    24   ar
    26     1     5   ar
    27     2     3   ar
    28     4     6   ar
    29    14    18    2
    30    28    29    1
    31    19    20    1
