@<TRIPOS>MOLECULE
MolPort-020-292-491 MCULE-8266593195 PubChem-110264959
 31 34 0 0 0
SMALL
GASTEIGER

@<TRIPOS>ATOM
      1 C          12.6902   42.0138    6.6894 C.ar    1  UNL1        0.0528
      2 C          12.0115   42.2101    7.8944 C.ar    1  UNL1        0.0294
      3 C          10.7884   41.5711    8.1134 C.ar    1  UNL1        0.0611
      4 C          10.9020   40.5543    5.9697 C.ar    1  UNL1        0.0602
      5 C          12.1264   41.1758    5.7185 C.ar    1  UNL1        0.0294
      6 C          10.2973   39.6650    4.9447 C.3     1  UNL1        0.0521
      7 N          10.2625   40.7629    7.1510 N.ar    1  UNL1       -0.2538
      8 C          10.0661   41.7924    9.4001 C.3     1  UNL1        0.0602
      9 C          10.8199   41.1523   10.5676 C.3     1  UNL1        0.0094
     10 C          10.0748   41.3975   11.8787 C.3     1  UNL1        0.0219
     11 C           8.6571   40.8401   11.7871 C.3     1  UNL1        0.0934
     12 C           8.6412   41.2466    9.3183 C.3     1  UNL1        0.0992
     13 C           6.7508   42.1133   10.7491 C.2     1  UNL1        0.2256
     14 N           7.9897   41.4012   10.6158 N.am    1  UNL1       -0.2792
     15 O           6.1847   42.1900   11.8728 O.2     1  UNL1       -0.2749
     16 C           6.1165   42.7896    9.5674 C.3     1  UNL1        0.0853
     17 C           4.7384   42.2253    9.2101 C.3     1  UNL1        0.0091
     18 C           3.6226   42.8695   10.0119 C.3     1  UNL1        0.0005
     19 C           2.6393   41.7586   10.2975 C.3     1  UNL1        0.0000
     20 C           3.4701   40.4961   10.3595 C.3     1  UNL1        0.0000
     21 C           4.6464   40.7231    9.4300 C.3     1  UNL1        0.0005
     22 N          13.9444   42.6803    6.4882 N.pl3   1  UNL1       -0.2825
     23 H          13.9828   43.3219    5.7424 H       1  UNL1        0.1551
     24 C          18.4830   44.1383    7.6182 C.3     1  UNL1        0.0522
     25 C          17.3440   43.2041    7.8132 C.ar    1  UNL1        0.0634
     26 C          17.4433   42.1668    8.7383 C.ar    1  UNL1        0.0296
     27 C          16.3533   41.3122    8.8916 C.ar    1  UNL1        0.0634
     28 C          15.1485   42.5184    7.2498 C.ar    1  UNL1        0.2200
     29 C          16.4178   40.1934    9.8673 C.3     1  UNL1        0.0522
     30 N          15.2313   41.5020    8.1489 N.ar    1  UNL1       -0.2179
     31 N          16.2055   43.3612    7.0893 N.ar    1  UNL1       -0.2179
@<TRIPOS>BOND
     1    24    25    1
     2    25    31   ar
     3    26    27   ar
     4    28    30   ar
     5    28    22    1
     6     2     3   ar
     7     4     7   ar
     8     5     1   ar
     9     6     4    1
    10     8     3    1
    11     8     9    1
    12     9    10    1
    13    10    11    1
    14    11    14    1
    15    12    14    1
    16    12     8    1
    17    16    13    1
    18    16    17    1
    19    17    18    1
    20    18    19    1
    21    19    20    1
    22    20    21    1
    23    21    17    1
    24    29    27    1
    25    22     1    1
    26    14    13   am
    27    25    26   ar
    28    27    30   ar
    29    28    31   ar
    30     1     2   ar
    31     3     7   ar
    32     4     5   ar
    33    13    15    2
    34    22    23    1
@<TRIPOS>MOLECULE
MolPort-020-292-491 MCULE-8266593195 PubChem-110264959
 31 34 0 0 0
SMALL
GASTEIGER

@<TRIPOS>ATOM
      1 C          12.3243   42.0017    6.4760 C.ar    1  UNL1        0.0528
      2 C          11.6584   42.2243    7.6836 C.ar    1  UNL1        0.0294
      3 C          10.3793   41.6965    7.8777 C.ar    1  UNL1        0.0611
      4 C          10.4126   40.7386    5.7043 C.ar    1  UNL1        0.0602
      5 C          11.6915   41.2499    5.4775 C.ar    1  UNL1        0.0294
      6 C           9.7346   39.9413    4.6498 C.3     1  UNL1        0.0521
      7 N           9.7870   40.9705    6.8886 N.ar    1  UNL1       -0.2538
      8 C           9.6718   41.9456    9.1675 C.3     1  UNL1        0.0602
      9 C          10.6118   41.7359   10.3564 C.3     1  UNL1        0.0094
     10 C           9.8767   42.0061   11.6682 C.3     1  UNL1        0.0219
     11 C           8.6579   41.0949   11.7824 C.3     1  UNL1        0.0934
     12 C           8.4433   41.0453    9.2901 C.3     1  UNL1        0.0992
     13 C           6.4435   41.6316   10.7146 C.2     1  UNL1        0.2256
     14 N           7.8221   41.2512   10.5953 N.am    1  UNL1       -0.2792
     15 O           5.9190   41.7551   11.8542 O.2     1  UNL1       -0.2749
     16 C           5.6083   41.9041    9.4962 C.3     1  UNL1        0.0853
     17 C           5.2793   43.3872    9.3026 C.3     1  UNL1        0.0091
     18 C           3.8367   43.6116    8.8885 C.3     1  UNL1        0.0005
     19 C           3.8739   44.7593    7.9067 C.3     1  UNL1        0.0000
     20 C           5.2246   44.6645    7.2325 C.3     1  UNL1        0.0000
     21 C           6.1606   44.0501    8.2551 C.3     1  UNL1        0.0005
     22 N          13.6368   42.5535    6.3007 N.pl3   1  UNL1       -0.2825
     23 H          13.7667   43.1280    5.5119 H       1  UNL1        0.1551
     24 C          15.9356   40.0709    9.8438 C.3     1  UNL1        0.0522
     25 C          15.9123   41.1792    8.8543 C.ar    1  UNL1        0.0634
     26 C          17.0041   42.0378    8.7429 C.ar    1  UNL1        0.0296
     27 C          16.9433   43.0647    7.8029 C.ar    1  UNL1        0.0634
     28 C          14.7809   42.3634    7.1439 C.ar    1  UNL1        0.2200
     29 C          18.0861   44.0024    7.6519 C.3     1  UNL1        0.0522
     30 N          15.8390   43.2086    7.0242 N.ar    1  UNL1       -0.2179
     31 N          14.8262   41.3555    8.0579 N.ar    1  UNL1       -0.2179
@<TRIPOS>BOND
     1    24    25    1
     2    25    31   ar
     3    26    27   ar
     4    28    30   ar
     5    28    22    1
     6     2     3   ar
     7     4     7   ar
     8     5     1   ar
     9     6     4    1
    10     8     3    1
    11     8     9    1
    12     9    10    1
    13    10    11    1
    14    11    14    1
    15    12    14    1
    16    12     8    1
    17    16    13    1
    18    16    17    1
    19    17    18    1
    20    18    19    1
    21    19    20    1
    22    20    21    1
    23    21    17    1
    24    29    27    1
    25    22     1    1
    26    14    13   am
    27    25    26   ar
    28    27    30   ar
    29    28    31   ar
    30     1     2   ar
    31     3     7   ar
    32     4     5   ar
    33    13    15    2
    34    22    23    1
@<TRIPOS>MOLECULE
MolPort-020-292-491 MCULE-8266593195 PubChem-110264959
 31 34 0 0 0
SMALL
GASTEIGER

@<TRIPOS>ATOM
      1 C          16.0045   42.0116    8.1605 C.ar    1  UNL1        0.0528
      2 C          14.7493   41.4531    8.4130 C.ar    1  UNL1        0.0294
      3 C          13.6191   41.9706    7.7750 C.ar    1  UNL1        0.0611
      4 C          14.9549   43.5800    6.6492 C.ar    1  UNL1        0.0602
      5 C          16.1049   43.0869    7.2680 C.ar    1  UNL1        0.0294
      6 C          15.0531   44.7207    5.7023 C.3     1  UNL1        0.0521
      7 N          13.7456   43.0181    6.9131 N.ar    1  UNL1       -0.2538
      8 C          12.2810   41.3734    8.0563 C.3     1  UNL1        0.0602
      9 C          12.2819   40.6363    9.3971 C.3     1  UNL1        0.0094
     10 C          10.9029   40.0410    9.6765 C.3     1  UNL1        0.0219
     11 C          10.5020   39.0965    8.5468 C.3     1  UNL1        0.0934
     12 C          11.8636   40.4320    6.9274 C.3     1  UNL1        0.0992
     13 C           9.4535   39.8947    6.4031 C.2     1  UNL1        0.2256
     14 N          10.5929   39.8001    7.2706 N.am    1  UNL1       -0.2792
     15 O           8.3831   39.2988    6.6997 O.2     1  UNL1       -0.2749
     16 C           9.5063   40.7113    5.1434 C.3     1  UNL1        0.0853
     17 C          10.0178   39.9280    3.9310 C.3     1  UNL1        0.0091
     18 C           8.9345   39.0809    3.2891 C.3     1  UNL1        0.0005
     19 C           9.6243   37.8104    2.8504 C.3     1  UNL1        0.0000
     20 C          10.7583   37.6124    3.8316 C.3     1  UNL1        0.0000
     21 C          11.1727   39.0011    4.2781 C.3     1  UNL1        0.0005
     22 N          17.1499   41.4627    8.8272 N.pl3   1  UNL1       -0.2825
     23 H          17.9845   41.9804    8.7584 H       1  UNL1        0.1551
     24 C          19.6449   37.5127   10.3018 C.3     1  UNL1        0.0522
     25 C          18.4031   38.3288   10.3090 C.ar    1  UNL1        0.0634
     26 C          17.2995   37.9128   11.0511 C.ar    1  UNL1        0.0296
     27 C          16.1539   38.7060   11.0317 C.ar    1  UNL1        0.0634
     28 C          17.2175   40.2456    9.5825 C.ar    1  UNL1        0.2200
     29 C          14.9549   38.2986   11.8092 C.3     1  UNL1        0.0522
     30 N          16.1332   39.8520   10.3019 N.ar    1  UNL1       -0.2179
     31 N          18.3437   39.4808    9.5919 N.ar    1  UNL1       -0.2179
@<TRIPOS>BOND
     1    24    25    1
     2    25    31   ar
     3    26    27   ar
     4    28    30   ar
     5    28    22    1
     6     2     3   ar
     7     4     7   ar
     8     5     1   ar
     9     6     4    1
    10     8     3    1
    11     8     9    1
    12     9    10    1
    13    10    11    1
    14    11    14    1
    15    12    14    1
    16    12     8    1
    17    16    13    1
    18    16    17    1
    19    17    18    1
    20    18    19    1
    21    19    20    1
    22    20    21    1
    23    21    17    1
    24    29    27    1
    25    22     1    1
    26    14    13   am
    27    25    26   ar
    28    27    30   ar
    29    28    31   ar
    30     1     2   ar
    31     3     7   ar
    32     4     5   ar
    33    13    15    2
    34    22    23    1
@<TRIPOS>MOLECULE
MolPort-020-292-491 MCULE-8266593195 PubChem-110264959
 31 34 0 0 0
SMALL
GASTEIGER

@<TRIPOS>ATOM
      1 C          12.9108   42.1372    6.5039 C.ar    1  UNL1        0.0528
      2 C          12.9513   41.1608    7.5021 C.ar    1  UNL1        0.0294
      3 C          14.1160   40.9857    8.2539 C.ar    1  UNL1        0.0611
      4 C          15.1938   42.7223    7.0435 C.ar    1  UNL1        0.0602
      5 C          14.0464   42.9250    6.2749 C.ar    1  UNL1        0.0294
      6 C          16.4024   43.5531    6.8059 C.3     1  UNL1        0.0521
      7 N          15.2063   41.7648    8.0085 N.ar    1  UNL1       -0.2538
      8 C          14.1535   39.9353    9.3129 C.3     1  UNL1        0.0602
      9 C          13.0824   40.1909   10.3751 C.3     1  UNL1        0.0094
     10 C          13.1255   39.1014   11.4452 C.3     1  UNL1        0.0219
     11 C          14.5106   39.0494   12.0837 C.3     1  UNL1        0.0934
     12 C          15.5388   39.8667    9.9541 C.3     1  UNL1        0.0992
     13 C          16.4380   37.7886   11.0699 C.2     1  UNL1        0.2256
     14 N          15.5202   38.8915   11.0406 N.am    1  UNL1       -0.2792
     15 O          16.4330   36.9889   12.0443 O.2     1  UNL1       -0.2749
     16 C          17.4037   37.5560    9.9431 C.3     1  UNL1        0.0853
     17 C          16.8223   36.7086    8.8078 C.3     1  UNL1        0.0091
     18 C          15.4273   36.1995    9.1204 C.3     1  UNL1        0.0005
     19 C          15.3660   34.8084    8.5343 C.3     1  UNL1        0.0000
     20 C          16.7836   34.2848    8.5995 C.3     1  UNL1        0.0000
     21 C          17.6841   35.4990    8.4802 C.3     1  UNL1        0.0005
     22 N          11.7037   42.2982    5.7458 N.pl3   1  UNL1       -0.2825
     23 H          11.6118   43.1411    5.2455 H       1  UNL1        0.1551
     24 C           7.4582   40.5114    7.4146 C.3     1  UNL1        0.0522
     25 C           8.5631   40.4904    6.4212 C.ar    1  UNL1        0.0634
     26 C           8.5444   39.5683    5.3767 C.ar    1  UNL1        0.0296
     27 C           9.5991   39.5809    4.4659 C.ar    1  UNL1        0.0634
     28 C          10.6156   41.3710    5.6340 C.ar    1  UNL1        0.2200
     29 C           9.6178   38.6144    3.3375 C.3     1  UNL1        0.0522
     30 N          10.6104   40.4770    4.6098 N.ar    1  UNL1       -0.2179
     31 N           9.5918   41.3705    6.5313 N.ar    1  UNL1       -0.2179
@<TRIPOS>BOND
     1    24    25    1
     2    25    31   ar
     3    26    27   ar
     4    28    30   ar
     5    28    22    1
     6     2     3   ar
     7     4     7   ar
     8     5     1   ar
     9     6     4    1
    10     8     3    1
    11     8     9    1
    12     9    10    1
    13    10    11    1
    14    11    14    1
    15    12    14    1
    16    12     8    1
    17    16    13    1
    18    16    17    1
    19    17    18    1
    20    18    19    1
    21    19    20    1
    22    20    21    1
    23    21    17    1
    24    29    27    1
    25    22     1    1
    26    14    13   am
    27    25    26   ar
    28    27    30   ar
    29    28    31   ar
    30     1     2   ar
    31     3     7   ar
    32     4     5   ar
    33    13    15    2
    34    22    23    1
@<TRIPOS>MOLECULE
MolPort-020-292-491 MCULE-8266593195 PubChem-110264959
 31 34 0 0 0
SMALL
GASTEIGER

@<TRIPOS>ATOM
      1 C          12.8032   42.1500    6.4768 C.ar    1  UNL1        0.0528
      2 C          12.8658   41.1664    7.4667 C.ar    1  UNL1        0.0294
      3 C          14.0401   40.9998    8.2053 C.ar    1  UNL1        0.0611
      4 C          15.0842   42.7590    6.9981 C.ar    1  UNL1        0.0602
      5 C          13.9267   42.9536    6.2426 C.ar    1  UNL1        0.0294
      6 C          16.2800   43.6066    6.7550 C.3     1  UNL1        0.0521
      7 N          15.1183   41.7943    7.9552 N.ar    1  UNL1       -0.2538
      8 C          14.1013   39.9416    9.2554 C.3     1  UNL1        0.0602
      9 C          13.0223   40.1620   10.3176 C.3     1  UNL1        0.0094
     10 C          13.0900   39.0648   11.3785 C.3     1  UNL1        0.0219
     11 C          14.4748   39.0411   12.0194 C.3     1  UNL1        0.0934
     12 C          15.4867   39.9014    9.8989 C.3     1  UNL1        0.0992
     13 C          16.4342   37.8364   10.9989 C.2     1  UNL1        0.2256
     14 N          15.4898   38.9168   10.9771 N.am    1  UNL1       -0.2792
     15 O          16.4470   37.0286   11.9666 O.2     1  UNL1       -0.2749
     16 C          17.4075   37.6371    9.8723 C.3     1  UNL1        0.0853
     17 C          17.3269   36.2461    9.2369 C.3     1  UNL1        0.0091
     18 C          18.4527   35.9930    8.2512 C.3     1  UNL1        0.0005
     19 C          17.8342   35.1887    7.1319 C.3     1  UNL1        0.0000
     20 C          16.3859   35.6223    7.0815 C.3     1  UNL1        0.0000
     21 C          16.0171   36.0149    8.4990 C.3     1  UNL1        0.0005
     22 N          11.5865   42.3021    5.7322 N.pl3   1  UNL1       -0.2825
     23 H          11.4499   43.1723    5.2927 H       1  UNL1        0.1551
     24 C           9.7274   38.4623    3.3236 C.3     1  UNL1        0.0522
     25 C           9.6278   39.4746    4.4069 C.ar    1  UNL1        0.0634
     26 C           8.5222   39.4822    5.2549 C.ar    1  UNL1        0.0296
     27 C           8.4663   40.4477    6.2582 C.ar    1  UNL1        0.0634
     28 C          10.5468   41.3305    5.5553 C.ar    1  UNL1        0.2200
     29 C           7.3049   40.4907    7.1840 C.3     1  UNL1        0.0522
     30 N           9.4740   41.3497    6.3901 N.ar    1  UNL1       -0.2179
     31 N          10.6151   40.3931    4.5705 N.ar    1  UNL1       -0.2179
@<TRIPOS>BOND
     1    24    25    1
     2    25    31   ar
     3    26    27   ar
     4    28    30   ar
     5    28    22    1
     6     2     3   ar
     7     4     7   ar
     8     5     1   ar
     9     6     4    1
    10     8     3    1
    11     8     9    1
    12     9    10    1
    13    10    11    1
    14    11    14    1
    15    12    14    1
    16    12     8    1
    17    16    13    1
    18    16    17    1
    19    17    18    1
    20    18    19    1
    21    19    20    1
    22    20    21    1
    23    21    17    1
    24    29    27    1
    25    22     1    1
    26    14    13   am
    27    25    26   ar
    28    27    30   ar
    29    28    31   ar
    30     1     2   ar
    31     3     7   ar
    32     4     5   ar
    33    13    15    2
    34    22    23    1
@<TRIPOS>MOLECULE
MolPort-020-292-491 MCULE-8266593195 PubChem-110264959
 31 34 0 0 0
SMALL
GASTEIGER

@<TRIPOS>ATOM
      1 C          13.1318   42.5311    6.5294 C.ar    1  UNL1        0.0528
      2 C          13.4617   41.6517    7.5634 C.ar    1  UNL1        0.0294
      3 C          14.7711   41.6132    8.0496 C.ar    1  UNL1        0.0611
      4 C          15.4255   43.2955    6.5055 C.ar    1  UNL1        0.0602
      5 C          14.1272   43.3609    5.9970 C.ar    1  UNL1        0.0294
      6 C          16.4867   44.1715    5.9454 C.3     1  UNL1        0.0521
      7 N          15.7195   42.4303    7.5119 N.ar    1  UNL1       -0.2538
      8 C          15.1170   40.6654    9.1488 C.3     1  UNL1        0.0602
      9 C          16.6305   40.6089    9.3662 C.3     1  UNL1        0.0094
     10 C          16.9678   39.6441   10.5018 C.3     1  UNL1        0.0219
     11 C          16.4199   38.2547   10.1883 C.3     1  UNL1        0.0934
     12 C          14.5657   39.2717    8.8512 C.3     1  UNL1        0.0992
     13 C          14.0394   37.5855   10.6545 C.2     1  UNL1        0.2256
     14 N          14.9916   38.3499    9.9003 N.am    1  UNL1       -0.2792
     15 O          14.4365   36.7606   11.5210 O.2     1  UNL1       -0.2749
     16 C          12.5631   37.7621   10.4410 C.3     1  UNL1        0.0853
     17 C          12.1702   39.1910   10.0550 C.3     1  UNL1        0.0091
     18 C          12.0230   40.0980   11.2627 C.3     1  UNL1        0.0005
     19 C          10.8597   41.0075   10.9434 C.3     1  UNL1        0.0000
     20 C           9.9549   40.1971   10.0420 C.3     1  UNL1        0.0000
     21 C          10.8619   39.2493    9.2815 C.3     1  UNL1        0.0005
     22 N          11.7809   42.5525    6.0475 N.pl3   1  UNL1       -0.2825
     23 H          11.3980   43.4402    5.8615 H       1  UNL1        0.1551
     24 C          10.8204   38.3806    3.6654 C.3     1  UNL1        0.0522
     25 C          10.4385   39.4090    4.6678 C.ar    1  UNL1        0.0634
     26 C           9.2456   39.2826    5.3767 C.ar    1  UNL1        0.0296
     27 C           8.9234   40.2681    6.3079 C.ar    1  UNL1        0.0634
     28 C          10.9247   41.4279    5.8059 C.ar    1  UNL1        0.2200
     29 C           7.6607   40.1715    7.0852 C.3     1  UNL1        0.0522
     30 N           9.7639   41.3175    6.5050 N.ar    1  UNL1       -0.2179
     31 N          11.2525   40.4726    4.8930 N.ar    1  UNL1       -0.2179
@<TRIPOS>BOND
     1    24    25    1
     2    25    31   ar
     3    26    27   ar
     4    28    30   ar
     5    28    22    1
     6     2     3   ar
     7     4     7   ar
     8     5     1   ar
     9     6     4    1
    10     8     3    1
    11     8     9    1
    12     9    10    1
    13    10    11    1
    14    11    14    1
    15    12    14    1
    16    12     8    1
    17    16    13    1
    18    16    17    1
    19    17    18    1
    20    18    19    1
    21    19    20    1
    22    20    21    1
    23    21    17    1
    24    29    27    1
    25    22     1    1
    26    14    13   am
    27    25    26   ar
    28    27    30   ar
    29    28    31   ar
    30     1     2   ar
    31     3     7   ar
    32     4     5   ar
    33    13    15    2
    34    22    23    1
@<TRIPOS>MOLECULE
MolPort-020-292-491 MCULE-8266593195 PubChem-110264959
 31 34 0 0 0
SMALL
GASTEIGER

@<TRIPOS>ATOM
      1 C          11.5750   40.9160    8.7698 C.ar    1  UNL1        0.0528
      2 C          10.4396   41.3400    8.0753 C.ar    1  UNL1        0.0294
      3 C           9.2750   41.6580    8.7788 C.ar    1  UNL1        0.0611
      4 C          10.3417   41.1409   10.8372 C.ar    1  UNL1        0.0602
      5 C          11.5220   40.8167   10.1663 C.ar    1  UNL1        0.0294
      6 C          10.2775   41.0371   12.3179 C.3     1  UNL1        0.0521
      7 N           9.2511   41.5506   10.1367 N.ar    1  UNL1       -0.2538
      8 C           8.0642   42.1025    8.0287 C.3     1  UNL1        0.0602
      9 C           8.4294   42.5349    6.6072 C.3     1  UNL1        0.0094
     10 C           7.1786   42.9755    5.8486 C.3     1  UNL1        0.0219
     11 C           6.4887   44.1146    6.5938 C.3     1  UNL1        0.0934
     12 C           7.3585   43.2374    8.7697 C.3     1  UNL1        0.0992
     13 C           4.8975   43.7331    8.5056 C.2     1  UNL1        0.2256
     14 N           6.2293   43.7064    7.9716 N.am    1  UNL1       -0.2792
     15 O           3.9484   44.1886    7.8121 O.2     1  UNL1       -0.2749
     16 C           4.6058   43.2090    9.8827 C.3     1  UNL1        0.0853
     17 C           4.6550   41.6812    9.9758 C.3     1  UNL1        0.0091
     18 C           3.2768   41.0509    9.8976 C.3     1  UNL1        0.0005
     19 C           3.3152   39.8799   10.8513 C.3     1  UNL1        0.0000
     20 C           4.2999   40.2749   11.9294 C.3     1  UNL1        0.0000
     21 C           5.3045   41.1942   11.2621 C.3     1  UNL1        0.0005
     22 N          12.7586   40.5956    8.0254 N.pl3   1  UNL1       -0.2825
     23 H          12.8191   39.6773    7.6760 H       1  UNL1        0.1551
     24 C          14.6678   44.3445    5.5149 C.3     1  UNL1        0.0522
     25 C          14.8089   43.2700    6.5316 C.ar    1  UNL1        0.0634
     26 C          16.0175   43.1006    7.2040 C.ar    1  UNL1        0.0296
     27 C          16.1094   42.0816    8.1502 C.ar    1  UNL1        0.0634
     28 C          13.8639   41.4610    7.7325 C.ar    1  UNL1        0.2200
     29 C          17.3802   41.8668    8.8898 C.3     1  UNL1        0.0522
     30 N          15.0370   41.2842    8.3964 N.ar    1  UNL1       -0.2179
     31 N          13.7594   42.4526    6.8055 N.ar    1  UNL1       -0.2179
@<TRIPOS>BOND
     1    24    25    1
     2    25    31   ar
     3    26    27   ar
     4    28    30   ar
     5    28    22    1
     6     2     3   ar
     7     4     7   ar
     8     5     1   ar
     9     6     4    1
    10     8     3    1
    11     8     9    1
    12     9    10    1
    13    10    11    1
    14    11    14    1
    15    12    14    1
    16    12     8    1
    17    16    13    1
    18    16    17    1
    19    17    18    1
    20    18    19    1
    21    19    20    1
    22    20    21    1
    23    21    17    1
    24    29    27    1
    25    22     1    1
    26    14    13   am
    27    25    26   ar
    28    27    30   ar
    29    28    31   ar
    30     1     2   ar
    31     3     7   ar
    32     4     5   ar
    33    13    15    2
    34    22    23    1
@<TRIPOS>MOLECULE
MolPort-020-292-491 MCULE-8266593195 PubChem-110264959
 31 34 0 0 0
SMALL
GASTEIGER

@<TRIPOS>ATOM
      1 C          16.5733   41.9363    8.5276 C.ar    1  UNL1        0.0528
      2 C          15.2654   41.4588    8.4151 C.ar    1  UNL1        0.0294
      3 C          14.3934   42.0372    7.4891 C.ar    1  UNL1        0.0611
      4 C          16.0886   43.5481    6.7919 C.ar    1  UNL1        0.0602
      5 C          16.9862   42.9926    7.7052 C.ar    1  UNL1        0.0294
      6 C          16.5187   44.6692    5.9170 C.3     1  UNL1        0.0521
      7 N          14.8212   43.0646    6.7032 N.ar    1  UNL1       -0.2538
      8 C          12.9956   41.5266    7.3808 C.3     1  UNL1        0.0602
      9 C          12.4870   41.6261    5.9412 C.3     1  UNL1        0.0094
     10 C          11.0601   41.0889    5.8441 C.3     1  UNL1        0.0219
     11 C          10.1446   41.8614    6.7897 C.3     1  UNL1        0.0934
     12 C          12.0700   42.2862    8.3301 C.3     1  UNL1        0.0992
     13 C           9.9251   41.3106    9.2353 C.2     1  UNL1        0.2256
     14 N          10.6984   41.8232    8.1403 N.am    1  UNL1       -0.2792
     15 O           8.7270   40.9633    9.0538 O.2     1  UNL1       -0.2749
     16 C          10.5258   41.1632   10.6041 C.3     1  UNL1        0.0853
     17 C          11.2689   39.8391   10.8035 C.3     1  UNL1        0.0091
     18 C          12.7712   39.9885   10.6494 C.3     1  UNL1        0.0005
     19 C          13.2329   38.7245    9.9628 C.3     1  UNL1        0.0000
     20 C          12.0640   38.2834    9.1101 C.3     1  UNL1        0.0000
     21 C          10.8175   38.7623    9.8286 C.3     1  UNL1        0.0005
     22 N          17.4498   41.3260    9.4853 N.pl3   1  UNL1       -0.2825
     23 H          18.1036   41.9205    9.9193 H       1  UNL1        0.1551
     24 C          15.5221   37.5817   11.9884 C.3     1  UNL1        0.0522
     25 C          16.5689   38.1233   11.0834 C.ar    1  UNL1        0.0634
     26 C          17.5858   37.2925   10.6174 C.ar    1  UNL1        0.0296
     27 C          18.5485   37.8385    9.7705 C.ar    1  UNL1        0.0634
     28 C          17.4820   39.9485    9.8823 C.ar    1  UNL1        0.2200
     29 C          19.6500   36.9871    9.2511 C.3     1  UNL1        0.0522
     30 N          18.4800   39.1495    9.4198 N.ar    1  UNL1       -0.2179
     31 N          16.5345   39.4288   10.7103 N.ar    1  UNL1       -0.2179
@<TRIPOS>BOND
     1    24    25    1
     2    25    31   ar
     3    26    27   ar
     4    28    30   ar
     5    28    22    1
     6     2     3   ar
     7     4     7   ar
     8     5     1   ar
     9     6     4    1
    10     8     3    1
    11     8     9    1
    12     9    10    1
    13    10    11    1
    14    11    14    1
    15    12    14    1
    16    12     8    1
    17    16    13    1
    18    16    17    1
    19    17    18    1
    20    18    19    1
    21    19    20    1
    22    20    21    1
    23    21    17    1
    24    29    27    1
    25    22     1    1
    26    14    13   am
    27    25    26   ar
    28    27    30   ar
    29    28    31   ar
    30     1     2   ar
    31     3     7   ar
    32     4     5   ar
    33    13    15    2
    34    22    23    1
@<TRIPOS>MOLECULE
MolPort-020-292-491 MCULE-8266593195 PubChem-110264959
 31 34 0 0 0
SMALL
GASTEIGER

@<TRIPOS>ATOM
      1 C          14.0691   39.7155    9.5147 C.ar    1  UNL1        0.0528
      2 C          12.9653   40.5713    9.5392 C.ar    1  UNL1        0.0294
      3 C          11.7120   40.0761    9.9083 C.ar    1  UNL1        0.0611
      4 C          12.6289   37.9077   10.2242 C.ar    1  UNL1        0.0602
      5 C          13.8954   38.3694    9.8618 C.ar    1  UNL1        0.0294
      6 C          12.4366   36.4813   10.5927 C.3     1  UNL1        0.0521
      7 N          11.5716   38.7620   10.2393 N.ar    1  UNL1       -0.2538
      8 C          10.5366   40.9950    9.9242 C.3     1  UNL1        0.0602
      9 C           9.9164   41.0657   11.3211 C.3     1  UNL1        0.0094
     10 C           8.7225   42.0189   11.3241 C.3     1  UNL1        0.0219
     11 C           7.6862   41.5629   10.3009 C.3     1  UNL1        0.0934
     12 C           9.4949   40.5545    8.8968 C.3     1  UNL1        0.0992
     13 C           7.8305   42.1416    7.8562 C.2     1  UNL1        0.2256
     14 N           8.3236   41.4205    8.9949 N.am    1  UNL1       -0.2792
     15 O           6.7886   42.8440    7.9566 O.2     1  UNL1       -0.2749
     16 C           8.5477   42.0885    6.5374 C.3     1  UNL1        0.0853
     17 C           9.3112   40.7804    6.3117 C.3     1  UNL1        0.0091
     18 C          10.6226   40.9937    5.5784 C.3     1  UNL1        0.0005
     19 C          10.7704   39.8009    4.6631 C.3     1  UNL1        0.0000
     20 C           9.3577   39.3829    4.3205 C.3     1  UNL1        0.0000
     21 C           8.5069   39.7633    5.5168 C.3     1  UNL1        0.0005
     22 N          15.3454   40.2475    9.1329 N.pl3   1  UNL1       -0.2825
     23 H          16.1358   39.7441    9.4346 H       1  UNL1        0.1551
     24 C          18.2396   44.0331    7.9953 C.3     1  UNL1        0.0522
     25 C          16.9824   43.2667    7.7944 C.ar    1  UNL1        0.0634
     26 C          16.0472   43.6950    6.8544 C.ar    1  UNL1        0.0296
     27 C          14.8810   42.9488    6.6960 C.ar    1  UNL1        0.0634
     28 C          15.6007   41.4291    8.3617 C.ar    1  UNL1        0.2200
     29 C          13.8578   43.3708    5.7045 C.3     1  UNL1        0.0522
     30 N          14.6794   41.8352    7.4482 N.ar    1  UNL1       -0.2179
     31 N          16.7448   42.1482    8.5273 N.ar    1  UNL1       -0.2179
@<TRIPOS>BOND
     1    24    25    1
     2    25    31   ar
     3    26    27   ar
     4    28    30   ar
     5    28    22    1
     6     2     3   ar
     7     4     7   ar
     8     5     1   ar
     9     6     4    1
    10     8     3    1
    11     8     9    1
    12     9    10    1
    13    10    11    1
    14    11    14    1
    15    12    14    1
    16    12     8    1
    17    16    13    1
    18    16    17    1
    19    17    18    1
    20    18    19    1
    21    19    20    1
    22    20    21    1
    23    21    17    1
    24    29    27    1
    25    22     1    1
    26    14    13   am
    27    25    26   ar
    28    27    30   ar
    29    28    31   ar
    30     1     2   ar
    31     3     7   ar
    32     4     5   ar
    33    13    15    2
    34    22    23    1
@<TRIPOS>MOLECULE
MolPort-020-292-491 MCULE-8266593195 PubChem-110264959
 31 34 0 0 0
SMALL
GASTEIGER

@<TRIPOS>ATOM
      1 C          12.0717   41.7908    6.5983 C.ar    1  UNL1        0.0528
      2 C          12.2948   40.6841    7.4210 C.ar    1  UNL1        0.0294
      3 C          13.5486   40.4991    8.0093 C.ar    1  UNL1        0.0611
      4 C          14.3571   42.4813    6.9800 C.ar    1  UNL1        0.0602
      5 C          13.1166   42.6975    6.3776 C.ar    1  UNL1        0.0294
      6 C          15.4704   43.4378    6.7499 C.3     1  UNL1        0.0521
      7 N          14.5473   41.3958    7.7759 N.ar    1  UNL1       -0.2538
      8 C          13.7810   39.3102    8.8804 C.3     1  UNL1        0.0602
      9 C          12.4654   38.5925    9.1887 C.3     1  UNL1        0.0094
     10 C          12.7209   37.3715   10.0709 C.3     1  UNL1        0.0219
     11 C          13.4149   37.7950   11.3623 C.3     1  UNL1        0.0934
     12 C          14.4841   39.7197   10.1738 C.3     1  UNL1        0.0992
     13 C          15.9027   38.1333   11.5313 C.2     1  UNL1        0.2256
     14 N          14.6211   38.5520   11.0395 N.am    1  UNL1       -0.2792
     15 O          15.9872   37.1509   12.3167 O.2     1  UNL1       -0.2749
     16 C          17.1604   38.8396   11.1121 C.3     1  UNL1        0.0853
     17 C          17.9838   38.0583   10.0842 C.3     1  UNL1        0.0091
     18 C          17.1692   36.9879    9.3816 C.3     1  UNL1        0.0005
     19 C          18.1124   35.8228    9.1940 C.3     1  UNL1        0.0000
     20 C          19.0826   35.9040   10.3517 C.3     1  UNL1        0.0000
     21 C          19.1944   37.3752   10.7016 C.3     1  UNL1        0.0005
     22 N          10.7760   41.9593    6.0062 N.pl3   1  UNL1       -0.2825
     23 H          10.7599   42.2840    5.0769 H       1  UNL1        0.1551
     24 C           6.5094   39.5528    6.0870 C.3     1  UNL1        0.0522
     25 C           7.4326   40.5583    6.6742 C.ar    1  UNL1        0.0634
     26 C           7.0617   41.2610    7.8189 C.ar    1  UNL1        0.0296
     27 C           7.9555   42.1954    8.3386 C.ar    1  UNL1        0.0634
     28 C           9.5017   41.7086    6.6139 C.ar    1  UNL1        0.2200
     29 C           7.5990   42.9663    9.5578 C.3     1  UNL1        0.0522
     30 N           9.1530   42.4015    7.7304 N.ar    1  UNL1       -0.2179
     31 N           8.6386   40.7925    6.0949 N.ar    1  UNL1       -0.2179
@<TRIPOS>BOND
     1    24    25    1
     2    25    31   ar
     3    26    27   ar
     4    28    30   ar
     5    28    22    1
     6     2     3   ar
     7     4     7   ar
     8     5     1   ar
     9     6     4    1
    10     8     3    1
    11     8     9    1
    12     9    10    1
    13    10    11    1
    14    11    14    1
    15    12    14    1
    16    12     8    1
    17    16    13    1
    18    16    17    1
    19    17    18    1
    20    18    19    1
    21    19    20    1
    22    20    21    1
    23    21    17    1
    24    29    27    1
    25    22     1    1
    26    14    13   am
    27    25    26   ar
    28    27    30   ar
    29    28    31   ar
    30     1     2   ar
    31     3     7   ar
    32     4     5   ar
    33    13    15    2
    34    22    23    1
