@<TRIPOS>MOLECULE
MolPort-028-600-042 90408699 CHEMBL3183131 CSSS00025701770 MCULE-2835404757 PubChem-59437537 ZINC000090408699
 28 30 0 0 0
SMALL
GASTEIGER

@<TRIPOS>ATOM
      1 C          15.4903   41.3280    8.6188 C.ar    1  UNL1        0.1316
      2 C          16.5690   42.1189    8.1842 C.ar    1  UNL1        0.0381
      3 C          16.3738   43.0766    7.1641 C.ar    1  UNL1        0.0772
      4 C          15.0916   43.2547    6.6079 C.ar    1  UNL1        0.0429
      5 C          14.0660   42.4403    7.0778 C.ar    1  UNL1        0.1681
      6 C          12.2548   41.4762    7.4547 C.ar    1  UNL1        0.2419
      7 N          12.7848   42.4518    6.6695 N.ar    1  UNL1       -0.1931
      8 N          13.1513   40.9043    8.2914 N.ar    1  UNL1       -0.1269
      9 N          14.2828   41.5293    8.0331 N.ar    1  UNL1       -0.1962
     10 C          17.5091   43.9599    6.7355 C.3     1  UNL1        0.4188
     11 F          17.0276   45.1618    6.2460 F       1  UNL1       -0.1659
     12 F          18.2508   43.3447    5.7416 F       1  UNL1       -0.1659
     13 F          18.3279   44.2097    7.8208 F       1  UNL1       -0.1659
     14 C          10.0052   41.2445    6.2925 C.2     1  UNL1        0.2532
     15 N          10.8805   41.0787    7.4158 N.am    1  UNL1       -0.2492
     16 O          10.4256   41.7761    5.2285 O.2     1  UNL1       -0.2697
     17 H          10.5069   40.6584    8.2239 H       1  UNL1        0.1581
     18 C           8.6062   40.7913    6.3812 C.ar    1  UNL1        0.0729
     19 C           7.6756   41.4951    7.1551 C.ar    1  UNL1        0.0077
     20 C           6.3527   41.0569    7.2322 C.ar    1  UNL1        0.0208
     21 C           5.9725   39.9120    6.5297 C.ar    1  UNL1        0.0989
     22 C           8.1789   39.6476    5.6934 C.ar    1  UNL1        0.1034
     23 N           6.8853   39.2366    5.7813 N.ar    1  UNL1       -0.2422
     24 N          15.6454   40.3357    9.6404 N.pl3   1  UNL1       -0.3196
     25 H          16.4040   40.4233   10.2618 H       1  UNL1        0.1481
     26 C          15.4648   37.9101    9.4841 C.3     1  UNL1        0.0212
     27 C          14.7440   39.2043    9.8116 C.3     1  UNL1        0.0705
     28 C          14.2702   39.1553   11.2486 C.3     1  UNL1        0.0212
@<TRIPOS>BOND
     1    26    27    1
     2    27    28    1
     3    27    24    1
     4     2     3   ar
     5    10     3    1
     6    10    11    1
     7    10    12    1
     8    10    13    1
     9     4     5   ar
    10     6     7   ar
    11     6    15    1
    12    14    18    1
    13    19    20   ar
    14    21    23   ar
    15    22    18   ar
    16    24     1    1
    17    15    14   am
    18     9     8   ar
    19     9     1   ar
    20     9     5   ar
    21     1     2   ar
    22     3     4   ar
    23     5     7   ar
    24     6     8   ar
    25    14    16    2
    26    18    19   ar
    27    20    21   ar
    28    22    23   ar
    29    24    25    1
    30    15    17    1
@<TRIPOS>MOLECULE
MolPort-028-600-042 90408699 CHEMBL3183131 CSSS00025701770 MCULE-2835404757 PubChem-59437537 ZINC000090408699
 28 30 0 0 0
SMALL
GASTEIGER

@<TRIPOS>ATOM
      1 C          15.3407   41.3154    8.6224 C.ar    1  UNL1        0.1316
      2 C          16.4261   42.0626    8.1308 C.ar    1  UNL1        0.0381
      3 C          16.2043   43.0860    7.1824 C.ar    1  UNL1        0.0772
      4 C          14.8923   43.3724    6.7562 C.ar    1  UNL1        0.0429
      5 C          13.8613   42.5965    7.2770 C.ar    1  UNL1        0.1681
      6 C          12.0314   41.7244    7.7699 C.ar    1  UNL1        0.2419
      7 N          12.5525   42.7086    6.9894 N.ar    1  UNL1       -0.1931
      8 N          12.9592   41.0533    8.4907 N.ar    1  UNL1       -0.1269
      9 N          14.1019   41.6220    8.1613 N.ar    1  UNL1       -0.1962
     10 C          17.3525   43.9214    6.6961 C.3     1  UNL1        0.4188
     11 F          18.0834   43.2309    5.7449 F       1  UNL1       -0.1659
     12 F          18.1927   44.2460    7.7473 F       1  UNL1       -0.1659
     13 F          16.8638   45.0854    6.1330 F       1  UNL1       -0.1659
     14 C           9.6771   42.0989    8.6543 C.2     1  UNL1        0.2532
     15 N          10.6361   41.4138    7.8378 N.am    1  UNL1       -0.2492
     16 O          10.0351   43.0587    9.3905 O.2     1  UNL1       -0.2697
     17 H          10.3090   40.6714    7.2800 H       1  UNL1        0.1581
     18 C           8.2650   41.6795    8.6335 C.ar    1  UNL1        0.0729
     19 C           7.6784   41.2058    7.4538 C.ar    1  UNL1        0.0077
     20 C           6.3397   40.8110    7.4453 C.ar    1  UNL1        0.0208
     21 C           5.5974   40.8950    8.6245 C.ar    1  UNL1        0.0989
     22 C           7.4810   41.7462    9.7930 C.ar    1  UNL1        0.1034
     23 N           6.1780   41.3568    9.7644 N.ar    1  UNL1       -0.2422
     24 N          15.5205   40.2598    9.5743 N.pl3   1  UNL1       -0.3196
     25 H          16.3470   40.2525   10.1092 H       1  UNL1        0.1481
     26 C          15.1274   37.8643    9.3572 C.3     1  UNL1        0.0212
     27 C          14.5494   39.1969    9.7952 C.3     1  UNL1        0.0705
     28 C          14.2107   39.1273   11.2690 C.3     1  UNL1        0.0212
@<TRIPOS>BOND
     1    26    27    1
     2    27    28    1
     3    27    24    1
     4     2     3   ar
     5    10     3    1
     6    10    11    1
     7    10    12    1
     8    10    13    1
     9     4     5   ar
    10     6     7   ar
    11     6    15    1
    12    14    18    1
    13    19    20   ar
    14    21    23   ar
    15    22    18   ar
    16    24     1    1
    17    15    14   am
    18     9     8   ar
    19     9     1   ar
    20     9     5   ar
    21     1     2   ar
    22     3     4   ar
    23     5     7   ar
    24     6     8   ar
    25    14    16    2
    26    18    19   ar
    27    20    21   ar
    28    22    23   ar
    29    24    25    1
    30    15    17    1
@<TRIPOS>MOLECULE
MolPort-028-600-042 90408699 CHEMBL3183131 CSSS00025701770 MCULE-2835404757 PubChem-59437537 ZINC000090408699
 28 30 0 0 0
SMALL
GASTEIGER

@<TRIPOS>ATOM
      1 C           6.9499   41.6630   10.4021 C.ar    1  UNL1        0.1316
      2 C           7.3171   41.4126    9.0678 C.ar    1  UNL1        0.0381
      3 C           6.3370   41.0180    8.1299 C.ar    1  UNL1        0.0772
      4 C           4.9908   40.9061    8.5302 C.ar    1  UNL1        0.0429
      5 C           4.6910   41.1644    9.8641 C.ar    1  UNL1        0.1681
      6 C           3.7767   41.4484   11.7176 C.ar    1  UNL1        0.2419
      7 N           3.4761   41.1030   10.4371 N.ar    1  UNL1       -0.1931
      8 N           5.0899   41.7065   11.9173 N.ar    1  UNL1       -0.1269
      9 N           5.6422   41.5199   10.7351 N.ar    1  UNL1       -0.1962
     10 C           6.7152   40.8025    6.6935 C.3     1  UNL1        0.4188
     11 F           8.0316   40.3855    6.5979 F       1  UNL1       -0.1659
     12 F           6.5717   41.9770    5.9750 F       1  UNL1       -0.1659
     13 F           5.8940   39.8350    6.1454 F       1  UNL1       -0.1659
     14 C           1.5226   42.1598   12.6546 C.2     1  UNL1        0.2532
     15 N           2.8094   41.5378   12.7685 N.am    1  UNL1       -0.2492
     16 O           1.1616   42.6853   11.5661 O.2     1  UNL1       -0.2697
     17 H           3.0462   41.1412   13.6379 H       1  UNL1        0.1581
     18 C           0.6163   42.1852   13.8158 C.ar    1  UNL1        0.0729
     19 C          -0.5824   41.4619   13.8019 C.ar    1  UNL1        0.0077
     20 C          -1.4335   41.4931   14.9075 C.ar    1  UNL1        0.0208
     21 C          -1.0743   42.2525   16.0223 C.ar    1  UNL1        0.0989
     22 C           0.9354   42.9335   14.9569 C.ar    1  UNL1        0.1034
     23 N           0.0926   42.9511   16.0243 N.ar    1  UNL1       -0.2422
     24 N           7.9122   42.0520   11.3895 N.pl3   1  UNL1       -0.3196
     25 H           7.8760   42.9727   11.7362 H       1  UNL1        0.1481
     26 C          10.3020   41.5732   11.3791 C.3     1  UNL1        0.0212
     27 C           8.9414   41.1619   11.9095 C.3     1  UNL1        0.0705
     28 C           8.9558   41.2433   13.4211 C.3     1  UNL1        0.0212
@<TRIPOS>BOND
     1    26    27    1
     2    27    28    1
     3    27    24    1
     4     2     3   ar
     5    10     3    1
     6    10    11    1
     7    10    12    1
     8    10    13    1
     9     4     5   ar
    10     6     7   ar
    11     6    15    1
    12    14    18    1
    13    19    20   ar
    14    21    23   ar
    15    22    18   ar
    16    24     1    1
    17    15    14   am
    18     9     8   ar
    19     9     1   ar
    20     9     5   ar
    21     1     2   ar
    22     3     4   ar
    23     5     7   ar
    24     6     8   ar
    25    14    16    2
    26    18    19   ar
    27    20    21   ar
    28    22    23   ar
    29    24    25    1
    30    15    17    1
@<TRIPOS>MOLECULE
MolPort-028-600-042 90408699 CHEMBL3183131 CSSS00025701770 MCULE-2835404757 PubChem-59437537 ZINC000090408699
 28 30 0 0 0
SMALL
GASTEIGER

@<TRIPOS>ATOM
      1 C           8.6893   41.1525    6.7344 C.ar    1  UNL1        0.1316
      2 C           7.4683   41.1214    7.4317 C.ar    1  UNL1        0.0381
      3 C           7.4178   41.5350    8.7816 C.ar    1  UNL1        0.0772
      4 C           8.5862   42.0047    9.4136 C.ar    1  UNL1        0.0429
      5 C           9.7634   42.0088    8.6718 C.ar    1  UNL1        0.1681
      6 C          11.7220   42.2002    7.9796 C.ar    1  UNL1        0.2419
      7 N          10.9749   42.4085    9.0967 N.ar    1  UNL1       -0.1931
      8 N          11.0151   41.7066    6.9368 N.ar    1  UNL1       -0.1269
      9 N           9.7859   41.5953    7.3997 N.ar    1  UNL1       -0.1962
     10 C           6.1072   41.5548    9.5129 C.3     1  UNL1        0.4188
     11 F           5.1603   40.8138    8.8271 F       1  UNL1       -0.1659
     12 F           5.6441   42.8532    9.6388 F       1  UNL1       -0.1659
     13 F           6.2792   41.0127   10.7728 F       1  UNL1       -0.1659
     14 C          13.7515   43.2585    6.8722 C.2     1  UNL1        0.2532
     15 N          13.1243   42.4730    7.8946 N.am    1  UNL1       -0.2492
     16 O          13.0621   43.7743    5.9503 O.2     1  UNL1       -0.2697
     17 H          13.7038   42.0913    8.5930 H       1  UNL1        0.1581
     18 C          15.2100   43.4644    6.8984 C.ar    1  UNL1        0.0729
     19 C          16.0349   42.6320    7.6645 C.ar    1  UNL1        0.0077
     20 C          17.4154   42.8361    7.6821 C.ar    1  UNL1        0.0208
     21 C          17.9596   43.8774    6.9284 C.ar    1  UNL1        0.0989
     22 C          15.8008   44.4969    6.1578 C.ar    1  UNL1        0.1034
     23 N          17.1484   44.6796    6.1881 N.ar    1  UNL1       -0.2422
     24 N           8.7898   40.7298    5.3692 N.pl3   1  UNL1       -0.3196
     25 H           8.6142   41.3932    4.6633 H       1  UNL1        0.1481
     26 C          10.4467   39.3771    4.2009 C.3     1  UNL1        0.0212
     27 C           9.1370   39.3736    4.9667 C.3     1  UNL1        0.0705
     28 C           9.2890   38.5093    6.2003 C.3     1  UNL1        0.0212
@<TRIPOS>BOND
     1    26    27    1
     2    27    28    1
     3    27    24    1
     4     2     3   ar
     5    10     3    1
     6    10    11    1
     7    10    12    1
     8    10    13    1
     9     4     5   ar
    10     6     7   ar
    11     6    15    1
    12    14    18    1
    13    19    20   ar
    14    21    23   ar
    15    22    18   ar
    16    24     1    1
    17    15    14   am
    18     9     8   ar
    19     9     1   ar
    20     9     5   ar
    21     1     2   ar
    22     3     4   ar
    23     5     7   ar
    24     6     8   ar
    25    14    16    2
    26    18    19   ar
    27    20    21   ar
    28    22    23   ar
    29    24    25    1
    30    15    17    1
@<TRIPOS>MOLECULE
MolPort-028-600-042 90408699 CHEMBL3183131 CSSS00025701770 MCULE-2835404757 PubChem-59437537 ZINC000090408699
 28 30 0 0 0
SMALL
GASTEIGER

@<TRIPOS>ATOM
      1 C           4.3921   43.4236    9.3740 C.ar    1  UNL1        0.1316
      2 C           3.4531   43.1639   10.3883 C.ar    1  UNL1        0.0381
      3 C           3.4006   41.8862   10.9889 C.ar    1  UNL1        0.0772
      4 C           4.3100   40.8872   10.5884 C.ar    1  UNL1        0.0429
      5 C           5.2129   41.2044    9.5784 C.ar    1  UNL1        0.1681
      6 C           6.7206   41.2117    8.1366 C.ar    1  UNL1        0.2419
      7 N           6.1469   40.3902    9.0560 N.ar    1  UNL1       -0.1931
      8 N           6.1757   42.4496    8.0983 N.ar    1  UNL1       -0.1269
      9 N           5.2291   42.4177    9.0151 N.ar    1  UNL1       -0.1962
     10 C           2.4371   41.6212   12.1087 C.3     1  UNL1        0.4188
     11 F           2.4980   42.6356   13.0485 F       1  UNL1       -0.1659
     12 F           2.7399   40.4233   12.7330 F       1  UNL1       -0.1659
     13 F           1.1535   41.5533   11.6001 F       1  UNL1       -0.1659
     14 C           7.6716   40.0161    6.1041 C.2     1  UNL1        0.2532
     15 N           7.8008   40.8228    7.2823 N.am    1  UNL1       -0.2492
     16 O           6.5409   39.5880    5.7443 O.2     1  UNL1       -0.2697
     17 H           8.7036   41.1336    7.5225 H       1  UNL1        0.1581
     18 C           8.8666   39.6852    5.3086 C.ar    1  UNL1        0.0729
     19 C           8.9802   38.4423    4.6742 C.ar    1  UNL1        0.0077
     20 C          10.1168   38.1393    3.9230 C.ar    1  UNL1        0.0208
     21 C          11.1341   39.0889    3.8139 C.ar    1  UNL1        0.0989
     22 C           9.9131   40.6070    5.1710 C.ar    1  UNL1        0.1034
     23 N          11.0127   40.2928    4.4346 N.ar    1  UNL1       -0.2422
     24 N           4.4718   44.6999    8.7281 N.pl3   1  UNL1       -0.3196
     25 H           4.8588   45.4521    9.2317 H       1  UNL1        0.1481
     26 C           2.5555   45.3708    7.3796 C.3     1  UNL1        0.0212
     27 C           4.0124   44.9473    7.3681 C.3     1  UNL1        0.0705
     28 C           4.8429   46.0536    6.7532 C.3     1  UNL1        0.0212
@<TRIPOS>BOND
     1    26    27    1
     2    27    28    1
     3    27    24    1
     4     2     3   ar
     5    10     3    1
     6    10    11    1
     7    10    12    1
     8    10    13    1
     9     4     5   ar
    10     6     7   ar
    11     6    15    1
    12    14    18    1
    13    19    20   ar
    14    21    23   ar
    15    22    18   ar
    16    24     1    1
    17    15    14   am
    18     9     8   ar
    19     9     1   ar
    20     9     5   ar
    21     1     2   ar
    22     3     4   ar
    23     5     7   ar
    24     6     8   ar
    25    14    16    2
    26    18    19   ar
    27    20    21   ar
    28    22    23   ar
    29    24    25    1
    30    15    17    1
@<TRIPOS>MOLECULE
MolPort-028-600-042 90408699 CHEMBL3183131 CSSS00025701770 MCULE-2835404757 PubChem-59437537 ZINC000090408699
 28 30 0 0 0
SMALL
GASTEIGER

@<TRIPOS>ATOM
      1 C          10.0617   40.9136    5.6776 C.ar    1  UNL1        0.1316
      2 C          10.6808   40.0730    4.7353 C.ar    1  UNL1        0.0381
      3 C          10.0178   38.9084    4.2877 C.ar    1  UNL1        0.0772
      4 C           8.7264   38.6111    4.7662 C.ar    1  UNL1        0.0429
      5 C           8.1685   39.4798    5.6990 C.ar    1  UNL1        0.1681
      6 C           6.9478   40.4659    7.0736 C.ar    1  UNL1        0.2419
      7 N           6.9596   39.3642    6.2764 N.ar    1  UNL1       -0.1931
      8 N           8.0748   41.2100    6.9898 N.ar    1  UNL1       -0.1269
      9 N           8.8260   40.5667    6.1183 N.ar    1  UNL1       -0.1962
     10 C          10.6516   38.0379    3.2421 C.3     1  UNL1        0.4188
     11 F          10.1947   38.3854    1.9826 F       1  UNL1       -0.1659
     12 F          10.3447   36.7075    3.4706 F       1  UNL1       -0.1659
     13 F          12.0239   38.1984    3.2850 F       1  UNL1       -0.1659
     14 C           5.9750   41.2155    9.3000 C.2     1  UNL1        0.2532
     15 N           5.8553   40.8227    7.9263 N.am    1  UNL1       -0.2492
     16 O           7.1079   41.2688    9.8523 O.2     1  UNL1       -0.2697
     17 H           4.9504   40.7963    7.5393 H       1  UNL1        0.1581
     18 C           4.7677   41.5591   10.0712 C.ar    1  UNL1        0.0729
     19 C           4.5387   40.9902   11.3298 C.ar    1  UNL1        0.0077
     20 C           3.3916   41.3228   12.0519 C.ar    1  UNL1        0.0208
     21 C           2.4799   42.2266   11.5036 C.ar    1  UNL1        0.0989
     22 C           3.8248   42.4615    9.5610 C.ar    1  UNL1        0.1034
     23 N           2.7130   42.7728   10.2801 N.ar    1  UNL1       -0.2422
     24 N          10.7024   42.0969    6.1694 N.pl3   1  UNL1       -0.3196
     25 H          10.3792   42.9687    5.8459 H       1  UNL1        0.1481
     26 C          11.9072   40.7193    7.7792 C.3     1  UNL1        0.0212
     27 C          11.8049   42.0826    7.1212 C.3     1  UNL1        0.0705
     28 C          13.0987   42.3770    6.3923 C.3     1  UNL1        0.0212
@<TRIPOS>BOND
     1    26    27    1
     2    27    28    1
     3    27    24    1
     4     2     3   ar
     5    10     3    1
     6    10    11    1
     7    10    12    1
     8    10    13    1
     9     4     5   ar
    10     6     7   ar
    11     6    15    1
    12    14    18    1
    13    19    20   ar
    14    21    23   ar
    15    22    18   ar
    16    24     1    1
    17    15    14   am
    18     9     8   ar
    19     9     1   ar
    20     9     5   ar
    21     1     2   ar
    22     3     4   ar
    23     5     7   ar
    24     6     8   ar
    25    14    16    2
    26    18    19   ar
    27    20    21   ar
    28    22    23   ar
    29    24    25    1
    30    15    17    1
@<TRIPOS>MOLECULE
MolPort-028-600-042 90408699 CHEMBL3183131 CSSS00025701770 MCULE-2835404757 PubChem-59437537 ZINC000090408699
 28 30 0 0 0
SMALL
GASTEIGER

@<TRIPOS>ATOM
      1 C          10.2303   41.3527    8.6420 C.ar    1  UNL1        0.1316
      2 C           9.0576   41.6207    9.3706 C.ar    1  UNL1        0.0381
      3 C           9.0290   41.3979   10.7654 C.ar    1  UNL1        0.0772
      4 C          10.1858   40.9361   11.4240 C.ar    1  UNL1        0.0429
      5 C          11.3135   40.6869   10.6479 C.ar    1  UNL1        0.1681
      6 C          13.2047   40.1874    9.9228 C.ar    1  UNL1        0.2419
      7 N          12.5026   40.2373   11.0864 N.ar    1  UNL1       -0.1931
      8 N          12.4940   40.5821    8.8412 N.ar    1  UNL1       -0.1269
      9 N          11.3074   40.8904    9.3257 N.ar    1  UNL1       -0.1962
     10 C           7.7974   41.7338   11.5549 C.3     1  UNL1        0.4188
     11 F           7.3987   40.6469   12.3135 F       1  UNL1       -0.1659
     12 F           6.7607   42.0834   10.7068 F       1  UNL1       -0.1659
     13 F           8.0702   42.7962   12.3962 F       1  UNL1       -0.1659
     14 C          15.3023   39.1129   10.8772 C.2     1  UNL1        0.2532
     15 N          14.5681   39.7623    9.8307 N.am    1  UNL1       -0.2492
     16 O          14.7538   38.8719   11.9873 O.2     1  UNL1       -0.2697
     17 H          15.0389   39.9288    8.9823 H       1  UNL1        0.1581
     18 C          16.7059   38.7246   10.6546 C.ar    1  UNL1        0.0729
     19 C          17.1770   37.4761   11.0784 C.ar    1  UNL1        0.0077
     20 C          18.5087   37.1185   10.8624 C.ar    1  UNL1        0.0208
     21 C          19.3604   38.0195   10.2208 C.ar    1  UNL1        0.0989
     22 C          17.5972   39.5964   10.0148 C.ar    1  UNL1        0.1034
     23 N          18.8914   39.2294    9.8136 N.ar    1  UNL1       -0.2422
     24 N          10.3003   41.5508    7.2248 N.pl3   1  UNL1       -0.3196
     25 H          10.8007   42.3292    6.8887 H       1  UNL1        0.1481
     26 C          10.3874   40.7667    4.9187 C.3     1  UNL1        0.0212
     27 C           9.6726   40.6656    6.2531 C.3     1  UNL1        0.0705
     28 C           9.7556   39.2381    6.7504 C.3     1  UNL1        0.0212
@<TRIPOS>BOND
     1    26    27    1
     2    27    28    1
     3    27    24    1
     4     2     3   ar
     5    10     3    1
     6    10    11    1
     7    10    12    1
     8    10    13    1
     9     4     5   ar
    10     6     7   ar
    11     6    15    1
    12    14    18    1
    13    19    20   ar
    14    21    23   ar
    15    22    18   ar
    16    24     1    1
    17    15    14   am
    18     9     8   ar
    19     9     1   ar
    20     9     5   ar
    21     1     2   ar
    22     3     4   ar
    23     5     7   ar
    24     6     8   ar
    25    14    16    2
    26    18    19   ar
    27    20    21   ar
    28    22    23   ar
    29    24    25    1
    30    15    17    1
@<TRIPOS>MOLECULE
MolPort-028-600-042 90408699 CHEMBL3183131 CSSS00025701770 MCULE-2835404757 PubChem-59437537 ZINC000090408699
 28 30 0 0 0
SMALL
GASTEIGER

@<TRIPOS>ATOM
      1 C          12.1180   41.9658    9.0384 C.ar    1  UNL1        0.1316
      2 C          10.8148   42.2804    9.4633 C.ar    1  UNL1        0.0381
      3 C          10.2246   41.5540   10.5215 C.ar    1  UNL1        0.0772
      4 C          10.9567   40.5370   11.1656 C.ar    1  UNL1        0.0429
      5 C          12.2399   40.2710   10.6977 C.ar    1  UNL1        0.1681
      6 C          14.1603   39.5303   10.3585 C.ar    1  UNL1        0.2419
      7 N          13.0868   39.3401   11.1713 N.ar    1  UNL1       -0.1931
      8 N          13.9847   40.5146    9.4469 N.ar    1  UNL1       -0.1269
      9 N          12.7678   40.9634    9.6821 N.ar    1  UNL1       -0.1962
     10 C           8.8553   41.9222   11.0139 C.3     1  UNL1        0.4188
     11 F           8.5510   41.2184   12.1662 F       1  UNL1       -0.1659
     12 F           7.9020   41.6292   10.0538 F       1  UNL1       -0.1659
     13 F           8.8179   43.2765   11.2885 F       1  UNL1       -0.1659
     14 C          15.7109   37.6615    9.6045 C.2     1  UNL1        0.2532
     15 N          15.3712   38.7725   10.4449 N.am    1  UNL1       -0.2492
     16 O          14.9181   37.2784    8.7013 O.2     1  UNL1       -0.2697
     17 H          16.0221   39.0346   11.1354 H       1  UNL1        0.1581
     18 C          16.9938   36.9632    9.7970 C.ar    1  UNL1        0.0729
     19 C          17.8682   37.3459   10.8214 C.ar    1  UNL1        0.0077
     20 C          19.0810   36.6773   10.9948 C.ar    1  UNL1        0.0208
     21 C          19.4083   35.6265   10.1361 C.ar    1  UNL1        0.0989
     22 C          17.3645   35.9027    8.9594 C.ar    1  UNL1        0.1034
     23 N          18.5510   35.2638    9.1446 N.ar    1  UNL1       -0.2422
     24 N          12.7504   42.6668    7.9608 N.pl3   1  UNL1       -0.3196
     25 H          12.9116   43.6323    8.0659 H       1  UNL1        0.1481
     26 C          11.9637   41.4583    5.9959 C.3     1  UNL1        0.0212
     27 C          13.1683   42.0314    6.7185 C.3     1  UNL1        0.0705
     28 C          13.8334   43.0606    5.8295 C.3     1  UNL1        0.0212
@<TRIPOS>BOND
     1    26    27    1
     2    27    28    1
     3    27    24    1
     4     2     3   ar
     5    10     3    1
     6    10    11    1
     7    10    12    1
     8    10    13    1
     9     4     5   ar
    10     6     7   ar
    11     6    15    1
    12    14    18    1
    13    19    20   ar
    14    21    23   ar
    15    22    18   ar
    16    24     1    1
    17    15    14   am
    18     9     8   ar
    19     9     1   ar
    20     9     5   ar
    21     1     2   ar
    22     3     4   ar
    23     5     7   ar
    24     6     8   ar
    25    14    16    2
    26    18    19   ar
    27    20    21   ar
    28    22    23   ar
    29    24    25    1
    30    15    17    1
@<TRIPOS>MOLECULE
MolPort-028-600-042 90408699 CHEMBL3183131 CSSS00025701770 MCULE-2835404757 PubChem-59437537 ZINC000090408699
 28 30 0 0 0
SMALL
GASTEIGER

@<TRIPOS>ATOM
      1 C          12.9277   41.2894    8.3099 C.ar    1  UNL1        0.1316
      2 C          13.7653   40.5166    9.1340 C.ar    1  UNL1        0.0381
      3 C          13.2714   39.9989   10.3522 C.ar    1  UNL1        0.0772
      4 C          11.9322   40.2353   10.7209 C.ar    1  UNL1        0.0429
      5 C          11.1547   41.0093    9.8651 C.ar    1  UNL1        0.1681
      6 C           9.6362   42.0861    8.9237 C.ar    1  UNL1        0.2419
      7 N           9.8666   41.3510   10.0443 N.ar    1  UNL1       -0.1931
      8 N          10.7117   42.1876    8.1090 N.ar    1  UNL1       -0.1269
      9 N          11.6534   41.5014    8.7255 N.ar    1  UNL1       -0.1962
     10 C          14.1449   39.1288   11.2081 C.3     1  UNL1        0.4188
     11 F          14.0030   37.7997   10.8486 F       1  UNL1       -0.1659
     12 F          13.8015   39.2635   12.5423 F       1  UNL1       -0.1659
     13 F          15.4651   39.5031   11.0417 F       1  UNL1       -0.1659
     14 C           7.1769   42.5443    9.3787 C.2     1  UNL1        0.2532
     15 N           8.3809   42.7008    8.6161 N.am    1  UNL1       -0.2492
     16 O           7.1648   41.8199   10.4113 O.2     1  UNL1       -0.2697
     17 H           8.3410   43.2764    7.8184 H       1  UNL1        0.1581
     18 C           5.9462   43.2337    8.9536 C.ar    1  UNL1        0.0729
     19 C           5.9944   44.2570    7.9993 C.ar    1  UNL1        0.0077
     20 C           4.8224   44.9034    7.6039 C.ar    1  UNL1        0.0208
     21 C           3.6068   44.5168    8.1710 C.ar    1  UNL1        0.0989
     22 C           4.7034   42.8794    9.4955 C.ar    1  UNL1        0.1034
     23 N           3.5724   43.5215    9.0971 N.ar    1  UNL1       -0.2422
     24 N          13.3902   41.8455    7.0732 N.pl3   1  UNL1       -0.3196
     25 H          13.1577   41.3786    6.2383 H       1  UNL1        0.1481
     26 C          15.6462   42.7516    7.2456 C.3     1  UNL1        0.0212
     27 C          14.1849   43.0628    6.9817 C.3     1  UNL1        0.0705
     28 C          14.0479   43.6461    5.5915 C.3     1  UNL1        0.0212
@<TRIPOS>BOND
     1    26    27    1
     2    27    28    1
     3    27    24    1
     4     2     3   ar
     5    10     3    1
     6    10    11    1
     7    10    12    1
     8    10    13    1
     9     4     5   ar
    10     6     7   ar
    11     6    15    1
    12    14    18    1
    13    19    20   ar
    14    21    23   ar
    15    22    18   ar
    16    24     1    1
    17    15    14   am
    18     9     8   ar
    19     9     1   ar
    20     9     5   ar
    21     1     2   ar
    22     3     4   ar
    23     5     7   ar
    24     6     8   ar
    25    14    16    2
    26    18    19   ar
    27    20    21   ar
    28    22    23   ar
    29    24    25    1
    30    15    17    1
@<TRIPOS>MOLECULE
MolPort-028-600-042 90408699 CHEMBL3183131 CSSS00025701770 MCULE-2835404757 PubChem-59437537 ZINC000090408699
 28 30 0 0 0
SMALL
GASTEIGER

@<TRIPOS>ATOM
      1 C          13.7158   38.2540    9.2036 C.ar    1  UNL1        0.1316
      2 C          15.0566   38.2711    9.6277 C.ar    1  UNL1        0.0381
      3 C          15.7783   39.4856    9.6318 C.ar    1  UNL1        0.0772
      4 C          15.1412   40.6792    9.2386 C.ar    1  UNL1        0.0429
      5 C          13.8146   40.5968    8.8271 C.ar    1  UNL1        0.1681
      6 C          11.8766   40.9650    8.1486 C.ar    1  UNL1        0.2419
      7 N          13.0421   41.6152    8.4096 N.ar    1  UNL1       -0.1931
      8 N          11.9295   39.6350    8.3916 N.ar    1  UNL1       -0.1269
      9 N          13.1602   39.4301    8.8170 N.ar    1  UNL1       -0.1962
     10 C          17.1921   39.5179   10.1347 C.3     1  UNL1        0.4188
     11 F          17.2115   39.6358   11.5137 F       1  UNL1       -0.1659
     12 F          17.8737   40.5931    9.5908 F       1  UNL1       -0.1659
     13 F          17.8323   38.3476    9.7724 F       1  UNL1       -0.1659
     14 C           9.5394   41.9180    8.4560 C.2     1  UNL1        0.2532
     15 N          10.6941   41.6094    7.6641 N.am    1  UNL1       -0.2492
     16 O           9.5079   41.6216    9.6817 O.2     1  UNL1       -0.2697
     17 H          10.6718   41.8604    6.7124 H       1  UNL1        0.1581
     18 C           8.3824   42.5854    7.8343 C.ar    1  UNL1        0.0729
     19 C           7.6611   43.5613    8.5327 C.ar    1  UNL1        0.0077
     20 C           6.5666   44.1872    7.9341 C.ar    1  UNL1        0.0208
     21 C           6.2031   43.8280    6.6351 C.ar    1  UNL1        0.0989
     22 C           7.9807   42.2573    6.5325 C.ar    1  UNL1        0.1034
     23 N           6.9113   42.8787    5.9666 N.ar    1  UNL1       -0.2422
     24 N          12.9501   37.0435    9.1702 N.pl3   1  UNL1       -0.3196
     25 H          12.3420   36.8994    8.4095 H       1  UNL1        0.1481
     26 C          11.6395   35.7527   10.7692 C.3     1  UNL1        0.0212
     27 C          13.0207   36.0141   10.1984 C.3     1  UNL1        0.0705
     28 C          13.5531   34.7346    9.5891 C.3     1  UNL1        0.0212
@<TRIPOS>BOND
     1    26    27    1
     2    27    28    1
     3    27    24    1
     4     2     3   ar
     5    10     3    1
     6    10    11    1
     7    10    12    1
     8    10    13    1
     9     4     5   ar
    10     6     7   ar
    11     6    15    1
    12    14    18    1
    13    19    20   ar
    14    21    23   ar
    15    22    18   ar
    16    24     1    1
    17    15    14   am
    18     9     8   ar
    19     9     1   ar
    20     9     5   ar
    21     1     2   ar
    22     3     4   ar
    23     5     7   ar
    24     6     8   ar
    25    14    16    2
    26    18    19   ar
    27    20    21   ar
    28    22    23   ar
    29    24    25    1
    30    15    17    1
