@<TRIPOS>MOLECULE
Molport-047-878-745
 24 25 0 0 0
SMALL
GASTEIGER

@<TRIPOS>ATOM
      1 C          15.3703   42.1097    7.7631 C.ar    1  UNL1        0.1596
      2 C          16.7135   42.3650    7.9802 C.ar    1  UNL1        0.1401
      3 C          16.1090   40.7782    9.2588 C.ar    1  UNL1        0.2035
      4 BR         17.8048   43.6784    7.1210 Br      1  UNL1       -0.0262
      5 N          17.1834   41.5260    8.9245 N.ar    1  UNL1       -0.2065
      6 N          14.9968   41.1063    8.5745 N.ar    1  UNL1       -0.3197
      7 H          14.1038   40.6992    8.6519 H       1  UNL1        0.1688
      8 C          15.9186   38.3494    9.9528 C.2     1  UNL1        0.4078
      9 O          15.6695   37.9707    8.7754 O.2     1  UNL1       -0.2260
     10 N          16.1342   39.7361   10.2445 N.am    1  UNL1       -0.2211
     11 H          16.3106   39.9892   11.1794 H       1  UNL1        0.1610
     12 O          15.9843   37.4184   10.9954 O.3     1  UNL1       -0.4294
     13 C          14.8780   37.1078   11.8402 C.3     1  UNL1        0.2367
     14 C          13.5843   37.4876   11.1727 C.ar    1  UNL1        0.0213
     15 C          12.8128   36.5060   10.5298 C.ar    1  UNL1       -0.0007
     16 C          11.6188   36.8551    9.8910 C.ar    1  UNL1       -0.0002
     17 C          11.1896   38.1852    9.8869 C.ar    1  UNL1       -0.0000
     18 C          11.9544   39.1686   10.5205 C.ar    1  UNL1       -0.0002
     19 C          13.1490   38.8236   11.1606 C.ar    1  UNL1       -0.0007
     20 C          14.4604   42.7836    6.8226 C.2     1  UNL1        0.3592
     21 O          14.5579   44.0243    6.6202 O.2     1  UNL1       -0.2432
     22 O          13.4822   42.0320    6.1613 O.3     1  UNL1       -0.4444
     23 C          11.6831   41.8642    7.7824 C.3     1  UNL1        0.0513
     24 C          12.0817   42.2201    6.3548 C.3     1  UNL1        0.2089
@<TRIPOS>BOND
     1    23    24    1
     2    24    22    1
     3    20    22    1
     4    20     1    1
     5     2     4    1
     6     2     5   ar
     7     3    10    1
     8     3     6   ar
     9     8    12    1
    10    13    12    1
    11    13    14    1
    12    15    16   ar
    13    17    18   ar
    14    19    14   ar
    15    10     8   am
    16     6     1   ar
    17    20    21    2
    18     1     2   ar
    19     3     5   ar
    20     8     9    2
    21    14    15   ar
    22    16    17   ar
    23    18    19   ar
    24    10    11    1
    25     6     7    1
@<TRIPOS>MOLECULE
Molport-047-878-745
 24 25 0 0 0
SMALL
GASTEIGER

@<TRIPOS>ATOM
      1 C          13.6635   42.7674    6.3375 C.ar    1  UNL1        0.1596
      2 C          13.7211   41.8262    7.3511 C.ar    1  UNL1        0.1401
      3 C          11.7465   41.8568    6.5648 C.ar    1  UNL1        0.2035
      4 BR         15.2333   41.3566    8.4221 Br      1  UNL1       -0.0262
      5 N          12.5119   41.2493    7.4976 N.ar    1  UNL1       -0.2065
      6 N          12.4132   42.7801    5.8464 N.ar    1  UNL1       -0.3197
      7 H          12.0608   43.3424    5.1192 H       1  UNL1        0.1688
      8 C           9.8562   40.8539    5.2091 C.2     1  UNL1        0.4078
      9 O          10.6373   40.4625    4.2989 O.2     1  UNL1       -0.2260
     10 N          10.3594   41.5603    6.3503 N.am    1  UNL1       -0.2211
     11 H           9.7128   41.8607    7.0292 H       1  UNL1        0.1610
     12 O           8.4821   40.6067    5.1155 O.3     1  UNL1       -0.4294
     13 C           7.6836   40.1879    6.2205 C.3     1  UNL1        0.2367
     14 C           7.0138   41.3718    6.8634 C.ar    1  UNL1        0.0213
     15 C           6.4157   41.2380    8.1268 C.ar    1  UNL1       -0.0007
     16 C           5.7748   42.3292    8.7219 C.ar    1  UNL1       -0.0002
     17 C           5.7239   43.5585    8.0588 C.ar    1  UNL1       -0.0000
     18 C           6.3127   43.6981    6.7989 C.ar    1  UNL1       -0.0002
     19 C           6.9548   42.6093    6.2005 C.ar    1  UNL1       -0.0007
     20 C          14.7471   43.6306    5.8401 C.2     1  UNL1        0.3592
     21 O          14.8263   43.9107    4.6133 O.2     1  UNL1       -0.2432
     22 O          15.6915   44.1307    6.7440 O.3     1  UNL1       -0.4444
     23 C          17.8928   43.9565    7.7523 C.3     1  UNL1        0.0513
     24 C          17.0913   44.1754    6.4743 C.3     1  UNL1        0.2089
@<TRIPOS>BOND
     1    23    24    1
     2    24    22    1
     3    20    22    1
     4    20     1    1
     5     2     4    1
     6     2     5   ar
     7     3    10    1
     8     3     6   ar
     9     8    12    1
    10    13    12    1
    11    13    14    1
    12    15    16   ar
    13    17    18   ar
    14    19    14   ar
    15    10     8   am
    16     6     1   ar
    17    20    21    2
    18     1     2   ar
    19     3     5   ar
    20     8     9    2
    21    14    15   ar
    22    16    17   ar
    23    18    19   ar
    24    10    11    1
    25     6     7    1
@<TRIPOS>MOLECULE
Molport-047-878-745
 24 25 0 0 0
SMALL
GASTEIGER

@<TRIPOS>ATOM
      1 C          14.2555   42.9063    6.5326 C.ar    1  UNL1        0.1596
      2 C          14.6765   42.0151    7.5048 C.ar    1  UNL1        0.1401
      3 C          12.6596   41.5696    7.0033 C.ar    1  UNL1        0.2035
      4 BR         16.3928   41.9272    8.3420 Br      1  UNL1       -0.0262
      5 N          13.6708   41.1694    7.8047 N.ar    1  UNL1       -0.2065
      6 N          12.9810   42.6178    6.2216 N.ar    1  UNL1       -0.3197
      7 H          12.4066   43.0738    5.5648 H       1  UNL1        0.1688
      8 C          10.3854   41.1807    5.9571 C.2     1  UNL1        0.4078
      9 O          10.6181   41.9815    5.0103 O.2     1  UNL1       -0.2260
     10 N          11.3655   40.9508    6.9775 N.am    1  UNL1       -0.2211
     11 H          11.1364   40.3295    7.7060 H       1  UNL1        0.1610
     12 O           9.1615   40.5062    6.0274 O.3     1  UNL1       -0.4294
     13 C           8.4912   40.2234    7.2541 C.3     1  UNL1        0.2367
     14 C           9.4442   39.6115    8.2446 C.ar    1  UNL1        0.0213
     15 C           9.9597   40.3895    9.2939 C.ar    1  UNL1       -0.0007
     16 C          10.8605   39.8325   10.2069 C.ar    1  UNL1       -0.0002
     17 C          11.2549   38.4981   10.0765 C.ar    1  UNL1       -0.0000
     18 C          10.7500   37.7188    9.0319 C.ar    1  UNL1       -0.0002
     19 C           9.8486   38.2719    8.1168 C.ar    1  UNL1       -0.0007
     20 C          15.0233   43.9971    5.9100 C.2     1  UNL1        0.3592
     21 O          14.9031   44.2384    4.6783 O.2     1  UNL1       -0.2432
     22 O          15.8927   44.7579    6.7002 O.3     1  UNL1       -0.4444
     23 C          17.7931   43.8015    5.5312 C.3     1  UNL1        0.0513
     24 C          17.2958   44.5155    6.7827 C.3     1  UNL1        0.2089
@<TRIPOS>BOND
     1    23    24    1
     2    24    22    1
     3    20    22    1
     4    20     1    1
     5     2     4    1
     6     2     5   ar
     7     3    10    1
     8     3     6   ar
     9     8    12    1
    10    13    12    1
    11    13    14    1
    12    15    16   ar
    13    17    18   ar
    14    19    14   ar
    15    10     8   am
    16     6     1   ar
    17    20    21    2
    18     1     2   ar
    19     3     5   ar
    20     8     9    2
    21    14    15   ar
    22    16    17   ar
    23    18    19   ar
    24    10    11    1
    25     6     7    1
@<TRIPOS>MOLECULE
Molport-047-878-745
 24 25 0 0 0
SMALL
GASTEIGER

@<TRIPOS>ATOM
      1 C          14.2024   41.5672    7.7376 C.ar    1  UNL1        0.1596
      2 C          14.5112   42.6639    6.9512 C.ar    1  UNL1        0.1401
      3 C          12.4913   42.1130    6.5844 C.ar    1  UNL1        0.2035
      4 BR         16.1761   43.5984    6.8550 Br      1  UNL1       -0.0262
      5 N          13.4328   43.0113    6.2213 N.ar    1  UNL1       -0.2065
      6 N          12.9250   41.2260    7.4998 N.ar    1  UNL1       -0.3197
      7 H          12.4165   40.4877    7.9066 H       1  UNL1        0.1688
      8 C          10.4392   40.8936    5.7364 C.2     1  UNL1        0.4078
      9 O          10.9728   39.7616    5.8960 O.2     1  UNL1       -0.2260
     10 N          11.1581   42.0920    6.0549 N.am    1  UNL1       -0.2211
     11 H          10.7091   42.9545    5.9006 H       1  UNL1        0.1610
     12 O           9.1347   40.9962    5.2406 O.3     1  UNL1       -0.4294
     13 C           7.9991   40.4401    5.9003 C.3     1  UNL1        0.2367
     14 C           7.2632   41.5050    6.6671 C.ar    1  UNL1        0.0213
     15 C           6.5759   41.1717    7.8455 C.ar    1  UNL1       -0.0007
     16 C           5.8740   42.1527    8.5530 C.ar    1  UNL1       -0.0002
     17 C           5.8508   43.4702    8.0874 C.ar    1  UNL1       -0.0000
     18 C           6.5284   43.8087    6.9128 C.ar    1  UNL1       -0.0002
     19 C           7.2317   42.8307    6.2024 C.ar    1  UNL1       -0.0007
     20 C          15.0762   40.8578    8.6863 C.2     1  UNL1        0.3592
     21 O          16.2889   41.1831    8.8011 O.2     1  UNL1       -0.2432
     22 O          14.5462   39.8142    9.4538 O.3     1  UNL1       -0.4444
     23 C          14.0303   38.9811   11.6748 C.3     1  UNL1        0.0513
     24 C          13.7262   40.0208   10.6024 C.3     1  UNL1        0.2089
@<TRIPOS>BOND
     1    23    24    1
     2    24    22    1
     3    20    22    1
     4    20     1    1
     5     2     4    1
     6     2     5   ar
     7     3    10    1
     8     3     6   ar
     9     8    12    1
    10    13    12    1
    11    13    14    1
    12    15    16   ar
    13    17    18   ar
    14    19    14   ar
    15    10     8   am
    16     6     1   ar
    17    20    21    2
    18     1     2   ar
    19     3     5   ar
    20     8     9    2
    21    14    15   ar
    22    16    17   ar
    23    18    19   ar
    24    10    11    1
    25     6     7    1
@<TRIPOS>MOLECULE
Molport-047-878-745
 24 25 0 0 0
SMALL
GASTEIGER

@<TRIPOS>ATOM
      1 C          15.5517   42.1946    7.8062 C.ar    1  UNL1        0.1596
      2 C          15.4591   43.0404    6.7141 C.ar    1  UNL1        0.1401
      3 C          13.5698   42.1150    7.0180 C.ar    1  UNL1        0.2035
      4 BR         16.8354   44.1377    5.9686 Br      1  UNL1       -0.0262
      5 N          14.2086   42.9924    6.2136 N.ar    1  UNL1       -0.2065
      6 N          14.3543   41.6144    7.9911 N.ar    1  UNL1       -0.3197
      7 H          14.1046   40.9644    8.6871 H       1  UNL1        0.1688
      8 C          11.3520   41.3086    7.9391 C.2     1  UNL1        0.4078
      9 O          11.8058   41.2150    9.1125 O.2     1  UNL1       -0.2260
     10 N          12.1933   41.7417    6.8625 N.am    1  UNL1       -0.2211
     11 H          11.8022   41.7859    5.9601 H       1  UNL1        0.1610
     12 O          10.0173   40.9861    7.6699 O.3     1  UNL1       -0.4294
     13 C           9.2627   41.5847    6.6180 C.3     1  UNL1        0.2367
     14 C           8.1191   42.3840    7.1808 C.ar    1  UNL1        0.0213
     15 C           7.2771   43.1053    6.3190 C.ar    1  UNL1       -0.0007
     16 C           6.2238   43.8657    6.8367 C.ar    1  UNL1       -0.0002
     17 C           6.0068   43.9137    8.2165 C.ar    1  UNL1       -0.0000
     18 C           6.8436   43.2025    9.0810 C.ar    1  UNL1       -0.0002
     19 C           7.8980   42.4407    8.5673 C.ar    1  UNL1       -0.0007
     20 C          16.7263   41.9361    8.6548 C.2     1  UNL1        0.3592
     21 O          17.3822   42.8954    9.1442 O.2     1  UNL1       -0.2432
     22 O          17.1098   40.6137    8.9061 O.3     1  UNL1       -0.4444
     23 C          15.7413   39.3314   10.4475 C.3     1  UNL1        0.0513
     24 C          17.0794   40.0189   10.2021 C.3     1  UNL1        0.2089
@<TRIPOS>BOND
     1    23    24    1
     2    24    22    1
     3    20    22    1
     4    20     1    1
     5     2     4    1
     6     2     5   ar
     7     3    10    1
     8     3     6   ar
     9     8    12    1
    10    13    12    1
    11    13    14    1
    12    15    16   ar
    13    17    18   ar
    14    19    14   ar
    15    10     8   am
    16     6     1   ar
    17    20    21    2
    18     1     2   ar
    19     3     5   ar
    20     8     9    2
    21    14    15   ar
    22    16    17   ar
    23    18    19   ar
    24    10    11    1
    25     6     7    1
@<TRIPOS>MOLECULE
Molport-047-878-745
 24 25 0 0 0
SMALL
GASTEIGER

@<TRIPOS>ATOM
      1 C          13.3067   41.9419    7.9129 C.ar    1  UNL1        0.1596
      2 C          13.4756   41.0035    8.9168 C.ar    1  UNL1        0.1401
      3 C          11.4526   41.6555    8.9305 C.ar    1  UNL1        0.2035
      4 BR         15.0766   40.0680    9.3815 Br      1  UNL1       -0.0262
      5 N          12.3065   40.8204    9.5617 N.ar    1  UNL1       -0.2065
      6 N          12.0264   42.3482    7.9286 N.ar    1  UNL1       -0.3197
      7 H          11.6002   43.0089    7.3361 H       1  UNL1        0.1688
      8 C           9.0019   41.8789    8.3291 C.2     1  UNL1        0.4078
      9 O           9.2408   41.8372    7.0909 O.2     1  UNL1       -0.2260
     10 N          10.0695   41.8026    9.2824 N.am    1  UNL1       -0.2211
     11 H           9.8394   41.8542   10.2382 H       1  UNL1        0.1610
     12 O           7.6872   42.0048    8.7911 O.3     1  UNL1       -0.4294
     13 C           7.2945   41.7076   10.1296 C.3     1  UNL1        0.2367
     14 C           5.8007   41.8131   10.2747 C.ar    1  UNL1        0.0213
     15 C           5.0677   42.6310    9.3997 C.ar    1  UNL1       -0.0007
     16 C           3.6814   42.7486    9.5406 C.ar    1  UNL1       -0.0002
     17 C           3.0193   42.0543   10.5569 C.ar    1  UNL1       -0.0000
     18 C           3.7427   41.2421   11.4347 C.ar    1  UNL1       -0.0002
     19 C           5.1292   41.1216   11.2970 C.ar    1  UNL1       -0.0007
     20 C          14.3135   42.4444    6.9639 C.2     1  UNL1        0.3592
     21 O          13.9683   42.8324    5.8149 O.2     1  UNL1       -0.2432
     22 O          15.6584   42.4800    7.3500 O.3     1  UNL1       -0.4444
     23 C          17.3849   43.7126    8.5303 C.3     1  UNL1        0.0513
     24 C          16.4524   43.6646    7.3254 C.3     1  UNL1        0.2089
@<TRIPOS>BOND
     1    23    24    1
     2    24    22    1
     3    20    22    1
     4    20     1    1
     5     2     4    1
     6     2     5   ar
     7     3    10    1
     8     3     6   ar
     9     8    12    1
    10    13    12    1
    11    13    14    1
    12    15    16   ar
    13    17    18   ar
    14    19    14   ar
    15    10     8   am
    16     6     1   ar
    17    20    21    2
    18     1     2   ar
    19     3     5   ar
    20     8     9    2
    21    14    15   ar
    22    16    17   ar
    23    18    19   ar
    24    10    11    1
    25     6     7    1
@<TRIPOS>MOLECULE
Molport-047-878-745
 24 25 0 0 0
SMALL
GASTEIGER

@<TRIPOS>ATOM
      1 C          15.2619   42.2217    7.8329 C.ar    1  UNL1        0.1596
      2 C          15.2454   43.1321    6.7901 C.ar    1  UNL1        0.1401
      3 C          13.2509   42.5074    7.1774 C.ar    1  UNL1        0.2035
      4 BR         16.7370   44.0339    6.0053 Br      1  UNL1       -0.0262
      5 N          13.9768   43.3148    6.3734 N.ar    1  UNL1       -0.2065
      6 N          13.9984   41.8325    8.0710 N.ar    1  UNL1       -0.3197
      7 H          13.6867   41.1926    8.7512 H       1  UNL1        0.1688
      8 C          11.1540   41.4454    6.2326 C.2     1  UNL1        0.4078
      9 O          11.8108   40.6951    5.4596 O.2     1  UNL1       -0.2260
     10 N          11.8251   42.3703    7.0979 N.am    1  UNL1       -0.2211
     11 H          11.2731   42.9475    7.6736 H       1  UNL1        0.1610
     12 O           9.7561   41.3883    6.2534 O.3     1  UNL1       -0.4294
     13 C           9.0022   41.0567    7.4178 C.3     1  UNL1        0.2367
     14 C           9.7851   40.1258    8.3033 C.ar    1  UNL1        0.0213
     15 C           9.9248   38.7740    7.9495 C.ar    1  UNL1       -0.0007
     16 C          10.6351   37.8990    8.7773 C.ar    1  UNL1       -0.0002
     17 C          11.2067   38.3664    9.9640 C.ar    1  UNL1       -0.0000
     18 C          11.0678   39.7094   10.3253 C.ar    1  UNL1       -0.0002
     19 C          10.3584   40.5878    9.5000 C.ar    1  UNL1       -0.0007
     20 C          16.4261   41.7295    8.5874 C.2     1  UNL1        0.3592
     21 O          17.4186   42.4805    8.7890 O.2     1  UNL1       -0.2432
     22 O          16.4204   40.4164    9.0722 O.3     1  UNL1       -0.4444
     23 C          16.5218   38.9452   11.0004 C.3     1  UNL1        0.0513
     24 C          17.2534   39.9688   10.1399 C.3     1  UNL1        0.2089
@<TRIPOS>BOND
     1    23    24    1
     2    24    22    1
     3    20    22    1
     4    20     1    1
     5     2     4    1
     6     2     5   ar
     7     3    10    1
     8     3     6   ar
     9     8    12    1
    10    13    12    1
    11    13    14    1
    12    15    16   ar
    13    17    18   ar
    14    19    14   ar
    15    10     8   am
    16     6     1   ar
    17    20    21    2
    18     1     2   ar
    19     3     5   ar
    20     8     9    2
    21    14    15   ar
    22    16    17   ar
    23    18    19   ar
    24    10    11    1
    25     6     7    1
@<TRIPOS>MOLECULE
Molport-047-878-745
 24 25 0 0 0
SMALL
GASTEIGER

@<TRIPOS>ATOM
      1 C          14.0513   41.7739    7.5768 C.ar    1  UNL1        0.1596
      2 C          13.9698   42.7195    6.5689 C.ar    1  UNL1        0.1401
      3 C          12.0264   41.9343    6.9217 C.ar    1  UNL1        0.2035
      4 BR         15.3923   43.7587    5.8267 Br      1  UNL1       -0.0262
      5 N          12.6922   42.8233    6.1526 N.ar    1  UNL1       -0.2065
      6 N          12.8197   41.2833    7.7933 N.ar    1  UNL1       -0.3197
      7 H          12.5547   40.5967    8.4473 H       1  UNL1        0.1688
      8 C           9.6844   41.9598    7.8871 C.2     1  UNL1        0.4078
      9 O          10.0819   42.4151    8.9946 O.2     1  UNL1       -0.2260
     10 N          10.6148   41.6949    6.8295 N.am    1  UNL1       -0.2211
     11 H          10.2634   41.3257    5.9872 H       1  UNL1        0.1610
     12 O           8.3254   41.7021    7.6759 O.3     1  UNL1       -0.4294
     13 C           7.4914   42.5160    6.8537 C.3     1  UNL1        0.2367
     14 C           6.2388   42.9002    7.5931 C.ar    1  UNL1        0.0213
     15 C           5.6035   44.1200    7.3092 C.ar    1  UNL1       -0.0007
     16 C           4.4496   44.4921    8.0060 C.ar    1  UNL1       -0.0002
     17 C           3.9251   43.6517    8.9918 C.ar    1  UNL1       -0.0000
     18 C           4.5545   42.4383    9.2834 C.ar    1  UNL1       -0.0002
     19 C           5.7086   42.0624    8.5888 C.ar    1  UNL1       -0.0007
     20 C          15.2469   41.3412    8.3185 C.2     1  UNL1        0.3592
     21 O          15.1439   40.5211    9.2706 O.2     1  UNL1       -0.2432
     22 O          16.4976   41.8562    7.9584 O.3     1  UNL1       -0.4444
     23 C          17.9965   43.7459    8.2324 C.3     1  UNL1        0.0513
     24 C          17.3709   42.5133    8.8748 C.3     1  UNL1        0.2089
@<TRIPOS>BOND
     1    23    24    1
     2    24    22    1
     3    20    22    1
     4    20     1    1
     5     2     4    1
     6     2     5   ar
     7     3    10    1
     8     3     6   ar
     9     8    12    1
    10    13    12    1
    11    13    14    1
    12    15    16   ar
    13    17    18   ar
    14    19    14   ar
    15    10     8   am
    16     6     1   ar
    17    20    21    2
    18     1     2   ar
    19     3     5   ar
    20     8     9    2
    21    14    15   ar
    22    16    17   ar
    23    18    19   ar
    24    10    11    1
    25     6     7    1
@<TRIPOS>MOLECULE
Molport-047-878-745
 24 25 0 0 0
SMALL
GASTEIGER

@<TRIPOS>ATOM
      1 C          13.9551   42.4437    6.8830 C.ar    1  UNL1        0.1596
      2 C          14.4464   41.6171    7.8791 C.ar    1  UNL1        0.1401
      3 C          12.4012   41.1410    7.5494 C.ar    1  UNL1        0.2035
      4 BR         16.2172   41.5828    8.5983 Br      1  UNL1       -0.0262
      5 N          13.4675   40.7932    8.3025 N.ar    1  UNL1       -0.2065
      6 N          12.6631   42.1362    6.6811 N.ar    1  UNL1       -0.3197
      7 H          12.0425   42.5489    6.0379 H       1  UNL1        0.1688
      8 C           9.9541   40.9488    6.9230 C.2     1  UNL1        0.4078
      9 O          10.0160   41.9355    6.1392 O.2     1  UNL1       -0.2260
     10 N          11.1110   40.5225    7.6541 N.am    1  UNL1       -0.2211
     11 H          11.0141   39.7576    8.2663 H       1  UNL1        0.1610
     12 O           8.7502   40.2566    7.0938 O.3     1  UNL1       -0.4294
     13 C           7.7361   40.6615    8.0113 C.3     1  UNL1        0.2367
     14 C           8.2284   41.7922    8.8731 C.ar    1  UNL1        0.0213
     15 C           7.9121   43.1185    8.5371 C.ar    1  UNL1       -0.0007
     16 C           8.3821   44.1755    9.3230 C.ar    1  UNL1       -0.0002
     17 C           9.1729   43.9157   10.4456 C.ar    1  UNL1       -0.0000
     18 C           9.4960   42.5986   10.7836 C.ar    1  UNL1       -0.0002
     19 C           9.0277   41.5387   10.0005 C.ar    1  UNL1       -0.0007
     20 C          14.6732   43.4914    6.1391 C.2     1  UNL1        0.3592
     21 O          14.4819   43.6388    4.9016 O.2     1  UNL1       -0.2432
     22 O          15.5751   44.3167    6.8206 O.3     1  UNL1       -0.4444
     23 C          17.6985   43.5767    5.9060 C.3     1  UNL1        0.0513
     24 C          16.8094   44.7625    6.2620 C.3     1  UNL1        0.2089
@<TRIPOS>BOND
     1    23    24    1
     2    24    22    1
     3    20    22    1
     4    20     1    1
     5     2     4    1
     6     2     5   ar
     7     3    10    1
     8     3     6   ar
     9     8    12    1
    10    13    12    1
    11    13    14    1
    12    15    16   ar
    13    17    18   ar
    14    19    14   ar
    15    10     8   am
    16     6     1   ar
    17    20    21    2
    18     1     2   ar
    19     3     5   ar
    20     8     9    2
    21    14    15   ar
    22    16    17   ar
    23    18    19   ar
    24    10    11    1
    25     6     7    1
@<TRIPOS>MOLECULE
Molport-047-878-745
 24 25 0 0 0
SMALL
GASTEIGER

@<TRIPOS>ATOM
      1 C          13.9470   41.7276    7.5094 C.ar    1  UNL1        0.1596
      2 C          13.8986   42.6661    6.4928 C.ar    1  UNL1        0.1401
      3 C          11.9606   41.8272    6.7348 C.ar    1  UNL1        0.2035
      4 BR         15.3327   43.7422    5.8297 Br      1  UNL1       -0.0262
      5 N          12.6455   42.7315    6.0010 N.ar    1  UNL1       -0.2065
      6 N          12.7190   41.2029    7.6556 N.ar    1  UNL1       -0.3197
      7 H          12.4352   40.5119    8.2969 H       1  UNL1        0.1688
      8 C          10.0152   40.8825    5.4156 C.2     1  UNL1        0.4078
      9 O          10.7602   40.5165    4.4654 O.2     1  UNL1       -0.2260
     10 N          10.5644   41.5472    6.5606 N.am    1  UNL1       -0.2211
     11 H           9.9449   41.8291    7.2719 H       1  UNL1        0.1610
     12 O           8.6368   40.6478    5.3634 O.3     1  UNL1       -0.4294
     13 C           7.8538   40.3167    6.5086 C.3     1  UNL1        0.2367
     14 C           7.2555   41.5579    7.1127 C.ar    1  UNL1        0.0213
     15 C           6.9045   42.6393    6.2885 C.ar    1  UNL1       -0.0007
     16 C           6.3655   43.8034    6.8453 C.ar    1  UNL1       -0.0002
     17 C           6.1770   43.8966    8.2269 C.ar    1  UNL1       -0.0000
     18 C           6.5285   42.8264    9.0543 C.ar    1  UNL1       -0.0002
     19 C           7.0676   41.6604    8.5014 C.ar    1  UNL1       -0.0007
     20 C          15.1082   41.3325    8.3232 C.2     1  UNL1        0.3592
     21 O          15.2345   40.1414    8.7171 O.2     1  UNL1       -0.2432
     22 O          16.0661   42.2960    8.6596 O.3     1  UNL1       -0.4444
     23 C          18.1241   43.5075    8.2241 C.3     1  UNL1        0.0513
     24 C          17.4592   42.1463    8.3928 C.3     1  UNL1        0.2089
@<TRIPOS>BOND
     1    23    24    1
     2    24    22    1
     3    20    22    1
     4    20     1    1
     5     2     4    1
     6     2     5   ar
     7     3    10    1
     8     3     6   ar
     9     8    12    1
    10    13    12    1
    11    13    14    1
    12    15    16   ar
    13    17    18   ar
    14    19    14   ar
    15    10     8   am
    16     6     1   ar
    17    20    21    2
    18     1     2   ar
    19     3     5   ar
    20     8     9    2
    21    14    15   ar
    22    16    17   ar
    23    18    19   ar
    24    10    11    1
    25     6     7    1
