@<TRIPOS>MOLECULE
MolPort-020-278-713 MCULE-1926765994 PubChem-110255584
 24 26 0 0 0
SMALL
GASTEIGER

@<TRIPOS>ATOM
      1 C           8.8345   40.2368    7.9694 C.3     1  UNL1        0.0737
      2 C          10.2905   40.5245    7.8969 C.ar    1  UNL1        0.1406
      3 C          12.4938   40.0962    8.6412 C.ar    1  UNL1        0.0644
      4 C          12.9854   41.0593    7.7604 C.ar    1  UNL1        0.0492
      5 C          12.0831   41.7469    6.9491 C.ar    1  UNL1        0.1357
      6 N          11.1570   39.8465    8.6933 N.ar    1  UNL1       -0.2348
      7 N          10.7542   41.4655    7.0339 N.ar    1  UNL1       -0.2159
      8 C          13.4425   39.3493    9.5187 C.3     1  UNL1        0.0603
      9 C          13.1148   39.5819   10.9970 C.3     1  UNL1        0.0094
     10 C          14.1280   38.9352   11.9561 C.3     1  UNL1        0.0219
     11 C          15.3072   38.2789   11.2370 C.3     1  UNL1        0.0934
     12 C          14.8889   39.7455    9.2143 C.3     1  UNL1        0.0992
     13 C          17.2070   39.5211   10.1502 C.2     1  UNL1        0.2261
     14 C          18.1710   38.9698   11.1464 C.3     1  UNL1        0.0948
     15 N          15.8157   39.1697   10.1936 N.am    1  UNL1       -0.2791
     16 O          17.6361   40.3053    9.2623 O.2     1  UNL1       -0.2749
     17 N          12.5777   42.7383    6.0410 N.pl3   1  UNL1       -0.2833
     18 H          11.9898   42.9882    5.2919 H       1  UNL1        0.1550
     19 C          13.8455   43.4012    6.1178 C.ar    1  UNL1        0.1332
     20 C          14.9080   42.7617    6.7618 C.ar    1  UNL1        0.0345
     21 C          16.1470   43.4003    6.8414 C.ar    1  UNL1        0.0045
     22 C          16.3136   44.6667    6.2795 C.ar    1  UNL1        0.0208
     23 C          15.2309   45.2767    5.6433 C.ar    1  UNL1        0.1003
     24 N          14.0317   44.6380    5.5763 N.ar    1  UNL1       -0.2290
@<TRIPOS>BOND
     1     1     2    1
     2     2     7   ar
     3     3     6   ar
     4     4     5   ar
     5     5    17    1
     6    19    24   ar
     7    20    21   ar
     8    22    23   ar
     9     8     3    1
    10     8     9    1
    11     9    10    1
    12    10    11    1
    13    11    15    1
    14    12    15    1
    15    12     8    1
    16    14    13    1
    17    17    19    1
    18    15    13   am
    19     2     6   ar
    20     3     4   ar
    21     5     7   ar
    22    19    20   ar
    23    21    22   ar
    24    23    24   ar
    25    13    16    2
    26    17    18    1
@<TRIPOS>MOLECULE
MolPort-020-278-713 MCULE-1926765994 PubChem-110255584
 24 26 0 0 0
SMALL
GASTEIGER

@<TRIPOS>ATOM
      1 C          12.8188   40.0585   10.5955 C.3     1  UNL1        0.0737
      2 C          12.0150   40.6532    9.4963 C.ar    1  UNL1        0.1406
      3 C           9.9053   41.1817    8.5677 C.ar    1  UNL1        0.0644
      4 C          10.5294   41.7549    7.4599 C.ar    1  UNL1        0.0492
      5 C          11.9230   41.7588    7.4046 C.ar    1  UNL1        0.1357
      6 N          10.6585   40.6420    9.5645 N.ar    1  UNL1       -0.2348
      7 N          12.6373   41.2079    8.4238 N.ar    1  UNL1       -0.2159
      8 C           8.4148   41.1667    8.6463 C.3     1  UNL1        0.0603
      9 C           7.8122   40.4669    7.4240 C.3     1  UNL1        0.0094
     10 C           6.2760   40.5217    7.3849 C.3     1  UNL1        0.0219
     11 C           5.6715   41.3487    8.5202 C.3     1  UNL1        0.0934
     12 C           7.8649   42.5881    8.7843 C.3     1  UNL1        0.0992
     13 C           5.7061   43.8616    8.6518 C.2     1  UNL1        0.2261
     14 C           4.2219   43.9149    8.5116 C.3     1  UNL1        0.0948
     15 N           6.4036   42.6069    8.6677 N.am    1  UNL1       -0.2791
     16 O           6.3435   44.9433    8.7580 O.2     1  UNL1       -0.2749
     17 N          12.5740   42.3450    6.2710 N.pl3   1  UNL1       -0.2833
     18 H          12.1562   42.1962    5.3920 H       1  UNL1        0.1550
     19 C          13.7742   43.1269    6.2933 C.ar    1  UNL1        0.1332
     20 C          14.8905   42.6378    6.9770 C.ar    1  UNL1        0.0345
     21 C          16.0643   43.3931    7.0039 C.ar    1  UNL1        0.0045
     22 C          16.1133   44.6252    6.3505 C.ar    1  UNL1        0.0208
     23 C          14.9796   45.0836    5.6768 C.ar    1  UNL1        0.1003
     24 N          13.8454   44.3328    5.6623 N.ar    1  UNL1       -0.2290
@<TRIPOS>BOND
     1     1     2    1
     2     2     7   ar
     3     3     6   ar
     4     4     5   ar
     5     5    17    1
     6    19    24   ar
     7    20    21   ar
     8    22    23   ar
     9     8     3    1
    10     8     9    1
    11     9    10    1
    12    10    11    1
    13    11    15    1
    14    12    15    1
    15    12     8    1
    16    14    13    1
    17    17    19    1
    18    15    13   am
    19     2     6   ar
    20     3     4   ar
    21     5     7   ar
    22    19    20   ar
    23    21    22   ar
    24    23    24   ar
    25    13    16    2
    26    17    18    1
@<TRIPOS>MOLECULE
MolPort-020-278-713 MCULE-1926765994 PubChem-110255584
 24 26 0 0 0
SMALL
GASTEIGER

@<TRIPOS>ATOM
      1 C           9.1665   41.0692   14.4667 C.3     1  UNL1        0.0737
      2 C           9.1736   41.2967   12.9983 C.ar    1  UNL1        0.1406
      3 C          10.3135   41.2192   10.9279 C.ar    1  UNL1        0.0644
      4 C           9.1840   41.7189   10.2801 C.ar    1  UNL1        0.0492
      5 C           8.0477   42.0006   11.0380 C.ar    1  UNL1        0.1357
      6 N          10.2879   41.0174   12.2735 N.ar    1  UNL1       -0.2348
      7 N           8.0657   41.7838   12.3815 N.ar    1  UNL1       -0.2159
      8 C          11.5404   40.9117   10.1352 C.3     1  UNL1        0.0603
      9 C          11.1985   40.0509    8.9150 C.3     1  UNL1        0.0094
     10 C          12.4353   39.5993    8.1206 C.3     1  UNL1        0.0219
     11 C          13.7558   40.0184    8.7681 C.3     1  UNL1        0.0934
     12 C          12.5914   40.2227   11.0085 C.3     1  UNL1        0.0992
     13 C          14.7542   38.9628   10.8228 C.2     1  UNL1        0.2261
     14 C          15.9027   38.4398   10.0272 C.3     1  UNL1        0.0948
     15 N          13.7190   39.7417   10.2043 N.am    1  UNL1       -0.2791
     16 O          14.7068   38.7095   12.0562 O.2     1  UNL1       -0.2749
     17 N           6.8821   42.5142   10.3824 N.pl3   1  UNL1       -0.2833
     18 H           6.9756   43.3795    9.9221 H       1  UNL1        0.1550
     19 C           5.5935   41.8901   10.3319 C.ar    1  UNL1        0.1332
     20 C           4.6806   42.2956    9.3548 C.ar    1  UNL1        0.0345
     21 C           3.4226   41.6928    9.2983 C.ar    1  UNL1        0.0045
     22 C           3.0884   40.6944   10.2142 C.ar    1  UNL1        0.0208
     23 C           4.0246   40.3134   11.1772 C.ar    1  UNL1        0.1003
     24 N           5.2451   40.9129   11.2158 N.ar    1  UNL1       -0.2290
@<TRIPOS>BOND
     1     1     2    1
     2     2     7   ar
     3     3     6   ar
     4     4     5   ar
     5     5    17    1
     6    19    24   ar
     7    20    21   ar
     8    22    23   ar
     9     8     3    1
    10     8     9    1
    11     9    10    1
    12    10    11    1
    13    11    15    1
    14    12    15    1
    15    12     8    1
    16    14    13    1
    17    17    19    1
    18    15    13   am
    19     2     6   ar
    20     3     4   ar
    21     5     7   ar
    22    19    20   ar
    23    21    22   ar
    24    23    24   ar
    25    13    16    2
    26    17    18    1
@<TRIPOS>MOLECULE
MolPort-020-278-713 MCULE-1926765994 PubChem-110255584
 24 26 0 0 0
SMALL
GASTEIGER

@<TRIPOS>ATOM
      1 C          13.3367   39.6548   11.1369 C.3     1  UNL1        0.0737
      2 C          12.7671   40.3240    9.9387 C.ar    1  UNL1        0.1406
      3 C          10.8811   40.9710    8.6671 C.ar    1  UNL1        0.0644
      4 C          11.7154   41.5636    7.7195 C.ar    1  UNL1        0.0492
      5 C          13.0949   41.5155    7.9191 C.ar    1  UNL1        0.1357
      6 N          11.4214   40.3628    9.7581 N.ar    1  UNL1       -0.2348
      7 N          13.5925   40.8968    9.0245 N.ar    1  UNL1       -0.2159
      8 C           9.4018   41.0107    8.4722 C.3     1  UNL1        0.0603
      9 C           9.0075   42.1504    7.5275 C.3     1  UNL1        0.0094
     10 C           7.4867   42.3208    7.3778 C.3     1  UNL1        0.0219
     11 C           6.6818   41.3836    8.2791 C.3     1  UNL1        0.0934
     12 C           8.6815   41.1452    9.8157 C.3     1  UNL1        0.0992
     13 C           6.4146   41.6512   10.7670 C.2     1  UNL1        0.2261
     14 C           4.9553   41.9166   10.6075 C.3     1  UNL1        0.0948
     15 N           7.2464   41.3800    9.6288 N.am    1  UNL1       -0.2791
     16 O           6.9100   41.6677   11.9254 O.2     1  UNL1       -0.2749
     17 N          13.9607   42.1211    6.9516 N.pl3   1  UNL1       -0.2833
     18 H          13.6415   42.1422    6.0205 H       1  UNL1        0.1550
     19 C          15.2462   42.6991    7.2085 C.ar    1  UNL1        0.1332
     20 C          16.0881   42.0932    8.1449 C.ar    1  UNL1        0.0345
     21 C          17.3425   42.6496    8.4015 C.ar    1  UNL1        0.0045
     22 C          17.7439   43.8014    7.7237 C.ar    1  UNL1        0.0208
     23 C          16.8779   44.3808    6.7945 C.ar    1  UNL1        0.1003
     24 N          15.6596   43.8234    6.5586 N.ar    1  UNL1       -0.2290
@<TRIPOS>BOND
     1     1     2    1
     2     2     7   ar
     3     3     6   ar
     4     4     5   ar
     5     5    17    1
     6    19    24   ar
     7    20    21   ar
     8    22    23   ar
     9     8     3    1
    10     8     9    1
    11     9    10    1
    12    10    11    1
    13    11    15    1
    14    12    15    1
    15    12     8    1
    16    14    13    1
    17    17    19    1
    18    15    13   am
    19     2     6   ar
    20     3     4   ar
    21     5     7   ar
    22    19    20   ar
    23    21    22   ar
    24    23    24   ar
    25    13    16    2
    26    17    18    1
@<TRIPOS>MOLECULE
MolPort-020-278-713 MCULE-1926765994 PubChem-110255584
 24 26 0 0 0
SMALL
GASTEIGER

@<TRIPOS>ATOM
      1 C          11.8048   40.3137   10.9967 C.3     1  UNL1        0.0737
      2 C          11.2596   40.9393    9.7641 C.ar    1  UNL1        0.1406
      3 C           9.4255   41.8398    8.5736 C.ar    1  UNL1        0.0644
      4 C          10.2531   42.0974    7.4809 C.ar    1  UNL1        0.0492
      5 C          11.6025   41.7561    7.5684 C.ar    1  UNL1        0.1357
      6 N           9.9432   41.2662    9.6939 N.ar    1  UNL1       -0.2348
      7 N          12.0782   41.1841    8.7081 N.ar    1  UNL1       -0.2159
      8 C           7.9781   42.1968    8.5004 C.3     1  UNL1        0.0603
      9 C           7.7935   43.7172    8.4631 C.3     1  UNL1        0.0094
     10 C           6.3200   44.1545    8.5070 C.3     1  UNL1        0.0219
     11 C           5.3477   42.9869    8.6795 C.3     1  UNL1        0.0934
     12 C           7.2089   41.5851    9.6735 C.3     1  UNL1        0.0992
     13 C           4.9813   41.7190   10.8222 C.2     1  UNL1        0.2261
     14 C           3.5820   42.2278   10.9139 C.3     1  UNL1        0.0948
     15 N           5.8310   42.0834    9.7239 N.am    1  UNL1       -0.2791
     16 O           5.4093   40.9573   11.7301 O.2     1  UNL1       -0.2749
     17 N          12.4612   42.0165    6.4516 N.pl3   1  UNL1       -0.2833
     18 H          12.2194   41.5929    5.5964 H       1  UNL1        0.1550
     19 C          13.6378   42.8337    6.4593 C.ar    1  UNL1        0.1332
     20 C          14.7681   42.3900    7.1509 C.ar    1  UNL1        0.0345
     21 C          15.9191   43.1800    7.1637 C.ar    1  UNL1        0.0045
     22 C          15.9316   44.4013    6.4887 C.ar    1  UNL1        0.0208
     23 C          14.7849   44.8141    5.8078 C.ar    1  UNL1        0.1003
     24 N          13.6733   44.0300    5.8072 N.ar    1  UNL1       -0.2290
@<TRIPOS>BOND
     1     1     2    1
     2     2     7   ar
     3     3     6   ar
     4     4     5   ar
     5     5    17    1
     6    19    24   ar
     7    20    21   ar
     8    22    23   ar
     9     8     3    1
    10     8     9    1
    11     9    10    1
    12    10    11    1
    13    11    15    1
    14    12    15    1
    15    12     8    1
    16    14    13    1
    17    17    19    1
    18    15    13   am
    19     2     6   ar
    20     3     4   ar
    21     5     7   ar
    22    19    20   ar
    23    21    22   ar
    24    23    24   ar
    25    13    16    2
    26    17    18    1
@<TRIPOS>MOLECULE
MolPort-020-278-713 MCULE-1926765994 PubChem-110255584
 24 26 0 0 0
SMALL
GASTEIGER

@<TRIPOS>ATOM
      1 C           9.1374   41.0418   14.1249 C.3     1  UNL1        0.0737
      2 C           8.8341   41.2481   12.6850 C.ar    1  UNL1        0.1406
      3 C           7.2770   41.7661   10.9823 C.ar    1  UNL1        0.0644
      4 C           8.2758   41.6294   10.0185 C.ar    1  UNL1        0.0492
      5 C           9.5647   41.2952   10.4333 C.ar    1  UNL1        0.1357
      6 N           7.5740   41.5733   12.2964 N.ar    1  UNL1       -0.2348
      7 N           9.8176   41.1114   11.7579 N.ar    1  UNL1       -0.2159
      8 C           5.8906   42.1228   10.5596 C.3     1  UNL1        0.0603
      9 C           5.2084   40.9353    9.8730 C.3     1  UNL1        0.0094
     10 C           3.8191   41.2731    9.3071 C.3     1  UNL1        0.0219
     11 C           3.4473   42.7487    9.4579 C.3     1  UNL1        0.0934
     12 C           5.9019   43.3474    9.6419 C.3     1  UNL1        0.0992
     13 C           4.4064   44.6260    8.0836 C.2     1  UNL1        0.2261
     14 C           3.0755   44.8844    7.4612 C.3     1  UNL1        0.0948
     15 N           4.5765   43.5920    9.0648 N.am    1  UNL1       -0.2791
     16 O           5.3868   45.3357    7.7330 O.2     1  UNL1       -0.2749
     17 N          10.5979   41.1521    9.4513 N.pl3   1  UNL1       -0.2833
     18 H          10.3571   41.3579    8.5191 H       1  UNL1        0.1550
     19 C          11.9477   40.7386    9.6950 C.ar    1  UNL1        0.1332
     20 C          12.2394   40.0260   10.8611 C.ar    1  UNL1        0.0345
     21 C          13.5521   39.6191   11.1067 C.ar    1  UNL1        0.0045
     22 C          14.5581   39.9257   10.1895 C.ar    1  UNL1        0.0208
     23 C          14.2316   40.6390    9.0346 C.ar    1  UNL1        0.1003
     24 N          12.9465   41.0266    8.8135 N.ar    1  UNL1       -0.2290
@<TRIPOS>BOND
     1     1     2    1
     2     2     7   ar
     3     3     6   ar
     4     4     5   ar
     5     5    17    1
     6    19    24   ar
     7    20    21   ar
     8    22    23   ar
     9     8     3    1
    10     8     9    1
    11     9    10    1
    12    10    11    1
    13    11    15    1
    14    12    15    1
    15    12     8    1
    16    14    13    1
    17    17    19    1
    18    15    13   am
    19     2     6   ar
    20     3     4   ar
    21     5     7   ar
    22    19    20   ar
    23    21    22   ar
    24    23    24   ar
    25    13    16    2
    26    17    18    1
@<TRIPOS>MOLECULE
MolPort-020-278-713 MCULE-1926765994 PubChem-110255584
 24 26 0 0 0
SMALL
GASTEIGER

@<TRIPOS>ATOM
      1 C          10.2670   39.9242    4.2818 C.3     1  UNL1        0.0737
      2 C          10.9750   40.2126    5.5560 C.ar    1  UNL1        0.1406
      3 C          12.5465   41.4957    6.7709 C.ar    1  UNL1        0.0644
      4 C          12.2840   40.7443    7.9163 C.ar    1  UNL1        0.0492
      5 C          11.3439   39.7169    7.8416 C.ar    1  UNL1        0.1357
      6 N          11.8880   41.2166    5.6131 N.ar    1  UNL1       -0.2348
      7 N          10.7086   39.4720    6.6631 N.ar    1  UNL1       -0.2159
      8 C          13.5496   42.5995    6.8292 C.3     1  UNL1        0.0603
      9 C          13.8131   43.1700    5.4320 C.3     1  UNL1        0.0094
     10 C          14.9253   44.2314    5.4058 C.3     1  UNL1        0.0219
     11 C          15.6070   44.4264    6.7607 C.3     1  UNL1        0.0934
     12 C          14.8511   42.1158    7.4725 C.3     1  UNL1        0.0992
     13 C          17.2387   42.8169    7.7999 C.2     1  UNL1        0.2261
     14 C          18.3401   43.8159    7.6794 C.3     1  UNL1        0.0948
     15 N          15.9073   43.1266    7.3616 N.am    1  UNL1       -0.2791
     16 O          17.4967   41.6884    8.2973 O.2     1  UNL1       -0.2749
     17 N          11.0670   38.9390    9.0123 N.pl3   1  UNL1       -0.2833
     18 H          10.3265   39.2446    9.5845 H       1  UNL1        0.1550
     19 C          11.7639   37.7592    9.4305 C.ar    1  UNL1        0.1332
     20 C          13.0863   37.5704    9.0201 C.ar    1  UNL1        0.0345
     21 C          13.7730   36.4235    9.4230 C.ar    1  UNL1        0.0045
     22 C          13.1361   35.4790   10.2289 C.ar    1  UNL1        0.0208
     23 C          11.8143   35.6993   10.6207 C.ar    1  UNL1        0.1003
     24 N          11.1624   36.8232   10.2176 N.ar    1  UNL1       -0.2290
@<TRIPOS>BOND
     1     1     2    1
     2     2     7   ar
     3     3     6   ar
     4     4     5   ar
     5     5    17    1
     6    19    24   ar
     7    20    21   ar
     8    22    23   ar
     9     8     3    1
    10     8     9    1
    11     9    10    1
    12    10    11    1
    13    11    15    1
    14    12    15    1
    15    12     8    1
    16    14    13    1
    17    17    19    1
    18    15    13   am
    19     2     6   ar
    20     3     4   ar
    21     5     7   ar
    22    19    20   ar
    23    21    22   ar
    24    23    24   ar
    25    13    16    2
    26    17    18    1
@<TRIPOS>MOLECULE
MolPort-020-278-713 MCULE-1926765994 PubChem-110255584
 24 26 0 0 0
SMALL
GASTEIGER

@<TRIPOS>ATOM
      1 C          14.0978   38.7917   11.7825 C.3     1  UNL1        0.0737
      2 C          13.4770   39.7382   10.8199 C.ar    1  UNL1        0.1406
      3 C          11.6347   41.0705   10.1695 C.ar    1  UNL1        0.0644
      4 C          12.3304   41.4903    9.0359 C.ar    1  UNL1        0.0492
      5 C          13.6202   41.0041    8.8241 C.ar    1  UNL1        0.1357
      6 N          12.2199   40.2032   11.0398 N.ar    1  UNL1       -0.2348
      7 N          14.1672   40.1380    9.7203 N.ar    1  UNL1       -0.2159
      8 C          10.2528   41.5785   10.4146 C.3     1  UNL1        0.0603
      9 C           9.7101   41.0580   11.7493 C.3     1  UNL1        0.0094
     10 C           8.2453   41.4485   12.0067 C.3     1  UNL1        0.0219
     11 C           7.6022   42.1897   10.8340 C.3     1  UNL1        0.0934
     12 C           9.3216   41.1938    9.2627 C.3     1  UNL1        0.0992
     13 C           6.8833   41.1217    8.6717 C.2     1  UNL1        0.2261
     14 C           5.4518   41.4132    8.9740 C.3     1  UNL1        0.0948
     15 N           7.9259   41.5144    9.5770 N.am    1  UNL1       -0.2791
     16 O           7.1658   40.5216    7.6004 O.2     1  UNL1       -0.2749
     17 N          14.3434   41.4290    7.6627 N.pl3   1  UNL1       -0.2833
     18 H          14.0455   41.0683    6.7965 H       1  UNL1        0.1550
     19 C          15.4584   42.3283    7.6404 C.ar    1  UNL1        0.1332
     20 C          16.5983   42.0151    8.3855 C.ar    1  UNL1        0.0345
     21 C          17.6896   42.8858    8.3696 C.ar    1  UNL1        0.0045
     22 C          17.6334   44.0569    7.6129 C.ar    1  UNL1        0.0208
     23 C          16.4790   44.3389    6.8801 C.ar    1  UNL1        0.1003
     24 N          15.4264   43.4777    6.9087 N.ar    1  UNL1       -0.2290
@<TRIPOS>BOND
     1     1     2    1
     2     2     7   ar
     3     3     6   ar
     4     4     5   ar
     5     5    17    1
     6    19    24   ar
     7    20    21   ar
     8    22    23   ar
     9     8     3    1
    10     8     9    1
    11     9    10    1
    12    10    11    1
    13    11    15    1
    14    12    15    1
    15    12     8    1
    16    14    13    1
    17    17    19    1
    18    15    13   am
    19     2     6   ar
    20     3     4   ar
    21     5     7   ar
    22    19    20   ar
    23    21    22   ar
    24    23    24   ar
    25    13    16    2
    26    17    18    1
@<TRIPOS>MOLECULE
MolPort-020-278-713 MCULE-1926765994 PubChem-110255584
 24 26 0 0 0
SMALL
GASTEIGER

@<TRIPOS>ATOM
      1 C          14.8395   38.2712   11.8098 C.3     1  UNL1        0.0737
      2 C          14.3959   39.2531   10.7865 C.ar    1  UNL1        0.1406
      3 C          12.6462   40.3937    9.6775 C.ar    1  UNL1        0.0644
      4 C          13.5778   41.0713    8.8912 C.ar    1  UNL1        0.0492
      5 C          14.9338   40.8089    9.0847 C.ar    1  UNL1        0.1357
      6 N          13.0717   39.4980   10.6097 N.ar    1  UNL1       -0.2348
      7 N          15.3152   39.9053   10.0283 N.ar    1  UNL1       -0.2159
      8 C          11.1900   40.6594    9.4860 C.3     1  UNL1        0.0603
      9 C          10.9713   41.9707    8.7248 C.3     1  UNL1        0.0094
     10 C           9.4900   42.3631    8.5977 C.3     1  UNL1        0.0219
     11 C           8.5478   41.4168    9.3429 C.3     1  UNL1        0.0934
     12 C          10.4621   40.6849   10.8319 C.3     1  UNL1        0.0992
     13 C           8.2596   41.3399   11.8417 C.2     1  UNL1        0.2261
     14 C           6.8519   41.8187   11.7197 C.3     1  UNL1        0.0948
     15 N           9.0751   41.1346   10.6782 N.am    1  UNL1       -0.2791
     16 O           8.7253   41.1155   12.9907 O.2     1  UNL1       -0.2749
     17 N          15.8989   41.4996    8.2822 N.pl3   1  UNL1       -0.2833
     18 H          16.8321   41.1926    8.3462 H       1  UNL1        0.1550
     19 C          15.6368   42.5939    7.3955 C.ar    1  UNL1        0.1332
     20 C          14.4749   42.5756    6.6194 C.ar    1  UNL1        0.0345
     21 C          14.2115   43.6378    5.7526 C.ar    1  UNL1        0.0045
     22 C          15.1069   44.7049    5.6686 C.ar    1  UNL1        0.0208
     23 C          16.2580   44.6910    6.4584 C.ar    1  UNL1        0.1003
     24 N          16.4967   43.6467    7.2968 N.ar    1  UNL1       -0.2290
@<TRIPOS>BOND
     1     1     2    1
     2     2     7   ar
     3     3     6   ar
     4     4     5   ar
     5     5    17    1
     6    19    24   ar
     7    20    21   ar
     8    22    23   ar
     9     8     3    1
    10     8     9    1
    11     9    10    1
    12    10    11    1
    13    11    15    1
    14    12    15    1
    15    12     8    1
    16    14    13    1
    17    17    19    1
    18    15    13   am
    19     2     6   ar
    20     3     4   ar
    21     5     7   ar
    22    19    20   ar
    23    21    22   ar
    24    23    24   ar
    25    13    16    2
    26    17    18    1
@<TRIPOS>MOLECULE
MolPort-020-278-713 MCULE-1926765994 PubChem-110255584
 24 26 0 0 0
SMALL
GASTEIGER

@<TRIPOS>ATOM
      1 C          15.6357   44.0226    6.7265 C.3     1  UNL1        0.0737
      2 C          14.5837   42.9912    6.9199 C.ar    1  UNL1        0.1406
      3 C          13.8217   41.0334    8.0055 C.ar    1  UNL1        0.0644
      4 C          12.6342   41.0832    7.2757 C.ar    1  UNL1        0.0492
      5 C          12.4540   42.1204    6.3610 C.ar    1  UNL1        0.1357
      6 N          14.7736   41.9871    7.8146 N.ar    1  UNL1       -0.2348
      7 N          13.4322   43.0532    6.2017 N.ar    1  UNL1       -0.2159
      8 C          14.0349   39.9312    8.9892 C.3     1  UNL1        0.0603
      9 C          13.4631   40.3068   10.3599 C.3     1  UNL1        0.0094
     10 C          13.7549   39.2623   11.4501 C.3     1  UNL1        0.0219
     11 C          14.6403   38.1136   10.9653 C.3     1  UNL1        0.0934
     12 C          15.5208   39.5816    9.0980 C.3     1  UNL1        0.0992
     13 C          17.1143   38.2809   10.5362 C.2     1  UNL1        0.2261
     14 C          17.3988   37.3441   11.6618 C.3     1  UNL1        0.0948
     15 N          15.7671   38.6409   10.1952 N.am    1  UNL1       -0.2791
     16 O          18.0823   38.7543    9.8832 O.2     1  UNL1       -0.2749
     17 N          11.2378   42.1808    5.6063 N.pl3   1  UNL1       -0.2833
     18 H          11.1763   42.8811    4.9171 H       1  UNL1        0.1550
     19 C          10.1025   41.3202    5.7578 C.ar    1  UNL1        0.1332
     20 C          10.0036   40.1795    4.9567 C.ar    1  UNL1        0.0345
     21 C           8.9006   39.3353    5.0976 C.ar    1  UNL1        0.0045
     22 C           7.9101   39.6360    6.0333 C.ar    1  UNL1        0.0208
     23 C           8.0407   40.7837    6.8175 C.ar    1  UNL1        0.1003
     24 N           9.1229   41.5936    6.6650 N.ar    1  UNL1       -0.2290
@<TRIPOS>BOND
     1     1     2    1
     2     2     7   ar
     3     3     6   ar
     4     4     5   ar
     5     5    17    1
     6    19    24   ar
     7    20    21   ar
     8    22    23   ar
     9     8     3    1
    10     8     9    1
    11     9    10    1
    12    10    11    1
    13    11    15    1
    14    12    15    1
    15    12     8    1
    16    14    13    1
    17    17    19    1
    18    15    13   am
    19     2     6   ar
    20     3     4   ar
    21     5     7   ar
    22    19    20   ar
    23    21    22   ar
    24    23    24   ar
    25    13    16    2
    26    17    18    1
