@<TRIPOS>MOLECULE
MolPort-027-838-698 94993282 BDVCSFQDCLSZMF-UHFFFAOYSA-N CSSS00160854351 LN01937735 MCULE-8355571149 PubChem-75366575 ZINC000094993282 ZINC94993282
 22 23 0 0 0
SMALL
GASTEIGER

@<TRIPOS>ATOM
      1 C          16.4470   40.2012    9.6881 C.2     1  UNL1        0.2297
      2 O          15.5828   39.8729    8.8322 O.2     1  UNL1       -0.2746
      3 N          17.2654   41.3599    9.5018 N.am    1  UNL1       -0.2390
      4 H          17.9185   41.5793   10.2051 H       1  UNL1        0.1592
      5 C          16.4926   43.6056    6.9544 C.ar    1  UNL1        0.1984
      6 C          17.7645   43.2175    6.5775 C.ar    1  UNL1        0.2085
      7 C          17.1977   42.2205    8.3617 C.ar    1  UNL1        0.2952
      8 O          18.1635   42.3553    7.4822 O.2     1  UNL1       -0.4202
      9 N          16.1215   42.9789    8.0869 N.ar    1  UNL1       -0.1877
     10 C          15.6435   44.5636    6.2395 C.2     1  UNL1        0.3625
     11 O          16.1113   45.6824    5.8918 O.2     1  UNL1       -0.2431
     12 O          14.3163   44.2279    5.9551 O.3     1  UNL1       -0.4443
     13 C          12.8089   42.6439    6.9809 C.3     1  UNL1        0.0513
     14 C          13.8578   42.8818    5.9098 C.3     1  UNL1        0.2089
     15 C          16.5968   39.3913   10.9264 C.3     1  UNL1        0.0902
     16 C          15.7681   38.1230   10.8157 C.3     1  UNL1        0.0359
     17 C          14.3268   38.4530   10.6278 C.ar    1  UNL1       -0.0217
     18 C          13.5238   37.6800    9.7785 C.ar    1  UNL1       -0.0043
     19 C          12.1690   37.9887    9.6225 C.ar    1  UNL1       -0.0003
     20 C          11.6132   39.0666   10.3180 C.ar    1  UNL1       -0.0000
     21 C          12.4112   39.8348   11.1713 C.ar    1  UNL1       -0.0003
     22 C          13.7662   39.5267   11.3278 C.ar    1  UNL1       -0.0043
@<TRIPOS>BOND
     1    13    14    1
     2    14    12    1
     3    10    12    1
     4    10     5    1
     5     5     9   ar
     6     6     8   ar
     7     7     8   ar
     8     7     3    1
     9    15     1    1
    10    15    16    1
    11    16    17    1
    12    18    19   ar
    13    20    21   ar
    14    22    17   ar
    15     3     1   am
    16    10    11    2
    17     5     6   ar
    18     7     9   ar
    19     1     2    2
    20    17    18   ar
    21    19    20   ar
    22    21    22   ar
    23     3     4    1
@<TRIPOS>MOLECULE
MolPort-027-838-698 94993282 BDVCSFQDCLSZMF-UHFFFAOYSA-N CSSS00160854351 LN01937735 MCULE-8355571149 PubChem-75366575 ZINC000094993282 ZINC94993282
 22 23 0 0 0
SMALL
GASTEIGER

@<TRIPOS>ATOM
      1 C          12.6936   41.3725    8.0835 C.2     1  UNL1        0.2297
      2 O          13.8137   40.8009    8.1601 O.2     1  UNL1       -0.2746
      3 N          12.5380   42.5938    7.3546 N.am    1  UNL1       -0.2390
      4 H          11.6397   42.9950    7.3163 H       1  UNL1        0.1592
      5 C          15.5169   43.9440    6.1577 C.ar    1  UNL1        0.1984
      6 C          14.6094   44.5046    5.2787 C.ar    1  UNL1        0.2085
      7 C          13.6007   43.2705    6.6780 C.ar    1  UNL1        0.2952
      8 O          13.4304   44.0575    5.6407 O.2     1  UNL1       -0.4202
      9 N          14.8878   43.1577    7.0516 N.ar    1  UNL1       -0.1877
     10 C          16.9673   44.1588    6.1424 C.2     1  UNL1        0.3625
     11 O          17.6288   43.9153    5.0962 O.2     1  UNL1       -0.2431
     12 O          17.6055   44.6272    7.2949 O.3     1  UNL1       -0.4443
     13 C          17.8799   42.3137    7.9320 C.3     1  UNL1        0.0513
     14 C          18.2323   43.7593    8.2320 C.3     1  UNL1        0.2089
     15 C          11.5082   40.7522    8.7330 C.3     1  UNL1        0.0902
     16 C          11.7242   40.6767   10.2347 C.3     1  UNL1        0.0359
     17 C          12.4256   39.4136   10.6009 C.ar    1  UNL1       -0.0217
     18 C          11.9892   38.1831   10.0920 C.ar    1  UNL1       -0.0043
     19 C          12.6648   37.0062   10.4292 C.ar    1  UNL1       -0.0003
     20 C          13.7800   37.0571   11.2709 C.ar    1  UNL1       -0.0000
     21 C          14.2211   38.2848   11.7741 C.ar    1  UNL1       -0.0003
     22 C          13.5460   39.4622   11.4374 C.ar    1  UNL1       -0.0043
@<TRIPOS>BOND
     1    13    14    1
     2    14    12    1
     3    10    12    1
     4    10     5    1
     5     5     9   ar
     6     6     8   ar
     7     7     8   ar
     8     7     3    1
     9    15     1    1
    10    15    16    1
    11    16    17    1
    12    18    19   ar
    13    20    21   ar
    14    22    17   ar
    15     3     1   am
    16    10    11    2
    17     5     6   ar
    18     7     9   ar
    19     1     2    2
    20    17    18   ar
    21    19    20   ar
    22    21    22   ar
    23     3     4    1
@<TRIPOS>MOLECULE
MolPort-027-838-698 94993282 BDVCSFQDCLSZMF-UHFFFAOYSA-N CSSS00160854351 LN01937735 MCULE-8355571149 PubChem-75366575 ZINC000094993282 ZINC94993282
 22 23 0 0 0
SMALL
GASTEIGER

@<TRIPOS>ATOM
      1 C           9.9128   42.5466   10.1658 C.2     1  UNL1        0.2297
      2 O          10.5380   43.6232   10.3582 O.2     1  UNL1       -0.2746
      3 N          10.5385   41.4377    9.5132 N.am    1  UNL1       -0.2390
      4 H          10.0102   40.6152    9.3965 H       1  UNL1        0.1592
      5 C          13.5845   41.9291    7.8978 C.ar    1  UNL1        0.1984
      6 C          13.9291   40.9408    8.8005 C.ar    1  UNL1        0.2085
      7 C          11.8805   41.4447    9.0194 C.ar    1  UNL1        0.2952
      8 O          12.8379   40.6710    9.4767 O.2     1  UNL1       -0.4202
      9 N          12.2853   42.2578    8.0274 N.ar    1  UNL1       -0.1877
     10 C          14.4873   42.5504    6.9236 C.2     1  UNL1        0.3625
     11 O          14.0375   42.9526    5.8157 O.2     1  UNL1       -0.2431
     12 O          15.8444   42.6852    7.2317 O.3     1  UNL1       -0.4443
     13 C          17.7557   43.8925    8.0821 C.3     1  UNL1        0.0513
     14 C          16.5165   43.9389    7.2067 C.3     1  UNL1        0.2089
     15 C           8.5138   42.4144   10.6529 C.3     1  UNL1        0.0902
     16 C           7.6063   42.0013    9.5069 C.3     1  UNL1        0.0359
     17 C           6.1754   42.0798    9.9166 C.ar    1  UNL1       -0.0217
     18 C           5.2468   42.7765    9.1318 C.ar    1  UNL1       -0.0043
     19 C           3.9037   42.8297    9.5172 C.ar    1  UNL1       -0.0003
     20 C           3.4852   42.1832   10.6840 C.ar    1  UNL1       -0.0000
     21 C           4.4091   41.4816   11.4647 C.ar    1  UNL1       -0.0003
     22 C           5.7524   41.4280   11.0800 C.ar    1  UNL1       -0.0043
@<TRIPOS>BOND
     1    13    14    1
     2    14    12    1
     3    10    12    1
     4    10     5    1
     5     5     9   ar
     6     6     8   ar
     7     7     8   ar
     8     7     3    1
     9    15     1    1
    10    15    16    1
    11    16    17    1
    12    18    19   ar
    13    20    21   ar
    14    22    17   ar
    15     3     1   am
    16    10    11    2
    17     5     6   ar
    18     7     9   ar
    19     1     2    2
    20    17    18   ar
    21    19    20   ar
    22    21    22   ar
    23     3     4    1
@<TRIPOS>MOLECULE
MolPort-027-838-698 94993282 BDVCSFQDCLSZMF-UHFFFAOYSA-N CSSS00160854351 LN01937735 MCULE-8355571149 PubChem-75366575 ZINC000094993282 ZINC94993282
 22 23 0 0 0
SMALL
GASTEIGER

@<TRIPOS>ATOM
      1 C          12.6146   41.4863    8.0359 C.2     1  UNL1        0.2297
      2 O          13.7154   40.9202    8.2700 O.2     1  UNL1       -0.2746
      3 N          12.5483   42.6588    7.2184 N.am    1  UNL1       -0.2390
      4 H          11.6625   43.0571    7.0572 H       1  UNL1        0.1592
      5 C          15.6651   43.8083    6.1727 C.ar    1  UNL1        0.1984
      6 C          14.8305   44.5618    5.3689 C.ar    1  UNL1        0.2085
      7 C          13.6833   43.2903    6.6201 C.ar    1  UNL1        0.2952
      8 O          13.6073   44.2059    5.6820 O.2     1  UNL1       -0.4202
      9 N          14.9476   42.9964    6.9721 N.ar    1  UNL1       -0.1877
     10 C          17.1303   43.8652    6.1758 C.2     1  UNL1        0.3625
     11 O          17.7524   44.1280    5.1103 O.2     1  UNL1       -0.2431
     12 O          17.8257   43.6201    7.3638 O.3     1  UNL1       -0.4443
     13 C          17.3264   41.8359    8.9134 C.3     1  UNL1        0.0513
     14 C          18.2084   42.3125    7.7736 C.3     1  UNL1        0.2089
     15 C          11.3611   40.9093    8.5903 C.3     1  UNL1        0.0902
     16 C          11.3822   40.9934   10.1069 C.3     1  UNL1        0.0359
     17 C          10.0106   41.2349   10.6380 C.ar    1  UNL1       -0.0217
     18 C           8.9495   41.5186    9.7678 C.ar    1  UNL1       -0.0043
     19 C           7.6635   41.7272   10.2758 C.ar    1  UNL1       -0.0003
     20 C           7.4345   41.6478   11.6527 C.ar    1  UNL1       -0.0000
     21 C           8.4907   41.3578   12.5219 C.ar    1  UNL1       -0.0003
     22 C           9.7770   41.1492   12.0147 C.ar    1  UNL1       -0.0043
@<TRIPOS>BOND
     1    13    14    1
     2    14    12    1
     3    10    12    1
     4    10     5    1
     5     5     9   ar
     6     6     8   ar
     7     7     8   ar
     8     7     3    1
     9    15     1    1
    10    15    16    1
    11    16    17    1
    12    18    19   ar
    13    20    21   ar
    14    22    17   ar
    15     3     1   am
    16    10    11    2
    17     5     6   ar
    18     7     9   ar
    19     1     2    2
    20    17    18   ar
    21    19    20   ar
    22    21    22   ar
    23     3     4    1
@<TRIPOS>MOLECULE
MolPort-027-838-698 94993282 BDVCSFQDCLSZMF-UHFFFAOYSA-N CSSS00160854351 LN01937735 MCULE-8355571149 PubChem-75366575 ZINC000094993282 ZINC94993282
 22 23 0 0 0
SMALL
GASTEIGER

@<TRIPOS>ATOM
      1 C          12.6900   41.4319    8.3869 C.2     1  UNL1        0.2297
      2 O          13.8478   41.0686    8.7253 O.2     1  UNL1       -0.2746
      3 N          12.4961   42.4701    7.4217 N.am    1  UNL1       -0.2390
      4 H          11.5713   42.7097    7.1838 H       1  UNL1        0.1592
      5 C          15.4720   43.8775    6.2847 C.ar    1  UNL1        0.1984
      6 C          14.5598   44.4989    5.4529 C.ar    1  UNL1        0.2085
      7 C          13.5566   43.1829    6.7796 C.ar    1  UNL1        0.2952
      8 O          13.3815   44.0362    5.7970 O.2     1  UNL1       -0.4202
      9 N          14.8466   43.0387    7.1322 N.ar    1  UNL1       -0.1877
     10 C          16.9236   44.0843    6.2688 C.2     1  UNL1        0.3625
     11 O          17.5840   43.8330    5.2237 O.2     1  UNL1       -0.2431
     12 O          17.5641   44.5541    7.4195 O.3     1  UNL1       -0.4443
     13 C          17.8734   42.2357    8.0221 C.3     1  UNL1        0.0513
     14 C          18.1477   43.6844    8.3825 C.3     1  UNL1        0.2089
     15 C          11.5066   40.7496    8.9750 C.3     1  UNL1        0.0902
     16 C          11.3732   39.3541    8.3899 C.3     1  UNL1        0.0359
     17 C          10.4760   39.3679    7.1998 C.ar    1  UNL1       -0.0217
     18 C           9.0917   39.2103    7.3493 C.ar    1  UNL1       -0.0043
     19 C           8.2578   39.2414    6.2273 C.ar    1  UNL1       -0.0003
     20 C           8.8045   39.4347    4.9552 C.ar    1  UNL1       -0.0000
     21 C          10.1849   39.5991    4.8048 C.ar    1  UNL1       -0.0003
     22 C          11.0195   39.5681    5.9263 C.ar    1  UNL1       -0.0043
@<TRIPOS>BOND
     1    13    14    1
     2    14    12    1
     3    10    12    1
     4    10     5    1
     5     5     9   ar
     6     6     8   ar
     7     7     8   ar
     8     7     3    1
     9    15     1    1
    10    15    16    1
    11    16    17    1
    12    18    19   ar
    13    20    21   ar
    14    22    17   ar
    15     3     1   am
    16    10    11    2
    17     5     6   ar
    18     7     9   ar
    19     1     2    2
    20    17    18   ar
    21    19    20   ar
    22    21    22   ar
    23     3     4    1
@<TRIPOS>MOLECULE
MolPort-027-838-698 94993282 BDVCSFQDCLSZMF-UHFFFAOYSA-N CSSS00160854351 LN01937735 MCULE-8355571149 PubChem-75366575 ZINC000094993282 ZINC94993282
 22 23 0 0 0
SMALL
GASTEIGER

@<TRIPOS>ATOM
      1 C          16.4326   39.6192    9.9321 C.2     1  UNL1        0.2297
      2 O          17.6835   39.4875    9.8614 O.2     1  UNL1       -0.2746
      3 N          15.7789   40.7602    9.3683 N.am    1  UNL1       -0.2390
      4 H          14.7983   40.8106    9.4410 H       1  UNL1        0.1592
      5 C          16.9465   43.3053    7.2975 C.ar    1  UNL1        0.1984
      6 C          17.8858   43.3473    8.3106 C.ar    1  UNL1        0.2085
      7 C          16.4553   41.8322    8.7063 C.ar    1  UNL1        0.2952
      8 O          17.5400   42.4134    9.1645 O.2     1  UNL1       -0.4202
      9 N          16.0322   42.3465    7.5378 N.ar    1  UNL1       -0.1877
     10 C          16.9249   44.1714    6.1145 C.2     1  UNL1        0.3625
     11 O          17.6388   43.8882    5.1137 O.2     1  UNL1       -0.2431
     12 O          16.1145   45.3107    6.1109 O.3     1  UNL1       -0.4443
     13 C          14.3183   43.8828    5.3570 C.3     1  UNL1        0.0513
     14 C          14.7855   45.3059    5.6029 C.3     1  UNL1        0.2089
     15 C          15.6195   38.5574   10.5826 C.3     1  UNL1        0.0902
     16 C          15.1275   37.5719    9.5365 C.3     1  UNL1        0.0359
     17 C          13.6541   37.3782    9.6503 C.ar    1  UNL1       -0.0217
     18 C          13.1301   36.3458   10.4397 C.ar    1  UNL1       -0.0043
     19 C          11.7458   36.1836   10.5523 C.ar    1  UNL1       -0.0003
     20 C          10.8830   37.0550    9.8809 C.ar    1  UNL1       -0.0000
     21 C          11.4040   38.0901    9.0983 C.ar    1  UNL1       -0.0003
     22 C          12.7882   38.2529    8.9851 C.ar    1  UNL1       -0.0043
@<TRIPOS>BOND
     1    13    14    1
     2    14    12    1
     3    10    12    1
     4    10     5    1
     5     5     9   ar
     6     6     8   ar
     7     7     8   ar
     8     7     3    1
     9    15     1    1
    10    15    16    1
    11    16    17    1
    12    18    19   ar
    13    20    21   ar
    14    22    17   ar
    15     3     1   am
    16    10    11    2
    17     5     6   ar
    18     7     9   ar
    19     1     2    2
    20    17    18   ar
    21    19    20   ar
    22    21    22   ar
    23     3     4    1
@<TRIPOS>MOLECULE
MolPort-027-838-698 94993282 BDVCSFQDCLSZMF-UHFFFAOYSA-N CSSS00160854351 LN01937735 MCULE-8355571149 PubChem-75366575 ZINC000094993282 ZINC94993282
 22 23 0 0 0
SMALL
GASTEIGER

@<TRIPOS>ATOM
      1 C          12.6646   40.6481    8.6256 C.2     1  UNL1        0.2297
      2 O          12.5120   41.7720    9.1740 O.2     1  UNL1       -0.2746
      3 N          13.9672   40.1683    8.2789 N.am    1  UNL1       -0.2390
      4 H          14.0335   39.2790    7.8618 H       1  UNL1        0.1592
      5 C          16.5996   42.4373    8.5070 C.ar    1  UNL1        0.1984
      6 C          17.1580   41.3333    9.1233 C.ar    1  UNL1        0.2085
      7 C          15.1792   40.8950    8.4979 C.ar    1  UNL1        0.2952
      8 O          16.2383   40.3982    9.0946 O.2     1  UNL1       -0.4202
      9 N          15.3423   42.1710    8.1054 N.ar    1  UNL1       -0.1877
     10 C          17.2612   43.7300    8.3048 C.2     1  UNL1        0.3625
     11 O          17.4596   44.4963    9.2871 O.2     1  UNL1       -0.2431
     12 O          17.6614   44.1043    7.0184 O.3     1  UNL1       -0.4443
     13 C          15.7120   44.9766    5.8902 C.3     1  UNL1        0.0513
     14 C          16.8258   43.9454    5.8779 C.3     1  UNL1        0.2089
     15 C          11.4765   39.7928    8.3641 C.3     1  UNL1        0.0902
     16 C          11.0526   39.0944    9.6447 C.3     1  UNL1        0.0359
     17 C          12.2245   38.4514   10.3041 C.ar    1  UNL1       -0.0217
     18 C          13.0094   39.1674   11.2178 C.ar    1  UNL1       -0.0043
     19 C          14.0966   38.5490   11.8429 C.ar    1  UNL1       -0.0003
     20 C          14.3985   37.2135   11.5602 C.ar    1  UNL1       -0.0000
     21 C          13.6122   36.4953   10.6540 C.ar    1  UNL1       -0.0003
     22 C          12.5248   37.1131   10.0285 C.ar    1  UNL1       -0.0043
@<TRIPOS>BOND
     1    13    14    1
     2    14    12    1
     3    10    12    1
     4    10     5    1
     5     5     9   ar
     6     6     8   ar
     7     7     8   ar
     8     7     3    1
     9    15     1    1
    10    15    16    1
    11    16    17    1
    12    18    19   ar
    13    20    21   ar
    14    22    17   ar
    15     3     1   am
    16    10    11    2
    17     5     6   ar
    18     7     9   ar
    19     1     2    2
    20    17    18   ar
    21    19    20   ar
    22    21    22   ar
    23     3     4    1
@<TRIPOS>MOLECULE
MolPort-027-838-698 94993282 BDVCSFQDCLSZMF-UHFFFAOYSA-N CSSS00160854351 LN01937735 MCULE-8355571149 PubChem-75366575 ZINC000094993282 ZINC94993282
 22 23 0 0 0
SMALL
GASTEIGER

@<TRIPOS>ATOM
      1 C          12.7837   41.0755    9.3170 C.2     1  UNL1        0.2297
      2 O          12.4971   40.2976   10.2656 O.2     1  UNL1       -0.2746
      3 N          11.9588   42.2051    9.0157 N.am    1  UNL1       -0.2390
      4 H          12.2321   42.7882    8.2711 H       1  UNL1        0.1592
      5 C           8.8824   42.3914   10.6376 C.ar    1  UNL1        0.1984
      6 C           9.3332   43.6888   10.7922 C.ar    1  UNL1        0.2085
      7 C          10.7637   42.5433    9.7245 C.ar    1  UNL1        0.2952
      8 O          10.5071   43.7367   10.2086 O.2     1  UNL1       -0.4202
      9 N           9.7829   41.6538    9.9607 N.ar    1  UNL1       -0.1877
     10 C           7.6060   41.8648   11.1309 C.2     1  UNL1        0.3625
     11 O           7.4094   41.7505   12.3718 O.2     1  UNL1       -0.2431
     12 O           6.6181   41.4871   10.2163 O.3     1  UNL1       -0.4443
     13 C           4.3720   40.6546   10.5251 C.3     1  UNL1        0.0513
     14 C           5.2564   41.8761   10.3528 C.3     1  UNL1        0.2089
     15 C          14.0151   40.8352    8.5186 C.3     1  UNL1        0.0902
     16 C          14.0541   41.7849    7.3336 C.3     1  UNL1        0.0359
     17 C          15.3379   42.5419    7.3102 C.ar    1  UNL1       -0.0217
     18 C          15.5025   43.6390    6.4542 C.ar    1  UNL1       -0.0043
     19 C          16.7053   44.3520    6.4524 C.ar    1  UNL1       -0.0003
     20 C          17.7435   43.9735    7.3089 C.ar    1  UNL1       -0.0000
     21 C          17.5785   42.8833    8.1688 C.ar    1  UNL1       -0.0003
     22 C          16.3759   42.1698    8.1711 C.ar    1  UNL1       -0.0043
@<TRIPOS>BOND
     1    13    14    1
     2    14    12    1
     3    10    12    1
     4    10     5    1
     5     5     9   ar
     6     6     8   ar
     7     7     8   ar
     8     7     3    1
     9    15     1    1
    10    15    16    1
    11    16    17    1
    12    18    19   ar
    13    20    21   ar
    14    22    17   ar
    15     3     1   am
    16    10    11    2
    17     5     6   ar
    18     7     9   ar
    19     1     2    2
    20    17    18   ar
    21    19    20   ar
    22    21    22   ar
    23     3     4    1
@<TRIPOS>MOLECULE
MolPort-027-838-698 94993282 BDVCSFQDCLSZMF-UHFFFAOYSA-N CSSS00160854351 LN01937735 MCULE-8355571149 PubChem-75366575 ZINC000094993282 ZINC94993282
 22 23 0 0 0
SMALL
GASTEIGER

@<TRIPOS>ATOM
      1 C           9.4729   41.4637   10.3263 C.2     1  UNL1        0.2297
      2 O           9.8795   41.8373   11.4587 O.2     1  UNL1       -0.2746
      3 N          10.3271   40.7336    9.4407 N.am    1  UNL1       -0.2390
      4 H           9.9580   40.4556    8.5714 H       1  UNL1        0.1592
      5 C          13.3530   39.3660   10.4909 C.ar    1  UNL1        0.1984
      6 C          13.8008   40.4561    9.7686 C.ar    1  UNL1        0.2085
      7 C          11.6814   40.3808    9.7346 C.ar    1  UNL1        0.2952
      8 O          12.7262   41.0578    9.3169 O.2     1  UNL1       -0.4202
      9 N          12.0079   39.3075   10.4764 N.ar    1  UNL1       -0.1877
     10 C          14.2019   38.3934   11.1863 C.2     1  UNL1        0.3625
     11 O          14.6375   38.6506   12.3419 O.2     1  UNL1       -0.2431
     12 O          14.5262   37.1885   10.5555 O.3     1  UNL1       -0.4443
     13 C          12.6598   35.6650   10.3833 C.3     1  UNL1        0.0513
     14 C          13.6508   36.5417    9.6392 C.3     1  UNL1        0.2089
     15 C           8.0738   41.7575    9.9164 C.3     1  UNL1        0.0902
     16 C           7.1488   41.6319   11.1148 C.3     1  UNL1        0.0359
     17 C           5.7245   41.5983   10.6767 C.ar    1  UNL1       -0.0217
     18 C           5.2646   42.4705    9.6811 C.ar    1  UNL1       -0.0043
     19 C           3.9302   42.4190    9.2662 C.ar    1  UNL1       -0.0003
     20 C           3.0547   41.4932    9.8415 C.ar    1  UNL1       -0.0000
     21 C           3.5135   40.6173   10.8302 C.ar    1  UNL1       -0.0003
     22 C           4.8478   40.6683   11.2456 C.ar    1  UNL1       -0.0043
@<TRIPOS>BOND
     1    13    14    1
     2    14    12    1
     3    10    12    1
     4    10     5    1
     5     5     9   ar
     6     6     8   ar
     7     7     8   ar
     8     7     3    1
     9    15     1    1
    10    15    16    1
    11    16    17    1
    12    18    19   ar
    13    20    21   ar
    14    22    17   ar
    15     3     1   am
    16    10    11    2
    17     5     6   ar
    18     7     9   ar
    19     1     2    2
    20    17    18   ar
    21    19    20   ar
    22    21    22   ar
    23     3     4    1
@<TRIPOS>MOLECULE
MolPort-027-838-698 94993282 BDVCSFQDCLSZMF-UHFFFAOYSA-N CSSS00160854351 LN01937735 MCULE-8355571149 PubChem-75366575 ZINC000094993282 ZINC94993282
 22 23 0 0 0
SMALL
GASTEIGER

@<TRIPOS>ATOM
      1 C          13.1286   40.6716    9.1294 C.2     1  UNL1        0.2297
      2 O          12.8017   41.6682    8.4315 O.2     1  UNL1       -0.2746
      3 N          14.5035   40.3747    9.3912 N.am    1  UNL1       -0.2390
      4 H          14.7059   39.5905    9.9511 H       1  UNL1        0.1592
      5 C          16.7096   42.6123    7.8893 C.ar    1  UNL1        0.1984
      6 C          17.5964   41.7733    8.5375 C.ar    1  UNL1        0.2085
      7 C          15.6034   41.1414    8.8937 C.ar    1  UNL1        0.2952
      8 O          16.8633   40.8736    9.1490 O.2     1  UNL1       -0.4202
      9 N          15.4400   42.2209    8.1083 N.ar    1  UNL1       -0.1877
     10 C          17.0729   43.7731    7.0705 C.2     1  UNL1        0.3625
     11 O          18.2775   43.9638    6.7478 O.2     1  UNL1       -0.2431
     12 O          16.0767   44.6640    6.6596 O.3     1  UNL1       -0.4443
     13 C          13.9573   44.0338    5.6877 C.3     1  UNL1        0.0513
     14 C          15.3736   44.5162    5.4316 C.3     1  UNL1        0.2089
     15 C          12.0692   39.8091    9.7172 C.3     1  UNL1        0.0902
     16 C          11.6416   40.3647   11.0648 C.3     1  UNL1        0.0359
     17 C          10.2466   40.8856   10.9986 C.ar    1  UNL1       -0.0217
     18 C           9.6179   41.0832    9.7620 C.ar    1  UNL1       -0.0043
     19 C           8.3031   41.5567    9.7123 C.ar    1  UNL1       -0.0003
     20 C           7.6130   41.8289   10.8973 C.ar    1  UNL1       -0.0000
     21 C           8.2364   41.6258   12.1323 C.ar    1  UNL1       -0.0003
     22 C           9.5511   41.1523   12.1828 C.ar    1  UNL1       -0.0043
@<TRIPOS>BOND
     1    13    14    1
     2    14    12    1
     3    10    12    1
     4    10     5    1
     5     5     9   ar
     6     6     8   ar
     7     7     8   ar
     8     7     3    1
     9    15     1    1
    10    15    16    1
    11    16    17    1
    12    18    19   ar
    13    20    21   ar
    14    22    17   ar
    15     3     1   am
    16    10    11    2
    17     5     6   ar
    18     7     9   ar
    19     1     2    2
    20    17    18   ar
    21    19    20   ar
    22    21    22   ar
    23     3     4    1
