@<TRIPOS>MOLECULE
MolPort-047-015-259 MCULE-1510657617 PubChem-155985150
 22 24 0 0 0
SMALL
GASTEIGER

@<TRIPOS>ATOM
      1 C          12.2179   41.6905    6.9360 C.ar    1  UNL1        0.2218
      2 C          10.2539   41.3115    8.2022 C.ar    1  UNL1        0.1031
      3 C          10.9354   40.4022    9.0077 C.ar    1  UNL1        0.0355
      4 C          12.2868   40.1580    8.7409 C.ar    1  UNL1        0.0644
      5 N          10.9027   41.9366    7.1859 N.ar    1  UNL1       -0.2120
      6 N          12.8965   40.8057    7.7135 N.ar    1  UNL1       -0.2179
      7 C          13.0752   39.1942    9.5692 C.3     1  UNL1        0.0564
      8 C          12.9160   39.5011   11.0628 C.3     1  UNL1        0.0087
      9 C          13.9801   38.7808   11.8911 C.3     1  UNL1        0.0178
     10 C          15.3957   38.9605   11.3150 C.3     1  UNL1        0.0721
     11 C          14.5466   39.1590    9.1270 C.3     1  UNL1        0.0780
     12 N          15.4088   39.8133   10.1174 N.3     1  UNL1       -0.2736
     13 C          16.7788   39.8634    9.5886 C.3     1  UNL1        0.0576
     14 C          17.7737   39.3100   10.6006 C.3     1  UNL1        0.0173
     15 C          17.1936   41.2981    9.2886 C.3     1  UNL1        0.0173
     16 N          12.9024   42.3490    5.8648 N.pl3   1  UNL1       -0.2628
     17 H          12.6238   42.1261    4.9473 H       1  UNL1        0.1570
     18 C          13.9578   43.3039    6.0156 C.ar    1  UNL1        0.1657
     19 C          15.9969   44.5525    6.5955 C.ar    1  UNL1        0.0588
     20 C          15.1017   45.2152    5.7545 C.ar    1  UNL1        0.1079
     21 N          13.9751   44.5210    5.4363 N.ar    1  UNL1       -0.2224
     22 S          15.3282   43.0436    6.9378 S.2     1  UNL1       -0.0508
@<TRIPOS>BOND
     1     1    16    1
     2     1     6   ar
     3     2     5   ar
     4     3     4   ar
     5     7     4    1
     6     7     8    1
     7     8     9    1
     8     9    10    1
     9    10    12    1
    10    13    12    1
    11    13    14    1
    12    13    15    1
    13    11    12    1
    14    11     7    1
    15    18    22   ar
    16    19    22   ar
    17    20    21   ar
    18    16    18    1
    19     1     5   ar
    20     2     3   ar
    21     4     6   ar
    22    18    21   ar
    23    19    20   ar
    24    16    17    1
@<TRIPOS>MOLECULE
MolPort-047-015-259 MCULE-1510657617 PubChem-155985150
 22 24 0 0 0
SMALL
GASTEIGER

@<TRIPOS>ATOM
      1 C          13.2568   41.9025    7.0819 C.ar    1  UNL1        0.2218
      2 C          10.9849   41.2831    6.8392 C.ar    1  UNL1        0.1031
      3 C          11.0302   40.5994    8.0519 C.ar    1  UNL1        0.0355
      4 C          12.2328   40.5896    8.7668 C.ar    1  UNL1        0.0644
      5 N          12.0924   41.9193    6.3774 N.ar    1  UNL1       -0.2120
      6 N          13.3167   41.2395    8.2671 N.ar    1  UNL1       -0.2179
      7 C          12.3469   39.8749   10.0755 C.3     1  UNL1        0.0564
      8 C          13.7658   39.9990   10.6429 C.3     1  UNL1        0.0087
      9 C          14.0011   38.9900   11.7672 C.3     1  UNL1        0.0178
     10 C          13.5512   37.5686   11.3861 C.3     1  UNL1        0.0721
     11 C          11.8864   38.4141    9.9504 C.3     1  UNL1        0.0780
     12 N          13.0286   37.4957   10.0137 N.3     1  UNL1       -0.2736
     13 C          12.5486   36.1297    9.7634 C.3     1  UNL1        0.0576
     14 C          11.6954   35.6313   10.9226 C.3     1  UNL1        0.0173
     15 C          13.7155   35.1619    9.6154 C.3     1  UNL1        0.0173
     16 N          14.4246   42.5728    6.5957 N.pl3   1  UNL1       -0.2628
     17 H          14.3874   42.9374    5.6819 H       1  UNL1        0.1570
     18 C          15.6416   42.7575    7.3260 C.ar    1  UNL1        0.1657
     19 C          17.7344   43.5707    8.3318 C.ar    1  UNL1        0.0588
     20 C          17.3401   42.2873    8.7128 C.ar    1  UNL1        0.1079
     21 N          16.1820   41.8414    8.1541 N.ar    1  UNL1       -0.2224
     22 S          16.5719   44.1451    7.2550 S.2     1  UNL1       -0.0508
@<TRIPOS>BOND
     1     1    16    1
     2     1     6   ar
     3     2     5   ar
     4     3     4   ar
     5     7     4    1
     6     7     8    1
     7     8     9    1
     8     9    10    1
     9    10    12    1
    10    13    12    1
    11    13    14    1
    12    13    15    1
    13    11    12    1
    14    11     7    1
    15    18    22   ar
    16    19    22   ar
    17    20    21   ar
    18    16    18    1
    19     1     5   ar
    20     2     3   ar
    21     4     6   ar
    22    18    21   ar
    23    19    20   ar
    24    16    17    1
@<TRIPOS>MOLECULE
MolPort-047-015-259 MCULE-1510657617 PubChem-155985150
 22 24 0 0 0
SMALL
GASTEIGER

@<TRIPOS>ATOM
      1 C          12.3443   41.8054    7.3804 C.ar    1  UNL1        0.2218
      2 C          10.4563   41.2596    8.7001 C.ar    1  UNL1        0.1031
      3 C          11.2800   40.6618    9.6510 C.ar    1  UNL1        0.0355
      4 C          12.6610   40.6554    9.4269 C.ar    1  UNL1        0.0644
      5 N          10.9991   41.8180    7.5874 N.ar    1  UNL1       -0.2120
      6 N          13.1612   41.2258    8.2994 N.ar    1  UNL1       -0.2179
      7 C          13.5996   40.0309   10.4095 C.3     1  UNL1        0.0564
      8 C          15.0352   40.0357    9.8716 C.3     1  UNL1        0.0087
      9 C          15.9296   39.0922   10.6761 C.3     1  UNL1        0.0178
     10 C          15.2919   37.7064   10.8783 C.3     1  UNL1        0.0721
     11 C          13.1245   38.6260   10.8126 C.3     1  UNL1        0.0780
     12 N          13.9812   37.5920   10.2219 N.3     1  UNL1       -0.2736
     13 C          13.4109   36.2740   10.5334 C.3     1  UNL1        0.0576
     14 C          13.8492   35.2352    9.5093 C.3     1  UNL1        0.0173
     15 C          11.8885   36.3197   10.5041 C.3     1  UNL1        0.0173
     16 N          12.9171   42.3938    6.2076 N.pl3   1  UNL1       -0.2628
     17 H          12.5375   42.1286    5.3389 H       1  UNL1        0.1570
     18 C          13.9953   43.3350    6.1918 C.ar    1  UNL1        0.1657
     19 C          16.1032   44.5713    6.4770 C.ar    1  UNL1        0.0588
     20 C          15.1272   45.2103    5.7109 C.ar    1  UNL1        0.1079
     21 N          13.9628   44.5230    5.5558 N.ar    1  UNL1       -0.2224
     22 S          15.4578   43.0928    6.9654 S.2     1  UNL1       -0.0508
@<TRIPOS>BOND
     1     1    16    1
     2     1     6   ar
     3     2     5   ar
     4     3     4   ar
     5     7     4    1
     6     7     8    1
     7     8     9    1
     8     9    10    1
     9    10    12    1
    10    13    12    1
    11    13    14    1
    12    13    15    1
    13    11    12    1
    14    11     7    1
    15    18    22   ar
    16    19    22   ar
    17    20    21   ar
    18    16    18    1
    19     1     5   ar
    20     2     3   ar
    21     4     6   ar
    22    18    21   ar
    23    19    20   ar
    24    16    17    1
@<TRIPOS>MOLECULE
MolPort-047-015-259 MCULE-1510657617 PubChem-155985150
 22 24 0 0 0
SMALL
GASTEIGER

@<TRIPOS>ATOM
      1 C          11.8048   41.5398    6.7463 C.ar    1  UNL1        0.2218
      2 C           9.9008   41.2684    8.1265 C.ar    1  UNL1        0.1031
      3 C          10.4235   40.0807    8.6329 C.ar    1  UNL1        0.0355
      4 C          11.6668   39.6454    8.1616 C.ar    1  UNL1        0.0644
      5 N          10.5961   41.9737    7.1973 N.ar    1  UNL1       -0.2120
      6 N          12.3281   40.3827    7.2310 N.ar    1  UNL1       -0.2179
      7 C          12.2833   38.3796    8.6658 C.3     1  UNL1        0.0564
      8 C          11.3472   37.6721    9.6524 C.3     1  UNL1        0.0087
      9 C          12.0907   36.5966   10.4447 C.3     1  UNL1        0.0178
     10 C          13.4197   37.1082   11.0278 C.3     1  UNL1        0.0721
     11 C          13.6773   38.6405    9.2577 C.3     1  UNL1        0.0780
     12 N          13.6571   38.5262   10.7201 N.3     1  UNL1       -0.2736
     13 C          14.9775   38.9074   11.2402 C.3     1  UNL1        0.0576
     14 C          15.8020   39.6109   10.1700 C.3     1  UNL1        0.0173
     15 C          15.7644   37.6790   11.6788 C.3     1  UNL1        0.0173
     16 N          12.5383   42.2828    5.7667 N.pl3   1  UNL1       -0.2628
     17 H          12.2415   42.2104    4.8308 H       1  UNL1        0.1570
     18 C          13.6667   43.1220    6.0333 C.ar    1  UNL1        0.1657
     19 C          15.7650   44.1417    6.8144 C.ar    1  UNL1        0.0588
     20 C          15.0097   44.9150    5.9316 C.ar    1  UNL1        0.1079
     21 N          13.8498   44.3473    5.5021 N.ar    1  UNL1       -0.2224
     22 S          14.9262   42.6986    7.0485 S.2     1  UNL1       -0.0508
@<TRIPOS>BOND
     1     1    16    1
     2     1     6   ar
     3     2     5   ar
     4     3     4   ar
     5     7     4    1
     6     7     8    1
     7     8     9    1
     8     9    10    1
     9    10    12    1
    10    13    12    1
    11    13    14    1
    12    13    15    1
    13    11    12    1
    14    11     7    1
    15    18    22   ar
    16    19    22   ar
    17    20    21   ar
    18    16    18    1
    19     1     5   ar
    20     2     3   ar
    21     4     6   ar
    22    18    21   ar
    23    19    20   ar
    24    16    17    1
@<TRIPOS>MOLECULE
MolPort-047-015-259 MCULE-1510657617 PubChem-155985150
 22 24 0 0 0
SMALL
GASTEIGER

@<TRIPOS>ATOM
      1 C          12.0017   41.9085    7.0791 C.ar    1  UNL1        0.2218
      2 C          11.6489   41.2184    9.3160 C.ar    1  UNL1        0.1031
      3 C          10.2724   41.1974    9.1040 C.ar    1  UNL1        0.0355
      4 C           9.7876   41.5456    7.8387 C.ar    1  UNL1        0.0644
      5 N          12.4854   41.5715    8.3060 N.ar    1  UNL1       -0.2120
      6 N          10.6608   41.8927    6.8569 N.ar    1  UNL1       -0.2179
      7 C           8.3210   41.5420    7.5461 C.3     1  UNL1        0.0564
      8 C           7.8899   42.8647    6.9019 C.3     1  UNL1        0.0087
      9 C           6.3699   43.0251    6.9343 C.3     1  UNL1        0.0178
     10 C           5.7762   42.7284    8.3226 C.3     1  UNL1        0.0721
     11 C           7.5064   41.2049    8.8049 C.3     1  UNL1        0.0780
     12 N           6.8092   42.3914    9.3131 N.3     1  UNL1       -0.2736
     13 C           6.1523   42.0443   10.5808 C.3     1  UNL1        0.0576
     14 C           7.1397   41.4054   11.5487 C.3     1  UNL1        0.0173
     15 C           5.0303   41.0392   10.3544 C.3     1  UNL1        0.0173
     16 N          12.8829   42.2809    6.0141 N.pl3   1  UNL1       -0.2628
     17 H          12.7556   41.8335    5.1464 H       1  UNL1        0.1570
     18 C          13.9334   43.2487    6.1045 C.ar    1  UNL1        0.1657
     19 C          15.9847   44.5243    6.5715 C.ar    1  UNL1        0.0588
     20 C          15.0402   45.1708    5.7729 C.ar    1  UNL1        0.1079
     21 N          13.9071   44.4618    5.5171 N.ar    1  UNL1       -0.2224
     22 S          15.3519   43.0105    6.9573 S.2     1  UNL1       -0.0508
@<TRIPOS>BOND
     1     1    16    1
     2     1     6   ar
     3     2     5   ar
     4     3     4   ar
     5     7     4    1
     6     7     8    1
     7     8     9    1
     8     9    10    1
     9    10    12    1
    10    13    12    1
    11    13    14    1
    12    13    15    1
    13    11    12    1
    14    11     7    1
    15    18    22   ar
    16    19    22   ar
    17    20    21   ar
    18    16    18    1
    19     1     5   ar
    20     2     3   ar
    21     4     6   ar
    22    18    21   ar
    23    19    20   ar
    24    16    17    1
@<TRIPOS>MOLECULE
MolPort-047-015-259 MCULE-1510657617 PubChem-155985150
 22 24 0 0 0
SMALL
GASTEIGER

@<TRIPOS>ATOM
      1 C          12.7949   41.6868    7.9377 C.ar    1  UNL1        0.2218
      2 C          13.2824   40.0743    9.6010 C.ar    1  UNL1        0.1031
      3 C          12.2137   40.5287   10.3702 C.ar    1  UNL1        0.0355
      4 C          11.4416   41.5870    9.8792 C.ar    1  UNL1        0.0644
      5 N          13.5533   40.6576    8.4048 N.ar    1  UNL1       -0.2120
      6 N          11.7487   42.1413    8.6770 N.ar    1  UNL1       -0.2179
      7 C          10.2803   42.1205   10.6559 C.3     1  UNL1        0.0564
      8 C           9.9056   41.1700   11.7990 C.3     1  UNL1        0.0087
      9 C           8.5234   41.5012   12.3620 C.3     1  UNL1        0.0178
     10 C           7.4650   41.6762   11.2587 C.3     1  UNL1        0.0721
     11 C           9.0920   42.4304    9.7319 C.3     1  UNL1        0.0780
     12 N           8.0152   41.4509    9.9140 N.3     1  UNL1       -0.2736
     13 C           6.9637   41.7178    8.9229 C.3     1  UNL1        0.0576
     14 C           5.5888   41.3765    9.4824 C.3     1  UNL1        0.0173
     15 C           7.1648   40.8682    7.6747 C.3     1  UNL1        0.0173
     16 N          13.0801   42.3021    6.6769 N.pl3   1  UNL1       -0.2628
     17 H          12.5341   42.0247    5.9061 H       1  UNL1        0.1570
     18 C          14.0922   43.2867    6.4426 C.ar    1  UNL1        0.1657
     19 C          16.1425   44.6438    6.3547 C.ar    1  UNL1        0.0588
     20 C          15.0496   45.1545    5.6528 C.ar    1  UNL1        0.1079
     21 N          13.9176   44.4008    5.7041 N.ar    1  UNL1       -0.2224
     22 S          15.6450   43.1941    7.0561 S.2     1  UNL1       -0.0508
@<TRIPOS>BOND
     1     1    16    1
     2     1     6   ar
     3     2     5   ar
     4     3     4   ar
     5     7     4    1
     6     7     8    1
     7     8     9    1
     8     9    10    1
     9    10    12    1
    10    13    12    1
    11    13    14    1
    12    13    15    1
    13    11    12    1
    14    11     7    1
    15    18    22   ar
    16    19    22   ar
    17    20    21   ar
    18    16    18    1
    19     1     5   ar
    20     2     3   ar
    21     4     6   ar
    22    18    21   ar
    23    19    20   ar
    24    16    17    1
@<TRIPOS>MOLECULE
MolPort-047-015-259 MCULE-1510657617 PubChem-155985150
 22 24 0 0 0
SMALL
GASTEIGER

@<TRIPOS>ATOM
      1 C          16.3892   40.0972    9.9417 C.ar    1  UNL1        0.2218
      2 C          16.1621   38.6562   11.8062 C.ar    1  UNL1        0.1031
      3 C          14.7854   38.5932   11.6037 C.ar    1  UNL1        0.0355
      4 C          14.2353   39.3112   10.5364 C.ar    1  UNL1        0.0644
      5 N          16.9361   39.4028   10.9768 N.ar    1  UNL1       -0.2120
      6 N          15.0473   40.0455    9.7313 N.ar    1  UNL1       -0.2179
      7 C          12.7649   39.2843   10.2644 C.3     1  UNL1        0.0564
      8 C          12.2759   37.8472   10.0503 C.3     1  UNL1        0.0087
      9 C          10.8837   37.8259    9.4189 C.3     1  UNL1        0.0178
     10 C          10.7750   38.7615    8.2020 C.3     1  UNL1        0.0721
     11 C          12.4015   40.2124    9.0947 C.3     1  UNL1        0.0780
     12 N          12.0451   39.4382    7.9007 N.3     1  UNL1       -0.2736
     13 C          11.8309   40.3683    6.7834 C.3     1  UNL1        0.0576
     14 C          11.9227   41.8142    7.2533 C.3     1  UNL1        0.0173
     15 C          10.4464   40.1796    6.1768 C.3     1  UNL1        0.0173
     16 N          17.2046   40.8844    9.0671 N.pl3   1  UNL1       -0.2628
     17 H          18.1378   40.5973    8.9409 H       1  UNL1        0.1570
     18 C          16.7774   42.0536    8.3607 C.ar    1  UNL1        0.1657
     19 C          16.5239   44.2724    7.3283 C.ar    1  UNL1        0.0588
     20 C          15.4742   43.3797    7.1068 C.ar    1  UNL1        0.1079
     21 N          15.6184   42.1537    7.6797 N.ar    1  UNL1       -0.2224
     22 S          17.6612   43.4708    8.2797 S.2     1  UNL1       -0.0508
@<TRIPOS>BOND
     1     1    16    1
     2     1     6   ar
     3     2     5   ar
     4     3     4   ar
     5     7     4    1
     6     7     8    1
     7     8     9    1
     8     9    10    1
     9    10    12    1
    10    13    12    1
    11    13    14    1
    12    13    15    1
    13    11    12    1
    14    11     7    1
    15    18    22   ar
    16    19    22   ar
    17    20    21   ar
    18    16    18    1
    19     1     5   ar
    20     2     3   ar
    21     4     6   ar
    22    18    21   ar
    23    19    20   ar
    24    16    17    1
@<TRIPOS>MOLECULE
MolPort-047-015-259 MCULE-1510657617 PubChem-155985150
 22 24 0 0 0
SMALL
GASTEIGER

@<TRIPOS>ATOM
      1 C          13.6219   42.1200    6.6466 C.ar    1  UNL1        0.2218
      2 C          15.7776   42.9843    7.1048 C.ar    1  UNL1        0.1031
      3 C          15.9273   42.0836    8.1567 C.ar    1  UNL1        0.0355
      4 C          14.8798   41.1971    8.4291 C.ar    1  UNL1        0.0644
      5 N          14.6343   42.9873    6.3719 N.ar    1  UNL1       -0.2120
      6 N          13.7532   41.2350    7.6700 N.ar    1  UNL1       -0.2179
      7 C          14.9784   40.2049    9.5437 C.3     1  UNL1        0.0564
      8 C          16.4362   40.0165    9.9790 C.3     1  UNL1        0.0087
      9 C          16.5977   38.7643   10.8411 C.3     1  UNL1        0.0178
     10 C          15.9162   37.5315   10.2217 C.3     1  UNL1        0.0721
     11 C          14.2986   38.8793    9.1663 C.3     1  UNL1        0.0780
     12 N          15.2935   37.8290    8.9234 N.3     1  UNL1       -0.2736
     13 C          14.5997   36.6250    8.4458 C.3     1  UNL1        0.0576
     14 C          13.6763   36.0661    9.5206 C.3     1  UNL1        0.0173
     15 C          15.5955   35.5274    8.0934 C.3     1  UNL1        0.0173
     16 N          12.4164   42.1227    5.8745 N.pl3   1  UNL1       -0.2628
     17 H          12.3480   42.7833    5.1477 H       1  UNL1        0.1570
     18 C          11.3022   41.2459    6.0701 C.ar    1  UNL1        0.1657
     19 C           9.2327   40.1200    6.7791 C.ar    1  UNL1        0.0588
     20 C           9.9721   39.4612    5.7956 C.ar    1  UNL1        0.1079
     21 N          11.1161   40.0874    5.4064 N.ar    1  UNL1       -0.2224
     22 S          10.0650   41.5361    7.1569 S.2     1  UNL1       -0.0508
@<TRIPOS>BOND
     1     1    16    1
     2     1     6   ar
     3     2     5   ar
     4     3     4   ar
     5     7     4    1
     6     7     8    1
     7     8     9    1
     8     9    10    1
     9    10    12    1
    10    13    12    1
    11    13    14    1
    12    13    15    1
    13    11    12    1
    14    11     7    1
    15    18    22   ar
    16    19    22   ar
    17    20    21   ar
    18    16    18    1
    19     1     5   ar
    20     2     3   ar
    21     4     6   ar
    22    18    21   ar
    23    19    20   ar
    24    16    17    1
@<TRIPOS>MOLECULE
MolPort-047-015-259 MCULE-1510657617 PubChem-155985150
 22 24 0 0 0
SMALL
GASTEIGER

@<TRIPOS>ATOM
      1 C          13.3216   41.5872    8.2347 C.ar    1  UNL1        0.2218
      2 C          12.9993   40.2816   10.1830 C.ar    1  UNL1        0.1031
      3 C          11.6934   40.7526   10.2959 C.ar    1  UNL1        0.0355
      4 C          11.2268   41.6595    9.3382 C.ar    1  UNL1        0.0644
      5 N          13.7868   40.7044    9.1604 N.ar    1  UNL1       -0.2120
      6 N          12.0493   42.0558    8.3315 N.ar    1  UNL1       -0.2179
      7 C           9.8346   42.2018    9.4022 C.3     1  UNL1        0.0564
      8 C           9.1284   41.7418   10.6829 C.3     1  UNL1        0.0087
      9 C           7.6194   41.9706   10.5940 C.3     1  UNL1        0.0178
     10 C           7.0224   41.4524    9.2737 C.3     1  UNL1        0.0721
     11 C           9.0442   41.8487    8.1324 C.3     1  UNL1        0.0780
     12 N           8.0330   40.8231    8.4110 N.3     1  UNL1       -0.2736
     13 C           7.3965   40.4337    7.1451 C.3     1  UNL1        0.0576
     14 C           8.3185   39.5418    6.3238 C.3     1  UNL1        0.0173
     15 C           7.0816   41.6583    6.2957 C.3     1  UNL1        0.0173
     16 N          14.1512   42.0333    7.1565 N.pl3   1  UNL1       -0.2628
     17 H          13.8194   41.8855    6.2415 H       1  UNL1        0.1570
     18 C          15.4223   42.6759    7.2969 C.ar    1  UNL1        0.1657
     19 C          17.3942   44.1423    7.1752 C.ar    1  UNL1        0.0588
     20 C          17.5110   43.0425    8.0265 C.ar    1  UNL1        0.1079
     21 N          16.4181   42.2341    8.0908 N.ar    1  UNL1       -0.2224
     22 S          15.8554   44.0754    6.4906 S.2     1  UNL1       -0.0508
@<TRIPOS>BOND
     1     1    16    1
     2     1     6   ar
     3     2     5   ar
     4     3     4   ar
     5     7     4    1
     6     7     8    1
     7     8     9    1
     8     9    10    1
     9    10    12    1
    10    13    12    1
    11    13    14    1
    12    13    15    1
    13    11    12    1
    14    11     7    1
    15    18    22   ar
    16    19    22   ar
    17    20    21   ar
    18    16    18    1
    19     1     5   ar
    20     2     3   ar
    21     4     6   ar
    22    18    21   ar
    23    19    20   ar
    24    16    17    1
@<TRIPOS>MOLECULE
MolPort-047-015-259 MCULE-1510657617 PubChem-155985150
 22 24 0 0 0
SMALL
GASTEIGER

@<TRIPOS>ATOM
      1 C          16.2808   40.1467    9.8789 C.ar    1  UNL1        0.2218
      2 C          15.9576   38.6932   11.7192 C.ar    1  UNL1        0.1031
      3 C          14.6068   38.5728   11.4011 C.ar    1  UNL1        0.0355
      4 C          14.1192   39.2695   10.2902 C.ar    1  UNL1        0.0644
      5 N          16.7669   39.4735   10.9573 N.ar    1  UNL1       -0.2120
      6 N          14.9648   40.0392    9.5557 N.ar    1  UNL1       -0.2179
      7 C          12.6796   39.1816    9.8948 C.3     1  UNL1        0.0564
      8 C          12.5051   39.4777    8.4008 C.3     1  UNL1        0.0087
      9 C          11.0404   39.7528    8.0597 C.3     1  UNL1        0.0178
     10 C          10.3903   40.7594    9.0252 C.3     1  UNL1        0.0721
     11 C          11.8061   40.0828   10.7816 C.3     1  UNL1        0.0780
     12 N          11.3350   41.2555   10.0366 N.3     1  UNL1       -0.2736
     13 C          10.6146   42.1420   10.9609 C.3     1  UNL1        0.0576
     14 C           9.3303   41.4875   11.4533 C.3     1  UNL1        0.0173
     15 C          10.2210   43.4421   10.2715 C.3     1  UNL1        0.0173
     16 N          17.1334   40.9695    9.0754 N.pl3   1  UNL1       -0.2628
     17 H          18.0870   40.7279    9.0367 H       1  UNL1        0.1570
     18 C          16.7162   42.1137    8.3236 C.ar    1  UNL1        0.1657
     19 C          16.4526   44.3126    7.2518 C.ar    1  UNL1        0.0588
     20 C          15.4674   43.3713    6.9494 C.ar    1  UNL1        0.1079
     21 N          15.6171   42.1565    7.5444 N.ar    1  UNL1       -0.2224
     22 S          17.5386   43.5696    8.3051 S.2     1  UNL1       -0.0508
@<TRIPOS>BOND
     1     1    16    1
     2     1     6   ar
     3     2     5   ar
     4     3     4   ar
     5     7     4    1
     6     7     8    1
     7     8     9    1
     8     9    10    1
     9    10    12    1
    10    13    12    1
    11    13    14    1
    12    13    15    1
    13    11    12    1
    14    11     7    1
    15    18    22   ar
    16    19    22   ar
    17    20    21   ar
    18    16    18    1
    19     1     5   ar
    20     2     3   ar
    21     4     6   ar
    22    18    21   ar
    23    19    20   ar
    24    16    17    1
