@<TRIPOS>MOLECULE
MolPort-002-849-494 8715584 LN01241865 MCULE-3229897286 PubChem-11842450 ZINC000008715584 ZINC08715584
 25 27 0 0 0
SMALL
GASTEIGER

@<TRIPOS>ATOM
      1 C          10.5464   40.4185    7.1147 C.ar    1  UNL1        0.1681
      2 C          12.2920   39.9481    8.4577 C.ar    1  UNL1        0.0923
      3 C          12.9071   40.8713    7.5912 C.ar    1  UNL1        0.0886
      4 N          10.9797   39.7092    8.1782 N.ar    1  UNL1       -0.2237
      5 S          11.7549   41.3816    6.4693 S.2     1  UNL1       -0.0481
      6 C          12.9643   39.2223    9.5580 C.ar    1  UNL1        0.0183
      7 C          13.1559   39.8152   10.8155 C.ar    1  UNL1        0.0015
      8 C          13.8280   39.1277   11.8299 C.ar    1  UNL1        0.0000
      9 C          14.3252   37.8439   11.5922 C.ar    1  UNL1        0.0000
     10 C          14.1544   37.2506   10.3390 C.ar    1  UNL1        0.0000
     11 C          13.4818   37.9392    9.3255 C.ar    1  UNL1        0.0015
     12 C           8.5655   39.1825    6.1187 C.2     1  UNL1        0.4069
     13 O           9.1672   38.0734    6.1212 O.2     1  UNL1       -0.2260
     14 N           9.2122   40.3646    6.6008 N.am    1  UNL1       -0.2298
     15 H           8.6999   41.2049    6.5770 H       1  UNL1        0.1601
     16 C           6.2358   39.9288    6.3820 C.3     1  UNL1        0.2574
     17 O           7.2571   39.2742    5.6445 O.3     1  UNL1       -0.4303
     18 C          14.2559   41.4633    7.7147 C.2     1  UNL1        0.2045
     19 O          15.1072   40.8901    8.4474 O.2     1  UNL1       -0.2859
     20 C          14.6231   42.7232    7.0312 C.ar    1  UNL1        0.0587
     21 C          13.6857   43.3893    6.2297 C.ar    1  UNL1        0.1020
     22 C          15.2424   45.1179    5.7546 C.ar    1  UNL1        0.0989
     23 C          16.2071   44.4962    6.5485 C.ar    1  UNL1        0.0208
     24 C          15.8915   43.2974    7.1890 C.ar    1  UNL1        0.0064
     25 N          14.0117   44.5574    5.6134 N.ar    1  UNL1       -0.2422
@<TRIPOS>BOND
     1    16    17    1
     2    12    17    1
     3    12    14   am
     4     1     5   ar
     5     2     4   ar
     6     2     6    1
     7     3     5   ar
     8     3    18    1
     9    18    20    1
    10    21    25   ar
    11    22    23   ar
    12    24    20   ar
    13     7     8   ar
    14     9    10   ar
    15    11     6   ar
    16    14     1    1
    17    12    13    2
    18     1     4   ar
    19     2     3   ar
    20    18    19    2
    21    20    21   ar
    22    22    25   ar
    23    23    24   ar
    24     6     7   ar
    25     8     9   ar
    26    10    11   ar
    27    14    15    1
@<TRIPOS>MOLECULE
MolPort-002-849-494 8715584 LN01241865 MCULE-3229897286 PubChem-11842450 ZINC000008715584 ZINC08715584
 25 27 0 0 0
SMALL
GASTEIGER

@<TRIPOS>ATOM
      1 C          13.2922   42.5911    7.0727 C.ar    1  UNL1        0.1681
      2 C          11.5373   41.2907    6.5234 C.ar    1  UNL1        0.0923
      3 C          11.0595   41.8276    7.7338 C.ar    1  UNL1        0.0886
      4 N          12.7795   41.7268    6.1714 N.ar    1  UNL1       -0.2237
      5 S          12.2387   42.8682    8.3447 S.2     1  UNL1       -0.0481
      6 C          10.8316   40.2951    5.6868 C.ar    1  UNL1        0.0183
      7 C          10.8003   40.4057    4.2881 C.ar    1  UNL1        0.0015
      8 C          10.0954   39.4767    3.5178 C.ar    1  UNL1        0.0000
      9 C           9.4050   38.4339    4.1405 C.ar    1  UNL1        0.0000
     10 C           9.4159   38.3236    5.5331 C.ar    1  UNL1        0.0000
     11 C          10.1216   39.2533    6.3023 C.ar    1  UNL1        0.0015
     12 C          14.8886   44.3007    6.0866 C.2     1  UNL1        0.4069
     13 O          14.0021   44.8021    5.3417 O.2     1  UNL1       -0.2260
     14 N          14.5783   43.2071    6.9559 N.am    1  UNL1       -0.2298
     15 H          15.3052   42.8515    7.5165 H       1  UNL1        0.1601
     16 C          17.3204   43.9609    5.9294 C.3     1  UNL1        0.2574
     17 O          16.1886   44.8056    6.0743 O.3     1  UNL1       -0.4303
     18 C           9.7054   41.6874    8.3101 C.2     1  UNL1        0.2045
     19 O           9.5220   40.8517    9.2363 O.2     1  UNL1       -0.2859
     20 C           8.5566   42.4740    7.8093 C.ar    1  UNL1        0.0587
     21 C           8.0306   42.2203    6.5351 C.ar    1  UNL1        0.1020
     22 C           6.3708   43.8921    6.8302 C.ar    1  UNL1        0.0989
     23 C           6.8537   44.1758    8.1083 C.ar    1  UNL1        0.0208
     24 C           7.9478   43.4605    8.5964 C.ar    1  UNL1        0.0064
     25 N           6.9630   42.9278    6.0765 N.ar    1  UNL1       -0.2422
@<TRIPOS>BOND
     1    16    17    1
     2    12    17    1
     3    12    14   am
     4     1     5   ar
     5     2     4   ar
     6     2     6    1
     7     3     5   ar
     8     3    18    1
     9    18    20    1
    10    21    25   ar
    11    22    23   ar
    12    24    20   ar
    13     7     8   ar
    14     9    10   ar
    15    11     6   ar
    16    14     1    1
    17    12    13    2
    18     1     4   ar
    19     2     3   ar
    20    18    19    2
    21    20    21   ar
    22    22    25   ar
    23    23    24   ar
    24     6     7   ar
    25     8     9   ar
    26    10    11   ar
    27    14    15    1
@<TRIPOS>MOLECULE
MolPort-002-849-494 8715584 LN01241865 MCULE-3229897286 PubChem-11842450 ZINC000008715584 ZINC08715584
 25 27 0 0 0
SMALL
GASTEIGER

@<TRIPOS>ATOM
      1 C          10.6043   40.4870    7.9811 C.ar    1  UNL1        0.1681
      2 C          12.5650   39.9222    8.9345 C.ar    1  UNL1        0.0923
      3 C          13.0245   40.8702    8.0010 C.ar    1  UNL1        0.0886
      4 N          11.2171   39.7226    8.9097 N.ar    1  UNL1       -0.2237
      5 S          11.6900   41.4531    7.1490 S.2     1  UNL1       -0.0481
      6 C          13.4187   39.1348    9.8513 C.ar    1  UNL1        0.0183
      7 C          13.6607   39.5560   11.1679 C.ar    1  UNL1        0.0015
      8 C          14.5016   38.8187   12.0062 C.ar    1  UNL1        0.0000
      9 C          15.1180   37.6584   11.5314 C.ar    1  UNL1        0.0000
     10 C          14.8971   37.2388   10.2173 C.ar    1  UNL1        0.0000
     11 C          14.0556   37.9770    9.3801 C.ar    1  UNL1        0.0015
     12 C           8.2135   41.0875    8.5872 C.2     1  UNL1        0.4069
     13 O           8.5575   41.6834    9.6450 O.2     1  UNL1       -0.2260
     14 N           9.1943   40.4830    7.7383 N.am    1  UNL1       -0.2298
     15 H           8.8743   40.0298    6.9250 H       1  UNL1        0.1601
     16 C           5.8294   41.3713    9.1248 C.3     1  UNL1        0.2574
     17 O           6.8682   41.0083    8.2279 O.3     1  UNL1       -0.4303
     18 C          14.3878   41.4287    7.8797 C.2     1  UNL1        0.2045
     19 O          15.3396   40.8423    8.4630 O.2     1  UNL1       -0.2859
     20 C          14.6602   42.6707    7.1231 C.ar    1  UNL1        0.0587
     21 C          13.6764   43.2171    6.2874 C.ar    1  UNL1        0.1020
     22 C          15.0995   45.0268    5.7078 C.ar    1  UNL1        0.0989
     23 C          16.1073   44.5263    6.5331 C.ar    1  UNL1        0.0208
     24 C          15.8818   43.3465    7.2430 C.ar    1  UNL1        0.0064
     25 N          13.9145   44.3686    5.6034 N.ar    1  UNL1       -0.2422
@<TRIPOS>BOND
     1    16    17    1
     2    12    17    1
     3    12    14   am
     4     1     5   ar
     5     2     4   ar
     6     2     6    1
     7     3     5   ar
     8     3    18    1
     9    18    20    1
    10    21    25   ar
    11    22    23   ar
    12    24    20   ar
    13     7     8   ar
    14     9    10   ar
    15    11     6   ar
    16    14     1    1
    17    12    13    2
    18     1     4   ar
    19     2     3   ar
    20    18    19    2
    21    20    21   ar
    22    22    25   ar
    23    23    24   ar
    24     6     7   ar
    25     8     9   ar
    26    10    11   ar
    27    14    15    1
@<TRIPOS>MOLECULE
MolPort-002-849-494 8715584 LN01241865 MCULE-3229897286 PubChem-11842450 ZINC000008715584 ZINC08715584
 25 27 0 0 0
SMALL
GASTEIGER

@<TRIPOS>ATOM
      1 C          12.4272   39.2820    9.3305 C.ar    1  UNL1        0.1681
      2 C          11.4208   41.2331    8.8281 C.ar    1  UNL1        0.0923
      3 C          12.4684   41.2627    7.8883 C.ar    1  UNL1        0.0886
      4 N          11.4133   40.1245    9.6205 N.ar    1  UNL1       -0.2237
      5 S          13.3799   39.8556    8.0782 S.2     1  UNL1       -0.0481
      6 C          10.4169   42.3011    9.0301 C.ar    1  UNL1        0.0183
      7 C          10.6059   43.3111    9.9861 C.ar    1  UNL1        0.0015
      8 C           9.6280   44.2888   10.1891 C.ar    1  UNL1        0.0000
      9 C           8.4458   44.2588    9.4453 C.ar    1  UNL1        0.0000
     10 C           8.2401   43.2484    8.5026 C.ar    1  UNL1        0.0000
     11 C           9.2191   42.2715    8.3003 C.ar    1  UNL1        0.0015
     12 C          11.7236   36.9620   10.0829 C.2     1  UNL1        0.4069
     13 O          10.5890   37.0534    9.5382 O.2     1  UNL1       -0.2260
     14 N          12.6602   38.0410   10.0034 N.am    1  UNL1       -0.2298
     15 H          13.5315   37.9202   10.4456 H       1  UNL1        0.1601
     16 C          13.0753   34.9157   10.2814 C.3     1  UNL1        0.2574
     17 O          12.0836   35.8047   10.7730 O.3     1  UNL1       -0.4303
     18 C          12.6661   42.2305    6.7885 C.2     1  UNL1        0.2045
     19 O          11.7491   42.3778    5.9355 O.2     1  UNL1       -0.2859
     20 C          13.9189   43.0040    6.6426 C.ar    1  UNL1        0.0587
     21 C          13.9666   44.1139    5.7878 C.ar    1  UNL1        0.1020
     22 C          16.2345   44.5223    6.3590 C.ar    1  UNL1        0.0989
     23 C          16.2342   43.4307    7.2283 C.ar    1  UNL1        0.0208
     24 C          15.0704   42.6740    7.3697 C.ar    1  UNL1        0.0064
     25 N          15.1103   44.8397    5.6633 N.ar    1  UNL1       -0.2422
@<TRIPOS>BOND
     1    16    17    1
     2    12    17    1
     3    12    14   am
     4     1     5   ar
     5     2     4   ar
     6     2     6    1
     7     3     5   ar
     8     3    18    1
     9    18    20    1
    10    21    25   ar
    11    22    23   ar
    12    24    20   ar
    13     7     8   ar
    14     9    10   ar
    15    11     6   ar
    16    14     1    1
    17    12    13    2
    18     1     4   ar
    19     2     3   ar
    20    18    19    2
    21    20    21   ar
    22    22    25   ar
    23    23    24   ar
    24     6     7   ar
    25     8     9   ar
    26    10    11   ar
    27    14    15    1
@<TRIPOS>MOLECULE
MolPort-002-849-494 8715584 LN01241865 MCULE-3229897286 PubChem-11842450 ZINC000008715584 ZINC08715584
 25 27 0 0 0
SMALL
GASTEIGER

@<TRIPOS>ATOM
      1 C          11.1301   41.1576    7.6614 C.ar    1  UNL1        0.1681
      2 C          12.6027   39.7152    8.5688 C.ar    1  UNL1        0.0923
      3 C          13.4566   40.8125    8.3496 C.ar    1  UNL1        0.0886
      4 N          11.3132   39.9253    8.1809 N.ar    1  UNL1       -0.2237
      5 S          12.5449   42.0538    7.6605 S.2     1  UNL1       -0.0481
      6 C          13.0128   38.4025    9.1146 C.ar    1  UNL1        0.0183
      7 C          12.6692   38.0129   10.4184 C.ar    1  UNL1        0.0015
      8 C          13.0993   36.7851   10.9294 C.ar    1  UNL1        0.0000
      9 C          13.8875   35.9399   10.1445 C.ar    1  UNL1        0.0000
     10 C          14.2492   36.3249    8.8512 C.ar    1  UNL1        0.0000
     11 C          13.8180   37.5529    8.3413 C.ar    1  UNL1        0.0015
     12 C           8.8326   42.1843    7.9943 C.2     1  UNL1        0.4069
     13 O           8.9688   42.2547    9.2468 O.2     1  UNL1       -0.2260
     14 N           9.8770   41.6483    7.1758 N.am    1  UNL1       -0.2298
     15 H           9.7212   41.6148    6.2043 H       1  UNL1        0.1601
     16 C           7.0945   43.8975    7.6821 C.3     1  UNL1        0.2574
     17 O           7.6588   42.6288    7.3863 O.3     1  UNL1       -0.4303
     18 C          14.8566   40.9693    8.7976 C.2     1  UNL1        0.2045
     19 O          15.2767   40.2494    9.7438 O.2     1  UNL1       -0.2859
     20 C          15.7652   41.9670    8.1909 C.ar    1  UNL1        0.0587
     21 C          15.3478   42.7198    7.0847 C.ar    1  UNL1        0.1020
     22 C          17.4145   43.8872    7.0333 C.ar    1  UNL1        0.0989
     23 C          17.8722   43.1685    8.1383 C.ar    1  UNL1        0.0208
     24 C          17.0411   42.2088    8.7174 C.ar    1  UNL1        0.0064
     25 N          16.1721   43.6513    6.5339 N.ar    1  UNL1       -0.2422
@<TRIPOS>BOND
     1    16    17    1
     2    12    17    1
     3    12    14   am
     4     1     5   ar
     5     2     4   ar
     6     2     6    1
     7     3     5   ar
     8     3    18    1
     9    18    20    1
    10    21    25   ar
    11    22    23   ar
    12    24    20   ar
    13     7     8   ar
    14     9    10   ar
    15    11     6   ar
    16    14     1    1
    17    12    13    2
    18     1     4   ar
    19     2     3   ar
    20    18    19    2
    21    20    21   ar
    22    22    25   ar
    23    23    24   ar
    24     6     7   ar
    25     8     9   ar
    26    10    11   ar
    27    14    15    1
@<TRIPOS>MOLECULE
MolPort-002-849-494 8715584 LN01241865 MCULE-3229897286 PubChem-11842450 ZINC000008715584 ZINC08715584
 25 27 0 0 0
SMALL
GASTEIGER

@<TRIPOS>ATOM
      1 C          14.1413   41.9318    7.1790 C.ar    1  UNL1        0.1681
      2 C          12.2056   40.7813    7.1400 C.ar    1  UNL1        0.0923
      3 C          12.7532   40.2752    8.3339 C.ar    1  UNL1        0.0886
      4 N          12.9906   41.7015    6.5121 N.ar    1  UNL1       -0.2237
      5 S          14.2470   41.0200    8.5798 S.2     1  UNL1       -0.0481
      6 C          10.9247   40.3559    6.5337 C.ar    1  UNL1        0.0183
      7 C           9.7166   40.4384    7.2433 C.ar    1  UNL1        0.0015
      8 C           8.5229   39.9950    6.6672 C.ar    1  UNL1        0.0000
      9 C           8.5280   39.4539    5.3793 C.ar    1  UNL1        0.0000
     10 C           9.7274   39.3519    4.6702 C.ar    1  UNL1        0.0000
     11 C          10.9205   39.7960    5.2474 C.ar    1  UNL1        0.0015
     12 C          14.9128   44.0209    5.9608 C.2     1  UNL1        0.4069
     13 O          13.7454   44.3167    5.5840 O.2     1  UNL1       -0.2260
     14 N          15.1504   42.8509    6.7498 N.am    1  UNL1       -0.2298
     15 H          16.0791   42.6640    7.0176 H       1  UNL1        0.1601
     16 C          17.3346   44.4461    5.8717 C.3     1  UNL1        0.2574
     17 O          15.9930   44.8317    5.6131 O.3     1  UNL1       -0.4303
     18 C          12.0975   39.3961    9.3251 C.2     1  UNL1        0.2045
     19 O          11.2103   39.8831   10.0774 O.2     1  UNL1       -0.2859
     20 C          12.4754   37.9742    9.4810 C.ar    1  UNL1        0.0587
     21 C          13.6375   37.4827    8.8706 C.ar    1  UNL1        0.1020
     22 C          13.2596   35.3195    9.7730 C.ar    1  UNL1        0.0989
     23 C          12.0983   35.7636   10.4067 C.ar    1  UNL1        0.0208
     24 C          11.7104   37.0959   10.2601 C.ar    1  UNL1        0.0064
     25 N          13.9998   36.1806    9.0253 N.ar    1  UNL1       -0.2422
@<TRIPOS>BOND
     1    16    17    1
     2    12    17    1
     3    12    14   am
     4     1     5   ar
     5     2     4   ar
     6     2     6    1
     7     3     5   ar
     8     3    18    1
     9    18    20    1
    10    21    25   ar
    11    22    23   ar
    12    24    20   ar
    13     7     8   ar
    14     9    10   ar
    15    11     6   ar
    16    14     1    1
    17    12    13    2
    18     1     4   ar
    19     2     3   ar
    20    18    19    2
    21    20    21   ar
    22    22    25   ar
    23    23    24   ar
    24     6     7   ar
    25     8     9   ar
    26    10    11   ar
    27    14    15    1
@<TRIPOS>MOLECULE
MolPort-002-849-494 8715584 LN01241865 MCULE-3229897286 PubChem-11842450 ZINC000008715584 ZINC08715584
 25 27 0 0 0
SMALL
GASTEIGER

@<TRIPOS>ATOM
      1 C          12.7663   42.1858    6.4077 C.ar    1  UNL1        0.1681
      2 C          10.7611   41.2675    6.8637 C.ar    1  UNL1        0.0923
      3 C          11.5049   40.7491    7.9405 C.ar    1  UNL1        0.0886
      4 N          11.4783   42.0644    6.0225 N.ar    1  UNL1       -0.2237
      5 S          13.0854   41.3244    7.8080 S.2     1  UNL1       -0.0481
      6 C           9.3400   40.9700    6.5785 C.ar    1  UNL1        0.0183
      7 C           8.3764   41.9887    6.5231 C.ar    1  UNL1        0.0015
      8 C           7.0324   41.6833    6.2910 C.ar    1  UNL1        0.0000
      9 C           6.6376   40.3537    6.1233 C.ar    1  UNL1        0.0000
     10 C           7.5859   39.3302    6.1928 C.ar    1  UNL1        0.0000
     11 C           8.9298   39.6372    6.4247 C.ar    1  UNL1        0.0015
     12 C          15.0579   43.2575    6.1986 C.2     1  UNL1        0.4069
     13 O          15.4392   42.8260    7.3214 O.2     1  UNL1       -0.2260
     14 N          13.7448   42.9636    5.7115 N.am    1  UNL1       -0.2298
     15 H          13.4957   43.3242    4.8299 H       1  UNL1        0.1601
     16 C          17.3142   44.0617    5.6363 C.3     1  UNL1        0.2574
     17 O          15.9126   44.0299    5.4125 O.3     1  UNL1       -0.4303
     18 C          10.9982   39.9924    9.1050 C.2     1  UNL1        0.2045
     19 O          11.2466   38.7586    9.1836 O.2     1  UNL1       -0.2859
     20 C          10.1825   40.6333   10.1599 C.ar    1  UNL1        0.0587
     21 C          10.6924   40.7727   11.4581 C.ar    1  UNL1        0.1020
     22 C           8.7114   41.8675   12.1750 C.ar    1  UNL1        0.0989
     23 C           8.1636   41.7594   10.8961 C.ar    1  UNL1        0.0208
     24 C           8.9056   41.1425    9.8882 C.ar    1  UNL1        0.0064
     25 N           9.9542   41.3773   12.4276 N.ar    1  UNL1       -0.2422
@<TRIPOS>BOND
     1    16    17    1
     2    12    17    1
     3    12    14   am
     4     1     5   ar
     5     2     4   ar
     6     2     6    1
     7     3     5   ar
     8     3    18    1
     9    18    20    1
    10    21    25   ar
    11    22    23   ar
    12    24    20   ar
    13     7     8   ar
    14     9    10   ar
    15    11     6   ar
    16    14     1    1
    17    12    13    2
    18     1     4   ar
    19     2     3   ar
    20    18    19    2
    21    20    21   ar
    22    22    25   ar
    23    23    24   ar
    24     6     7   ar
    25     8     9   ar
    26    10    11   ar
    27    14    15    1
@<TRIPOS>MOLECULE
MolPort-002-849-494 8715584 LN01241865 MCULE-3229897286 PubChem-11842450 ZINC000008715584 ZINC08715584
 25 27 0 0 0
SMALL
GASTEIGER

@<TRIPOS>ATOM
      1 C          15.2175   39.4532    9.4305 C.ar    1  UNL1        0.1681
      2 C          14.6287   41.2676    8.2332 C.ar    1  UNL1        0.0923
      3 C          13.3497   40.7677    8.5426 C.ar    1  UNL1        0.0886
      4 N          15.6548   40.5246    8.7355 N.ar    1  UNL1       -0.2237
      5 S          13.5453   39.3707    9.4683 S.2     1  UNL1       -0.0481
      6 C          14.9080   42.4551    7.3959 C.ar    1  UNL1        0.0183
      7 C          16.0527   43.2409    7.5998 C.ar    1  UNL1        0.0015
      8 C          16.2789   44.3812    6.8239 C.ar    1  UNL1        0.0000
      9 C          15.3555   44.7530    5.8437 C.ar    1  UNL1        0.0000
     10 C          14.2043   43.9873    5.6433 C.ar    1  UNL1        0.0000
     11 C          13.9796   42.8469    6.4198 C.ar    1  UNL1        0.0015
     12 C          16.0265   38.1534   11.4553 C.2     1  UNL1        0.4069
     13 O          15.1837   38.6919   12.2248 O.2     1  UNL1       -0.2260
     14 N          16.0758   38.5026   10.0684 N.am    1  UNL1       -0.2298
     15 H          16.7520   38.0545    9.5105 H       1  UNL1        0.1601
     16 C          18.1361   36.9009   11.2699 C.3     1  UNL1        0.2574
     17 O          16.9257   37.2070   11.9458 O.3     1  UNL1       -0.4303
     18 C          12.0440   41.4134    8.2908 C.2     1  UNL1        0.2045
     19 O          11.6464   42.3107    9.0825 O.2     1  UNL1       -0.2859
     20 C          11.1789   41.0141    7.1589 C.ar    1  UNL1        0.0587
     21 C          10.0186   41.7443    6.8667 C.ar    1  UNL1        0.1020
     22 C           9.5353   40.3362    5.0172 C.ar    1  UNL1        0.0989
     23 C          10.6840   39.5832    5.2633 C.ar    1  UNL1        0.0208
     24 C          11.5067   39.9282    6.3361 C.ar    1  UNL1        0.0064
     25 N           9.2291   41.3929    5.8161 N.ar    1  UNL1       -0.2422
@<TRIPOS>BOND
     1    16    17    1
     2    12    17    1
     3    12    14   am
     4     1     5   ar
     5     2     4   ar
     6     2     6    1
     7     3     5   ar
     8     3    18    1
     9    18    20    1
    10    21    25   ar
    11    22    23   ar
    12    24    20   ar
    13     7     8   ar
    14     9    10   ar
    15    11     6   ar
    16    14     1    1
    17    12    13    2
    18     1     4   ar
    19     2     3   ar
    20    18    19    2
    21    20    21   ar
    22    22    25   ar
    23    23    24   ar
    24     6     7   ar
    25     8     9   ar
    26    10    11   ar
    27    14    15    1
@<TRIPOS>MOLECULE
MolPort-002-849-494 8715584 LN01241865 MCULE-3229897286 PubChem-11842450 ZINC000008715584 ZINC08715584
 25 27 0 0 0
SMALL
GASTEIGER

@<TRIPOS>ATOM
      1 C          13.0006   42.1621    6.5625 C.ar    1  UNL1        0.1681
      2 C          11.0231   41.2804    7.1822 C.ar    1  UNL1        0.0923
      3 C          11.8189   40.8471    8.2593 C.ar    1  UNL1        0.0886
      4 N          11.6965   42.0105    6.2491 N.ar    1  UNL1       -0.2237
      5 S          13.3890   41.4115    8.0083 S.2     1  UNL1       -0.0481
      6 C           9.5914   40.9609    6.9882 C.ar    1  UNL1        0.0183
      7 C           8.5887   41.9064    7.2530 C.ar    1  UNL1        0.0015
      8 C           7.2400   41.5728    7.1009 C.ar    1  UNL1        0.0000
      9 C           6.8808   40.2857    6.6933 C.ar    1  UNL1        0.0000
     10 C           7.8702   39.3317    6.4428 C.ar    1  UNL1        0.0000
     11 C           9.2187   39.6668    6.5950 C.ar    1  UNL1        0.0015
     12 C          15.1676   43.4452    6.2437 C.2     1  UNL1        0.4069
     13 O          15.4974   43.3267    7.4560 O.2     1  UNL1       -0.2260
     14 N          13.9419   42.8844    5.7629 N.am    1  UNL1       -0.2298
     15 H          13.7302   43.0049    4.8090 H       1  UNL1        0.1601
     16 C          17.4100   44.0611    5.4400 C.3     1  UNL1        0.2574
     17 O          15.9946   44.1265    5.3510 O.3     1  UNL1       -0.4303
     18 C          11.3709   40.1822    9.5013 C.2     1  UNL1        0.2045
     19 O          10.2358   40.4692    9.9696 O.2     1  UNL1       -0.2859
     20 C          12.2278   39.2175   10.2253 C.ar    1  UNL1        0.0587
     21 C          12.0879   37.8415    9.9981 C.ar    1  UNL1        0.1020
     22 C          13.8393   37.3579   11.5262 C.ar    1  UNL1        0.0989
     23 C          14.0219   38.7178   11.7800 C.ar    1  UNL1        0.0208
     24 C          13.2139   39.6468   11.1236 C.ar    1  UNL1        0.0064
     25 N          12.8852   36.9508   10.6473 N.ar    1  UNL1       -0.2422
@<TRIPOS>BOND
     1    16    17    1
     2    12    17    1
     3    12    14   am
     4     1     5   ar
     5     2     4   ar
     6     2     6    1
     7     3     5   ar
     8     3    18    1
     9    18    20    1
    10    21    25   ar
    11    22    23   ar
    12    24    20   ar
    13     7     8   ar
    14     9    10   ar
    15    11     6   ar
    16    14     1    1
    17    12    13    2
    18     1     4   ar
    19     2     3   ar
    20    18    19    2
    21    20    21   ar
    22    22    25   ar
    23    23    24   ar
    24     6     7   ar
    25     8     9   ar
    26    10    11   ar
    27    14    15    1
@<TRIPOS>MOLECULE
MolPort-002-849-494 8715584 LN01241865 MCULE-3229897286 PubChem-11842450 ZINC000008715584 ZINC08715584
 25 27 0 0 0
SMALL
GASTEIGER

@<TRIPOS>ATOM
      1 C          15.7434   39.3501    9.9530 C.ar    1  UNL1        0.1681
      2 C          14.9601   40.9558    8.5818 C.ar    1  UNL1        0.0923
      3 C          13.7570   40.2801    8.8601 C.ar    1  UNL1        0.0886
      4 N          16.0535   40.4254    9.1983 N.ar    1  UNL1       -0.2237
      5 S          14.1058   39.0026    9.9057 S.2     1  UNL1       -0.0481
      6 C          15.1060   42.1097    7.6672 C.ar    1  UNL1        0.0183
      7 C          16.1626   43.0231    7.8050 C.ar    1  UNL1        0.0015
      8 C          16.2612   44.1286    6.9556 C.ar    1  UNL1        0.0000
      9 C          15.2965   44.3375    5.9668 C.ar    1  UNL1        0.0000
     10 C          14.2314   43.4436    5.8314 C.ar    1  UNL1        0.0000
     11 C          14.1343   42.3382    6.6814 C.ar    1  UNL1        0.0015
     12 C          17.3506   37.4093   10.2598 C.2     1  UNL1        0.4069
     13 O          17.1120   36.9396    9.1131 O.2     1  UNL1       -0.2260
     14 N          16.6948   38.5981   10.7122 N.am    1  UNL1       -0.2298
     15 H          16.9152   38.9233   11.6150 H       1  UNL1        0.1601
     16 C          19.5069   36.2862   10.6372 C.3     1  UNL1        0.2574
     17 O          18.2596   36.7755   11.1065 O.3     1  UNL1       -0.4303
     18 C          12.3864   40.6876    8.4854 C.2     1  UNL1        0.2045
     19 O          11.9292   40.3282    7.3665 O.2     1  UNL1       -0.2859
     20 C          11.5514   41.5304    9.3695 C.ar    1  UNL1        0.0587
     21 C          11.4862   42.9159    9.1670 C.ar    1  UNL1        0.1020
     22 C           9.9656   43.1613   10.9737 C.ar    1  UNL1        0.0989
     23 C           9.9914   41.7862   11.2098 C.ar    1  UNL1        0.0208
     24 C          10.7854   40.9719   10.4015 C.ar    1  UNL1        0.0064
     25 N          10.7061   43.6935    9.9652 N.ar    1  UNL1       -0.2422
@<TRIPOS>BOND
     1    16    17    1
     2    12    17    1
     3    12    14   am
     4     1     5   ar
     5     2     4   ar
     6     2     6    1
     7     3     5   ar
     8     3    18    1
     9    18    20    1
    10    21    25   ar
    11    22    23   ar
    12    24    20   ar
    13     7     8   ar
    14     9    10   ar
    15    11     6   ar
    16    14     1    1
    17    12    13    2
    18     1     4   ar
    19     2     3   ar
    20    18    19    2
    21    20    21   ar
    22    22    25   ar
    23    23    24   ar
    24     6     7   ar
    25     8     9   ar
    26    10    11   ar
    27    14    15    1
