@<TRIPOS>MOLECULE
Molport-047-883-860 PubChem-165926871
 25 25 0 0 0
SMALL
GASTEIGER

@<TRIPOS>ATOM
      1 C          15.0097   42.0646    7.5497 C.ar    1  UNL1        0.1281
      2 C          14.8612   43.0527    6.5740 C.ar    1  UNL1        0.2251
      3 C          13.0288   41.9594    6.5801 C.ar    1  UNL1        0.2138
      4 C          13.8136   41.3639    7.5417 C.ar    1  UNL1        0.1269
      5 O          13.6708   42.9576    6.0203 O.2     1  UNL1       -0.4347
      6 C          10.5528   41.7653    7.0613 C.2     1  UNL1        0.4073
      7 O          10.6652   42.3451    8.1763 O.2     1  UNL1       -0.2260
      8 N          11.7007   41.5526    6.2355 N.am    1  UNL1       -0.2204
      9 H          11.5687   41.0964    5.3731 H       1  UNL1        0.1611
     10 O           9.3031   41.3191    6.6107 O.3     1  UNL1       -0.4417
     11 C           8.5707   40.2355    7.1884 C.3     1  UNL1        0.1378
     12 C           7.6480   39.6021    6.1614 C.3     1  UNL1        0.0437
     13 C           7.7258   40.7726    8.3240 C.3     1  UNL1        0.0437
     14 C           9.5155   39.1860    7.7479 C.3     1  UNL1        0.0437
     15 C          15.8639   44.0917    6.1714 C.3     1  UNL1        0.4513
     16 F          16.1935   44.8742    7.2625 F       1  UNL1       -0.1632
     17 F          15.3293   44.9027    5.1867 F       1  UNL1       -0.1632
     18 F          17.0009   43.4806    5.6763 F       1  UNL1       -0.1632
     19 C          16.1796   41.8039    8.4166 C.2     1  UNL1        0.3450
     20 O          16.9612   42.7423    8.7302 O.2     1  UNL1       -0.2448
     21 O          16.4172   40.5117    8.8896 O.3     1  UNL1       -0.4454
     22 C          16.6686   38.9646   10.7024 C.3     1  UNL1        0.0513
     23 C          17.1341   40.2692   10.0908 C.3     1  UNL1        0.2089
     24 C          13.4426   40.2409    8.3640 C.1     1  UNL1        0.1052
     25 N          13.1451   39.3387    9.0248 N.1     1  UNL1       -0.1907
@<TRIPOS>BOND
     1    22    23    1
     2    23    21    1
     3    19    21    1
     4    19     1    1
     5     2     5   ar
     6     3     5   ar
     7     3     8    1
     8     4    24    1
     9     4     1   ar
    10     6    10    1
    11    11    10    1
    12    11    12    1
    13    11    13    1
    14    11    14    1
    15    15     2    1
    16    15    16    1
    17    15    17    1
    18    15    18    1
    19     8     6   am
    20    19    20    2
    21     1     2   ar
    22     3     4   ar
    23     6     7    2
    24    24    25    3
    25     8     9    1
@<TRIPOS>MOLECULE
Molport-047-883-860 PubChem-165926871
 25 25 0 0 0
SMALL
GASTEIGER

@<TRIPOS>ATOM
      1 C          14.0883   39.5689   10.6322 C.ar    1  UNL1        0.1281
      2 C          12.9379   40.2298   10.1959 C.ar    1  UNL1        0.2251
      3 C          14.5208   40.9287    8.9472 C.ar    1  UNL1        0.2138
      4 C          15.1060   40.0326    9.8131 C.ar    1  UNL1        0.1269
      5 O          13.2357   41.0291    9.1933 O.2     1  UNL1       -0.4347
      6 C          14.5634   42.3916    6.8837 C.2     1  UNL1        0.4073
      7 O          13.3040   42.4426    6.8234 O.2     1  UNL1       -0.2260
      8 N          15.2102   41.6512    7.9221 N.am    1  UNL1       -0.2204
      9 H          16.1946   41.6376    7.9325 H       1  UNL1        0.1611
     10 O          15.3518   43.0583    5.9362 O.3     1  UNL1       -0.4417
     11 C          16.2649   44.1162    6.2387 C.3     1  UNL1        0.1378
     12 C          15.6848   45.4599    5.8322 C.3     1  UNL1        0.0437
     13 C          17.5427   43.8910    5.4588 C.3     1  UNL1        0.0437
     14 C          16.6022   44.1280    7.7197 C.3     1  UNL1        0.0437
     15 C          11.5485   40.0944   10.7419 C.3     1  UNL1        0.4513
     16 F          11.0907   38.8046   10.5467 F       1  UNL1       -0.1632
     17 F          10.7008   40.9716   10.0899 F       1  UNL1       -0.1632
     18 F          11.5433   40.3909   12.0923 F       1  UNL1       -0.1632
     19 C          14.2167   38.5832   11.7276 C.2     1  UNL1        0.3450
     20 O          14.8831   38.8630   12.7608 O.2     1  UNL1       -0.2448
     21 O          13.5954   37.3377   11.6152 O.3     1  UNL1       -0.4454
     22 C          12.4742   35.6623   10.3193 C.3     1  UNL1        0.0513
     23 C          13.6956   36.5494   10.4386 C.3     1  UNL1        0.2089
     24 C          16.4985   39.6648    9.8406 C.1     1  UNL1        0.1052
     25 N          17.6170   39.3692    9.8621 N.1     1  UNL1       -0.1907
@<TRIPOS>BOND
     1    22    23    1
     2    23    21    1
     3    19    21    1
     4    19     1    1
     5     2     5   ar
     6     3     5   ar
     7     3     8    1
     8     4    24    1
     9     4     1   ar
    10     6    10    1
    11    11    10    1
    12    11    12    1
    13    11    13    1
    14    11    14    1
    15    15     2    1
    16    15    16    1
    17    15    17    1
    18    15    18    1
    19     8     6   am
    20    19    20    2
    21     1     2   ar
    22     3     4   ar
    23     6     7    2
    24    24    25    3
    25     8     9    1
@<TRIPOS>MOLECULE
Molport-047-883-860 PubChem-165926871
 25 25 0 0 0
SMALL
GASTEIGER

@<TRIPOS>ATOM
      1 C          15.6522   40.8905    8.8558 C.ar    1  UNL1        0.1281
      2 C          15.9519   42.0907    8.2074 C.ar    1  UNL1        0.2251
      3 C          14.0168   41.5200    7.5125 C.ar    1  UNL1        0.2138
      4 C          14.3947   40.5332    8.3948 C.ar    1  UNL1        0.1269
      5 O          14.9556   42.4320    7.4178 O.2     1  UNL1       -0.4347
      6 C          11.5180   41.8925    7.3827 C.2     1  UNL1        0.4073
      7 O          11.4407   42.1909    8.6063 O.2     1  UNL1       -0.2260
      8 N          12.7776   41.5527    6.7973 N.am    1  UNL1       -0.2204
      9 H          12.7934   41.3264    5.8393 H       1  UNL1        0.1611
     10 O          10.3731   41.8882    6.5745 O.3     1  UNL1       -0.4417
     11 C           9.6561   40.7132    6.1877 C.3     1  UNL1        0.1378
     12 C           8.1574   40.9465    6.2692 C.3     1  UNL1        0.0437
     13 C          10.0179   39.5905    7.1367 C.3     1  UNL1        0.0437
     14 C          10.0356   40.2916    4.7786 C.3     1  UNL1        0.0437
     15 C          17.1975   42.9131    8.3456 C.3     1  UNL1        0.4513
     16 F          17.0312   44.1284    7.7079 F       1  UNL1       -0.1632
     17 F          18.2644   42.2490    7.7679 F       1  UNL1       -0.1632
     18 F          17.4757   43.1236    9.6834 F       1  UNL1       -0.1632
     19 C          16.4809   40.1447    9.8281 C.2     1  UNL1        0.3450
     20 O          15.9802   39.7387   10.9117 O.2     1  UNL1       -0.2448
     21 O          17.8236   39.8894    9.5419 O.3     1  UNL1       -0.4454
     22 C          19.6132   38.7192   10.6239 C.3     1  UNL1        0.0513
     23 C          18.4014   38.6053    9.7232 C.3     1  UNL1        0.2089
     24 C          13.6197   39.3730    8.7532 C.1     1  UNL1        0.1052
     25 N          12.9968   38.4412    9.0407 N.1     1  UNL1       -0.1907
@<TRIPOS>BOND
     1    22    23    1
     2    23    21    1
     3    19    21    1
     4    19     1    1
     5     2     5   ar
     6     3     5   ar
     7     3     8    1
     8     4    24    1
     9     4     1   ar
    10     6    10    1
    11    11    10    1
    12    11    12    1
    13    11    13    1
    14    11    14    1
    15    15     2    1
    16    15    16    1
    17    15    17    1
    18    15    18    1
    19     8     6   am
    20    19    20    2
    21     1     2   ar
    22     3     4   ar
    23     6     7    2
    24    24    25    3
    25     8     9    1
@<TRIPOS>MOLECULE
Molport-047-883-860 PubChem-165926871
 25 25 0 0 0
SMALL
GASTEIGER

@<TRIPOS>ATOM
      1 C          14.1922   42.0876    7.4360 C.ar    1  UNL1        0.1281
      2 C          13.9984   43.1939    6.6060 C.ar    1  UNL1        0.2251
      3 C          12.0995   42.2307    6.7465 C.ar    1  UNL1        0.2138
      4 C          12.9522   41.4732    7.5173 C.ar    1  UNL1        0.1269
      5 O          12.7420   43.2448    6.2166 O.2     1  UNL1       -0.4347
      6 C          10.2011   41.0091    5.6047 C.2     1  UNL1        0.4073
      7 O          10.9895   40.3452    4.8768 O.2     1  UNL1       -0.2260
      8 N          10.7090   41.9568    6.5475 N.am    1  UNL1       -0.2204
      9 H          10.0594   42.4535    7.0957 H       1  UNL1        0.1611
     10 O           8.8147   40.8313    5.5040 O.3     1  UNL1       -0.4417
     11 C           7.9762   40.3656    6.5644 C.3     1  UNL1        0.1378
     12 C           7.4893   41.5265    7.4143 C.3     1  UNL1        0.0437
     13 C           8.7809   39.4328    7.4444 C.3     1  UNL1        0.0437
     14 C           6.7875   39.5979    6.0121 C.3     1  UNL1        0.0437
     15 C          15.0211   44.2058    6.1850 C.3     1  UNL1        0.4513
     16 F          15.9685   43.6072    5.3753 F       1  UNL1       -0.1632
     17 F          15.6526   44.7262    7.3000 F       1  UNL1       -0.1632
     18 F          14.4071   45.2372    5.4989 F       1  UNL1       -0.1632
     19 C          15.4403   41.6478    8.0970 C.2     1  UNL1        0.3450
     20 O          15.3935   40.9234    9.1280 O.2     1  UNL1       -0.2448
     21 O          16.6754   42.0371    7.5744 O.3     1  UNL1       -0.4454
     22 C          18.3241   43.7536    7.8536 C.3     1  UNL1        0.0513
     23 C          17.7425   42.4690    8.4053 C.3     1  UNL1        0.2089
     24 C          12.6017   40.2859    8.2539 C.1     1  UNL1        0.1052
     25 N          12.3197   39.3320    8.8452 N.1     1  UNL1       -0.1907
@<TRIPOS>BOND
     1    22    23    1
     2    23    21    1
     3    19    21    1
     4    19     1    1
     5     2     5   ar
     6     3     5   ar
     7     3     8    1
     8     4    24    1
     9     4     1   ar
    10     6    10    1
    11    11    10    1
    12    11    12    1
    13    11    13    1
    14    11    14    1
    15    15     2    1
    16    15    16    1
    17    15    17    1
    18    15    18    1
    19     8     6   am
    20    19    20    2
    21     1     2   ar
    22     3     4   ar
    23     6     7    2
    24    24    25    3
    25     8     9    1
@<TRIPOS>MOLECULE
Molport-047-883-860 PubChem-165926871
 25 25 0 0 0
SMALL
GASTEIGER

@<TRIPOS>ATOM
      1 C          15.2579   42.1073    7.5626 C.ar    1  UNL1        0.1281
      2 C          14.5926   42.8037    6.5511 C.ar    1  UNL1        0.2251
      3 C          13.1428   41.4928    7.4071 C.ar    1  UNL1        0.2138
      4 C          14.3048   41.2613    8.1081 C.ar    1  UNL1        0.1269
      5 O          13.3379   42.4106    6.4898 O.2     1  UNL1       -0.4347
      6 C          10.6928   41.0979    6.9159 C.2     1  UNL1        0.4073
      7 O          10.6771   41.9658    6.0000 O.2     1  UNL1       -0.2260
      8 N          11.8959   40.8304    7.6409 N.am    1  UNL1       -0.2204
      9 H          11.8645   40.1455    8.3474 H       1  UNL1        0.1611
     10 O           9.5336   40.3803    7.2401 O.3     1  UNL1       -0.4417
     11 C           9.0142   39.2881    6.4774 C.3     1  UNL1        0.1378
     12 C           9.8905   39.0123    5.2677 C.3     1  UNL1        0.0437
     13 C           7.6278   39.6529    5.9908 C.3     1  UNL1        0.0437
     14 C           8.9090   38.0372    7.3327 C.3     1  UNL1        0.0437
     15 C          15.1619   43.8496    5.6406 C.3     1  UNL1        0.4513
     16 F          15.0959   45.0889    6.2497 F       1  UNL1       -0.1632
     17 F          14.4363   43.8922    4.4638 F       1  UNL1       -0.1632
     18 F          16.4775   43.5471    5.3419 F       1  UNL1       -0.1632
     19 C          16.6717   42.2299    7.9798 C.2     1  UNL1        0.3450
     20 O          17.2249   41.3048    8.6341 O.2     1  UNL1       -0.2448
     21 O          17.3957   43.3763    7.6457 O.3     1  UNL1       -0.4454
     22 C          17.4877   44.4376    9.7924 C.3     1  UNL1        0.0513
     23 C          18.2693   44.0108    8.5677 C.3     1  UNL1        0.2089
     24 C          14.4710   40.3246    9.1897 C.1     1  UNL1        0.1052
     25 N          14.6047   39.5726   10.0590 N.1     1  UNL1       -0.1907
@<TRIPOS>BOND
     1    22    23    1
     2    23    21    1
     3    19    21    1
     4    19     1    1
     5     2     5   ar
     6     3     5   ar
     7     3     8    1
     8     4    24    1
     9     4     1   ar
    10     6    10    1
    11    11    10    1
    12    11    12    1
    13    11    13    1
    14    11    14    1
    15    15     2    1
    16    15    16    1
    17    15    17    1
    18    15    18    1
    19     8     6   am
    20    19    20    2
    21     1     2   ar
    22     3     4   ar
    23     6     7    2
    24    24    25    3
    25     8     9    1
@<TRIPOS>MOLECULE
Molport-047-883-860 PubChem-165926871
 25 25 0 0 0
SMALL
GASTEIGER

@<TRIPOS>ATOM
      1 C          13.9164   37.9576    9.8212 C.ar    1  UNL1        0.1281
      2 C          12.7660   38.7217    9.6135 C.ar    1  UNL1        0.2251
      3 C          14.4099   40.0403    9.2793 C.ar    1  UNL1        0.2138
      4 C          14.9739   38.8264    9.6009 C.ar    1  UNL1        0.1269
      5 O          13.1006   39.9538    9.2932 O.2     1  UNL1       -0.4347
      6 C          14.9768   41.9917    7.7723 C.2     1  UNL1        0.4073
      7 O          14.1438   41.6313    6.8957 O.2     1  UNL1       -0.2260
      8 N          15.1419   41.2311    8.9720 N.am    1  UNL1       -0.2204
      9 H          15.8025   41.5475    9.6298 H       1  UNL1        0.1611
     10 O          15.7553   43.1423    7.5881 O.3     1  UNL1       -0.4417
     11 C          17.1646   43.2152    7.8182 C.3     1  UNL1        0.1378
     12 C          17.8835   43.7434    6.5889 C.3     1  UNL1        0.0437
     13 C          17.6800   41.8225    8.1126 C.3     1  UNL1        0.0437
     14 C          17.4689   44.1021    9.0133 C.3     1  UNL1        0.0437
     15 C          11.3411   38.2690    9.7223 C.3     1  UNL1        0.4513
     16 F          11.2824   37.0583   10.3873 F       1  UNL1       -0.1632
     17 F          10.8017   38.1099    8.4587 F       1  UNL1       -0.1632
     18 F          10.5991   39.2130   10.4077 F       1  UNL1       -0.1632
     19 C          14.0105   36.5293   10.1945 C.2     1  UNL1        0.3450
     20 O          14.1209   36.1937   11.4049 O.2     1  UNL1       -0.2448
     21 O          13.9758   35.5496    9.2001 O.3     1  UNL1       -0.4454
     22 C          15.6997   35.6045    7.5363 C.3     1  UNL1        0.0513
     23 C          15.1500   34.8889    8.7523 C.3     1  UNL1        0.2089
     24 C          16.3833   38.5405    9.6825 C.1     1  UNL1        0.1052
     25 N          17.5156   38.3110    9.7487 N.1     1  UNL1       -0.1907
@<TRIPOS>BOND
     1    22    23    1
     2    23    21    1
     3    19    21    1
     4    19     1    1
     5     2     5   ar
     6     3     5   ar
     7     3     8    1
     8     4    24    1
     9     4     1   ar
    10     6    10    1
    11    11    10    1
    12    11    12    1
    13    11    13    1
    14    11    14    1
    15    15     2    1
    16    15    16    1
    17    15    17    1
    18    15    18    1
    19     8     6   am
    20    19    20    2
    21     1     2   ar
    22     3     4   ar
    23     6     7    2
    24    24    25    3
    25     8     9    1
@<TRIPOS>MOLECULE
Molport-047-883-860 PubChem-165926871
 25 25 0 0 0
SMALL
GASTEIGER

@<TRIPOS>ATOM
      1 C          15.2980   41.6517    8.0537 C.ar    1  UNL1        0.1281
      2 C          14.0980   41.7620    7.3476 C.ar    1  UNL1        0.2251
      3 C          13.9368   39.9702    8.4950 C.ar    1  UNL1        0.2138
      4 C          15.1782   40.4851    8.7928 C.ar    1  UNL1        0.1269
      5 O          13.3152   40.7439    7.6365 O.2     1  UNL1       -0.4347
      6 C          11.9980   38.5165    9.2218 C.2     1  UNL1        0.4073
      7 O          11.1466   39.3882    8.8942 O.2     1  UNL1       -0.2260
      8 N          13.3949   38.7633    9.0409 N.am    1  UNL1       -0.2204
      9 H          14.0254   38.0565    9.3096 H       1  UNL1        0.1611
     10 O          11.5926   37.2914    9.7682 O.3     1  UNL1       -0.4417
     11 C          12.4487   36.3986   10.4853 C.3     1  UNL1        0.1378
     12 C          11.6331   35.4178   11.3099 C.3     1  UNL1        0.0437
     13 C          13.3157   37.2090   11.4252 C.3     1  UNL1        0.0437
     14 C          13.3546   35.6399    9.5308 C.3     1  UNL1        0.0437
     15 C          13.7005   42.8472    6.3929 C.3     1  UNL1        0.4513
     16 F          13.5838   44.0477    7.0686 F       1  UNL1       -0.1632
     17 F          12.4818   42.5405    5.8154 F       1  UNL1       -0.1632
     18 F          14.6494   42.9654    5.3943 F       1  UNL1       -0.1632
     19 C          16.4583   42.5690    8.0338 C.2     1  UNL1        0.3450
     20 O          17.6288   42.1175    8.1600 O.2     1  UNL1       -0.2448
     21 O          16.2541   43.9411    7.8734 O.3     1  UNL1       -0.4454
     22 C          17.7180   43.8104    5.9805 C.3     1  UNL1        0.0513
     23 C          16.6773   44.6345    6.7090 C.3     1  UNL1        0.2089
     24 C          16.1409   39.9101    9.6971 C.1     1  UNL1        0.1052
     25 N          16.9138   39.4476   10.4235 N.1     1  UNL1       -0.1907
@<TRIPOS>BOND
     1    22    23    1
     2    23    21    1
     3    19    21    1
     4    19     1    1
     5     2     5   ar
     6     3     5   ar
     7     3     8    1
     8     4    24    1
     9     4     1   ar
    10     6    10    1
    11    11    10    1
    12    11    12    1
    13    11    13    1
    14    11    14    1
    15    15     2    1
    16    15    16    1
    17    15    17    1
    18    15    18    1
    19     8     6   am
    20    19    20    2
    21     1     2   ar
    22     3     4   ar
    23     6     7    2
    24    24    25    3
    25     8     9    1
@<TRIPOS>MOLECULE
Molport-047-883-860 PubChem-165926871
 25 25 0 0 0
SMALL
GASTEIGER

@<TRIPOS>ATOM
      1 C          10.2018   41.1865    7.2644 C.ar    1  UNL1        0.1281
      2 C          10.8676   40.9253    6.0649 C.ar    1  UNL1        0.2251
      3 C          12.2239   42.0730    7.2465 C.ar    1  UNL1        0.2138
      4 C          11.0939   41.9315    8.0199 C.ar    1  UNL1        0.1269
      5 O          12.0663   41.4685    6.0925 O.2     1  UNL1       -0.4347
      6 C          14.3580   43.3273    6.7249 C.2     1  UNL1        0.4073
      7 O          14.1907   43.2103    5.4797 O.2     1  UNL1       -0.2260
      8 N          13.4059   42.7777    7.6394 N.am    1  UNL1       -0.2204
      9 H          13.5747   42.8915    8.6026 H       1  UNL1        0.1611
     10 O          15.4782   43.9970    7.2356 O.3     1  UNL1       -0.4417
     11 C          16.6853   43.3568    7.6567 C.3     1  UNL1        0.1378
     12 C          17.3420   44.1355    8.7835 C.3     1  UNL1        0.0437
     13 C          17.6433   43.3106    6.4854 C.3     1  UNL1        0.0437
     14 C          16.4094   41.9328    8.1077 C.3     1  UNL1        0.0437
     15 C          10.3530   40.1520    4.8883 C.3     1  UNL1        0.4513
     16 F           9.0416   40.5060    4.6309 F       1  UNL1       -0.1632
     17 F          10.4037   38.7967    5.1593 F       1  UNL1       -0.1632
     18 F          11.1325   40.4134    3.7768 F       1  UNL1       -0.1632
     19 C           8.8405   40.7682    7.6646 C.2     1  UNL1        0.3450
     20 O           8.5295   39.5464    7.6825 O.2     1  UNL1       -0.2448
     21 O           7.8972   41.7328    8.0248 O.3     1  UNL1       -0.4454
     22 C           7.0382   43.0324    6.2037 C.3     1  UNL1        0.0513
     23 C           6.7351   41.9772    7.2466 C.3     1  UNL1        0.2089
     24 C          10.9022   42.4585    9.3467 C.1     1  UNL1        0.1052
     25 N          10.7482   42.8825   10.4124 N.1     1  UNL1       -0.1907
@<TRIPOS>BOND
     1    22    23    1
     2    23    21    1
     3    19    21    1
     4    19     1    1
     5     2     5   ar
     6     3     5   ar
     7     3     8    1
     8     4    24    1
     9     4     1   ar
    10     6    10    1
    11    11    10    1
    12    11    12    1
    13    11    13    1
    14    11    14    1
    15    15     2    1
    16    15    16    1
    17    15    17    1
    18    15    18    1
    19     8     6   am
    20    19    20    2
    21     1     2   ar
    22     3     4   ar
    23     6     7    2
    24    24    25    3
    25     8     9    1
@<TRIPOS>MOLECULE
Molport-047-883-860 PubChem-165926871
 25 25 0 0 0
SMALL
GASTEIGER

@<TRIPOS>ATOM
      1 C           9.5063   41.5989    8.0212 C.ar    1  UNL1        0.1281
      2 C           9.0991   42.0999    6.7828 C.ar    1  UNL1        0.2251
      3 C          11.2235   41.9325    6.6740 C.ar    1  UNL1        0.2138
      4 C          10.8860   41.4960    7.9352 C.ar    1  UNL1        0.1269
      5 O          10.1482   42.2851    6.0096 O.2     1  UNL1       -0.4347
      6 C          13.5346   42.9552    6.5605 C.2     1  UNL1        0.4073
      7 O          13.2550   43.8257    7.4301 O.2     1  UNL1       -0.2260
      8 N          12.5557   41.9949    6.1549 N.am    1  UNL1       -0.2204
      9 H          12.8153   41.3331    5.4737 H       1  UNL1        0.1611
     10 O          14.8075   42.9121    5.9760 O.3     1  UNL1       -0.4417
     11 C          15.8334   43.8846    6.1907 C.3     1  UNL1        0.1378
     12 C          16.2681   43.8953    7.6461 C.3     1  UNL1        0.0437
     13 C          15.2843   45.2525    5.8452 C.3     1  UNL1        0.0437
     14 C          17.0310   43.6086    5.2979 C.3     1  UNL1        0.0437
     15 C           7.6994   42.4020    6.3392 C.3     1  UNL1        0.4513
     16 F           7.7225   43.3121    5.2988 F       1  UNL1       -0.1632
     17 F           6.9812   42.9441    7.3896 F       1  UNL1       -0.1632
     18 F           7.0759   41.2390    5.9267 F       1  UNL1       -0.1632
     19 C           8.6657   41.2462    9.1862 C.2     1  UNL1        0.3450
     20 O           7.5315   40.7219    9.0174 O.2     1  UNL1       -0.2448
     21 O           9.1330   41.4952   10.4784 O.3     1  UNL1       -0.4454
     22 C           9.2647   43.8873   10.5368 C.3     1  UNL1        0.0513
     23 C           8.7350   42.6416   11.2154 C.3     1  UNL1        0.2089
     24 C          11.8011   41.0279    8.9444 C.1     1  UNL1        0.1052
     25 N          12.5365   40.6524    9.7550 N.1     1  UNL1       -0.1907
@<TRIPOS>BOND
     1    22    23    1
     2    23    21    1
     3    19    21    1
     4    19     1    1
     5     2     5   ar
     6     3     5   ar
     7     3     8    1
     8     4    24    1
     9     4     1   ar
    10     6    10    1
    11    11    10    1
    12    11    12    1
    13    11    13    1
    14    11    14    1
    15    15     2    1
    16    15    16    1
    17    15    17    1
    18    15    18    1
    19     8     6   am
    20    19    20    2
    21     1     2   ar
    22     3     4   ar
    23     6     7    2
    24    24    25    3
    25     8     9    1
@<TRIPOS>MOLECULE
Molport-047-883-860 PubChem-165926871
 25 25 0 0 0
SMALL
GASTEIGER

@<TRIPOS>ATOM
      1 C          14.8587   41.8403    7.9081 C.ar    1  UNL1        0.1281
      2 C          15.8907   41.3369    8.7032 C.ar    1  UNL1        0.2251
      3 C          14.1672   40.1722    9.1788 C.ar    1  UNL1        0.2138
      4 C          13.7479   41.0751    8.2279 C.ar    1  UNL1        0.1269
      5 O          15.4404   40.3467    9.4444 O.2     1  UNL1       -0.4347
      6 C          13.8034   38.2130   10.7373 C.2     1  UNL1        0.4073
      7 O          15.0166   38.1885   11.0831 O.2     1  UNL1       -0.2260
      8 N          13.3376   39.1815    9.7940 N.am    1  UNL1       -0.2204
      9 H          12.3835   39.1657    9.5517 H       1  UNL1        0.1611
     10 O          12.8899   37.2933   11.2698 O.3     1  UNL1       -0.4417
     11 C          12.1835   36.3138   10.5043 C.3     1  UNL1        0.1378
     12 C          13.1386   35.5322    9.6188 C.3     1  UNL1        0.0437
     13 C          11.1807   37.0220    9.6185 C.3     1  UNL1        0.0437
     14 C          11.4298   35.3605   11.4157 C.3     1  UNL1        0.0437
     15 C          17.3133   41.8068    8.7524 C.3     1  UNL1        0.4513
     16 F          17.3791   43.0413    9.3712 F       1  UNL1       -0.1632
     17 F          17.8128   41.9250    7.4680 F       1  UNL1       -0.1632
     18 F          18.0855   40.8954    9.4484 F       1  UNL1       -0.1632
     19 C          14.9155   42.9479    6.9293 C.2     1  UNL1        0.3450
     20 O          14.2616   42.8808    5.8534 O.2     1  UNL1       -0.2448
     21 O          15.6971   44.0729    7.2008 O.3     1  UNL1       -0.4454
     22 C          17.5094   44.0304    5.6334 C.3     1  UNL1        0.0513
     23 C          16.3314   44.8157    6.1704 C.3     1  UNL1        0.2089
     24 C          12.4170   41.1815    7.6872 C.1     1  UNL1        0.1052
     25 N          11.3478   41.2664    7.2531 N.1     1  UNL1       -0.1907
@<TRIPOS>BOND
     1    22    23    1
     2    23    21    1
     3    19    21    1
     4    19     1    1
     5     2     5   ar
     6     3     5   ar
     7     3     8    1
     8     4    24    1
     9     4     1   ar
    10     6    10    1
    11    11    10    1
    12    11    12    1
    13    11    13    1
    14    11    14    1
    15    15     2    1
    16    15    16    1
    17    15    17    1
    18    15    18    1
    19     8     6   am
    20    19    20    2
    21     1     2   ar
    22     3     4   ar
    23     6     7    2
    24    24    25    3
    25     8     9    1
