@<TRIPOS>MOLECULE
MolPort-008-284-647 57823172 MCULE-2288730744 PubChem-46966760 ZINC000057823172
 29 31 0 0 0
SMALL
GASTEIGER

@<TRIPOS>ATOM
      1 C          13.2478   40.1800    9.4154 C.ar    1  UNL1        0.0645
      2 C          12.6473   39.9368    8.1739 C.ar    1  UNL1        0.0171
      3 C          11.2596   40.0047    8.0383 C.ar    1  UNL1        0.0157
      4 C          10.4515   40.3031    9.1401 C.ar    1  UNL1        0.0464
      5 C          11.0569   40.5798   10.3864 C.ar    1  UNL1       -0.0071
      6 C          10.2674   41.0250   11.5696 C.3     1  UNL1        0.0324
      7 C          12.4481   40.5110   10.5119 C.ar    1  UNL1        0.0128
      8 C           8.3246   41.5298    8.4888 C.2     1  UNL1        0.2425
      9 N           9.0338   40.3718    8.9412 N.am    1  UNL1       -0.2830
     10 O           8.8946   42.6521    8.4313 O.2     1  UNL1       -0.2733
     11 H           8.5080   39.5612    9.1301 H       1  UNL1        0.1549
     12 C           6.8656   41.4193    8.1439 C.3     1  UNL1        0.1587
     13 C           6.4389   41.6337   10.5038 C.3     1  UNL1        0.0726
     14 C           5.2387   41.2178   11.3191 C.3     1  UNL1        0.0188
     15 C           4.2627   40.6951   10.3012 C.3     1  UNL1        0.0188
     16 C           4.6193   41.4150    9.0178 C.3     1  UNL1        0.0726
     17 N           5.9637   41.9720    9.1649 N.3     1  UNL1       -0.2650
     18 N          14.6667   40.1179    9.5820 N.pl3   1  UNL1       -0.2149
     19 H          15.1992   40.9073    9.3318 H       1  UNL1        0.1737
     20 S          15.5012   38.7301   10.1998 S.O2    1  UNL1        0.0763
     21 O          15.9249   38.9962   11.6171 O.2     1  UNL1       -0.1498
     22 O          16.7219   38.4691    9.3640 O.2     1  UNL1       -0.1498
     23 C          15.4735   36.1093    8.1252 C.3     1  UNL1        0.0554
     24 C          14.5021   36.2786    9.2402 C.ar    1  UNL1        0.0993
     25 C          11.7180   35.2306   11.1647 C.3     1  UNL1        0.1538
     26 C          13.3899   37.0556   10.9781 C.ar    1  UNL1        0.1165
     27 C          14.4520   37.3240   10.1387 C.ar    1  UNL1        0.1589
     28 N          13.5170   35.4077    9.5167 N.ar    1  UNL1       -0.1722
     29 N          12.8612   35.8885   10.5611 N.ar    1  UNL1       -0.2463
@<TRIPOS>BOND
     1    23    24    1
     2    25    29    1
     3    27    24   ar
     4     2     3   ar
     5     4     9    1
     6     4     5   ar
     7    12     8    1
     8    12    17    1
     9    13    17    1
    10    13    14    1
    11    14    15    1
    12    15    16    1
    13    16    17    1
    14     6     5    1
    15     7     1   ar
    16    29    28   ar
    17    29    26   ar
    18    18     1    1
    19     9     8   am
    20    20    27    1
    21    20    18    1
    22    24    28   ar
    23    26    27   ar
    24     1     2   ar
    25     3     4   ar
    26     8    10    2
    27     5     7   ar
    28    20    21    2
    29    20    22    2
    30    18    19    1
    31     9    11    1
@<TRIPOS>MOLECULE
MolPort-008-284-647 57823172 MCULE-2288730744 PubChem-46966760 ZINC000057823172
 29 31 0 0 0
SMALL
GASTEIGER

@<TRIPOS>ATOM
      1 C          11.6025   41.0383    9.9258 C.ar    1  UNL1        0.0645
      2 C          10.5680   40.1406    9.6343 C.ar    1  UNL1        0.0171
      3 C           9.2453   40.5839    9.5830 C.ar    1  UNL1        0.0157
      4 C           8.9348   41.9243    9.8338 C.ar    1  UNL1        0.0464
      5 C           9.9796   42.8382   10.0972 C.ar    1  UNL1       -0.0071
      6 C           9.7338   44.3003   10.2505 C.3     1  UNL1        0.0324
      7 C          11.3018   42.3849   10.1447 C.ar    1  UNL1        0.0128
      8 C           6.7912   42.3844    8.5509 C.2     1  UNL1        0.2425
      9 N           7.5615   42.3272    9.7558 N.am    1  UNL1       -0.2830
     10 O           7.3475   42.2764    7.4254 O.2     1  UNL1       -0.2733
     11 H           7.1143   42.5841   10.5944 H       1  UNL1        0.1549
     12 C           5.3125   42.6445    8.6265 C.3     1  UNL1        0.1587
     13 C           3.1268   41.8722    9.2772 C.3     1  UNL1        0.0726
     14 C           2.5276   41.6857   10.6498 C.3     1  UNL1        0.0188
     15 C           3.6545   42.0068   11.5925 C.3     1  UNL1        0.0188
     16 C           4.9136   41.7021   10.8087 C.3     1  UNL1        0.0726
     17 N           4.5636   41.6358    9.3901 N.3     1  UNL1       -0.2650
     18 N          12.9660   40.6111    9.9838 N.pl3   1  UNL1       -0.2149
     19 H          13.3968   40.5499   10.8670 H       1  UNL1        0.1737
     20 S          13.9022   40.1950    8.5859 S.O2    1  UNL1        0.0763
     21 O          13.1968   39.1104    7.8212 O.2     1  UNL1       -0.1498
     22 O          15.2496   39.6920    9.0197 O.2     1  UNL1       -0.1498
     23 C          11.8973   41.5599    6.2858 C.3     1  UNL1        0.0554
     24 C          13.2375   42.1083    6.6298 C.ar    1  UNL1        0.0993
     25 C          15.8673   44.4498    6.2353 C.3     1  UNL1        0.1538
     26 C          15.2230   42.4337    7.5318 C.ar    1  UNL1        0.1165
     27 C          14.1175   41.6081    7.5669 C.ar    1  UNL1        0.1589
     28 N          13.7774   43.1923    6.0477 N.ar    1  UNL1       -0.1722
     29 N          14.9664   43.3732    6.6007 N.ar    1  UNL1       -0.2463
@<TRIPOS>BOND
     1    23    24    1
     2    25    29    1
     3    27    24   ar
     4     2     3   ar
     5     4     9    1
     6     4     5   ar
     7    12     8    1
     8    12    17    1
     9    13    17    1
    10    13    14    1
    11    14    15    1
    12    15    16    1
    13    16    17    1
    14     6     5    1
    15     7     1   ar
    16    29    28   ar
    17    29    26   ar
    18    18     1    1
    19     9     8   am
    20    20    27    1
    21    20    18    1
    22    24    28   ar
    23    26    27   ar
    24     1     2   ar
    25     3     4   ar
    26     8    10    2
    27     5     7   ar
    28    20    21    2
    29    20    22    2
    30    18    19    1
    31     9    11    1
@<TRIPOS>MOLECULE
MolPort-008-284-647 57823172 MCULE-2288730744 PubChem-46966760 ZINC000057823172
 29 31 0 0 0
SMALL
GASTEIGER

@<TRIPOS>ATOM
      1 C          12.0562   40.7110   10.1353 C.ar    1  UNL1        0.0645
      2 C          11.5377   40.8249    8.8395 C.ar    1  UNL1        0.0171
      3 C          10.1698   41.0233    8.6439 C.ar    1  UNL1        0.0157
      4 C           9.2993   41.0980    9.7360 C.ar    1  UNL1        0.0464
      5 C           9.8240   41.0148   11.0451 C.ar    1  UNL1       -0.0071
      6 C           8.9738   41.2101   12.2537 C.3     1  UNL1        0.0324
      7 C          11.1961   40.8179   11.2309 C.ar    1  UNL1        0.0128
      8 C           7.3174   42.5822    9.1686 C.2     1  UNL1        0.2425
      9 N           7.9062   41.3149    9.4777 N.am    1  UNL1       -0.2830
     10 O           7.9739   43.6486    9.3092 O.2     1  UNL1       -0.2733
     11 H           7.3093   40.5329    9.5158 H       1  UNL1        0.1549
     12 C           5.8788   42.6472    8.7373 C.3     1  UNL1        0.1587
     13 C           4.9543   41.0124   10.2438 C.3     1  UNL1        0.0726
     14 C           3.5280   40.5554   10.4304 C.3     1  UNL1        0.0188
     15 C           2.7334   41.4340    9.5038 C.3     1  UNL1        0.0188
     16 C           3.5542   42.6995    9.3717 C.3     1  UNL1        0.0726
     17 N           4.9153   42.4101    9.8221 N.3     1  UNL1       -0.2650
     18 N          13.4532   40.5083   10.3641 N.pl3   1  UNL1       -0.2149
     19 H          13.8007   40.6506   11.2742 H       1  UNL1        0.1737
     20 S          14.5686   40.0262    9.1282 S.O2    1  UNL1        0.0763
     21 O          13.9609   38.9166    8.3168 O.2     1  UNL1       -0.1498
     22 O          15.8354   39.5304    9.7655 O.2     1  UNL1       -0.1498
     23 C          17.2865   41.9650    8.9630 C.3     1  UNL1        0.0554
     24 C          16.0958   42.1518    8.0898 C.ar    1  UNL1        0.0993
     25 C          14.3089   43.8361    5.5356 C.3     1  UNL1        0.1538
     26 C          14.1242   41.9395    7.1259 C.ar    1  UNL1        0.1165
     27 C          14.9435   41.3936    8.0932 C.ar    1  UNL1        0.1589
     28 N          15.9892   43.1176    7.1617 N.ar    1  UNL1       -0.1722
     29 N          14.8022   42.9750    6.5935 N.ar    1  UNL1       -0.2463
@<TRIPOS>BOND
     1    23    24    1
     2    25    29    1
     3    27    24   ar
     4     2     3   ar
     5     4     9    1
     6     4     5   ar
     7    12     8    1
     8    12    17    1
     9    13    17    1
    10    13    14    1
    11    14    15    1
    12    15    16    1
    13    16    17    1
    14     6     5    1
    15     7     1   ar
    16    29    28   ar
    17    29    26   ar
    18    18     1    1
    19     9     8   am
    20    20    27    1
    21    20    18    1
    22    24    28   ar
    23    26    27   ar
    24     1     2   ar
    25     3     4   ar
    26     8    10    2
    27     5     7   ar
    28    20    21    2
    29    20    22    2
    30    18    19    1
    31     9    11    1
@<TRIPOS>MOLECULE
MolPort-008-284-647 57823172 MCULE-2288730744 PubChem-46966760 ZINC000057823172
 29 31 0 0 0
SMALL
GASTEIGER

@<TRIPOS>ATOM
      1 C          13.4758   39.9731    9.6716 C.ar    1  UNL1        0.0645
      2 C          12.9038   39.6167    8.4441 C.ar    1  UNL1        0.0171
      3 C          11.5195   39.6692    8.2713 C.ar    1  UNL1        0.0157
      4 C          10.6866   40.0652    9.3227 C.ar    1  UNL1        0.0464
      5 C          11.2634   40.4553   10.5521 C.ar    1  UNL1       -0.0071
      6 C          10.4471   41.0049   11.6715 C.3     1  UNL1        0.0324
      7 C          12.6514   40.4010   10.7150 C.ar    1  UNL1        0.0128
      8 C           8.5681   41.2416    8.5608 C.2     1  UNL1        0.2425
      9 N           9.2738   40.1127    9.0862 N.am    1  UNL1       -0.2830
     10 O           9.1316   42.3643    8.4626 O.2     1  UNL1       -0.2733
     11 H           8.7491   39.3079    9.3014 H       1  UNL1        0.1549
     12 C           7.1188   41.1027    8.1862 C.3     1  UNL1        0.1587
     13 C           6.5826   41.5807   10.4843 C.3     1  UNL1        0.0726
     14 C           5.3225   41.3067   11.2685 C.3     1  UNL1        0.0188
     15 C           4.3750   40.7255   10.2555 C.3     1  UNL1        0.0188
     16 C           4.8333   41.2909    8.9278 C.3     1  UNL1        0.0726
     17 N           6.1948   41.7989    9.0933 N.3     1  UNL1       -0.2650
     18 N          14.8906   39.9292    9.8754 N.pl3   1  UNL1       -0.2149
     19 H          15.4379   40.6536    9.4945 H       1  UNL1        0.1737
     20 S          15.6954   38.6716   10.7555 S.O2    1  UNL1        0.0763
     21 O          15.1846   38.6500   12.1689 O.2     1  UNL1       -0.1498
     22 O          17.1731   38.9418   10.7725 O.2     1  UNL1       -0.1498
     23 C          13.0381   36.6461   10.8522 C.3     1  UNL1        0.0554
     24 C          14.2727   36.3374   10.0802 C.ar    1  UNL1        0.0993
     25 C          16.2187   34.2608    7.9697 C.3     1  UNL1        0.1538
     26 C          16.2810   36.4296    9.1751 C.ar    1  UNL1        0.1165
     27 C          15.4040   37.1210    9.9860 C.ar    1  UNL1        0.1589
     28 N          14.4468   35.2174    9.3587 N.ar    1  UNL1       -0.1722
     29 N          15.6550   35.2897    8.8228 N.ar    1  UNL1       -0.2463
@<TRIPOS>BOND
     1    23    24    1
     2    25    29    1
     3    27    24   ar
     4     2     3   ar
     5     4     9    1
     6     4     5   ar
     7    12     8    1
     8    12    17    1
     9    13    17    1
    10    13    14    1
    11    14    15    1
    12    15    16    1
    13    16    17    1
    14     6     5    1
    15     7     1   ar
    16    29    28   ar
    17    29    26   ar
    18    18     1    1
    19     9     8   am
    20    20    27    1
    21    20    18    1
    22    24    28   ar
    23    26    27   ar
    24     1     2   ar
    25     3     4   ar
    26     8    10    2
    27     5     7   ar
    28    20    21    2
    29    20    22    2
    30    18    19    1
    31     9    11    1
@<TRIPOS>MOLECULE
MolPort-008-284-647 57823172 MCULE-2288730744 PubChem-46966760 ZINC000057823172
 29 31 0 0 0
SMALL
GASTEIGER

@<TRIPOS>ATOM
      1 C          14.7556   40.2956    9.5922 C.ar    1  UNL1        0.0645
      2 C          14.7432   40.9786    8.3698 C.ar    1  UNL1        0.0171
      3 C          13.5601   41.5451    7.8923 C.ar    1  UNL1        0.0157
      4 C          12.3716   41.4277    8.6201 C.ar    1  UNL1        0.0464
      5 C          12.3882   40.7663    9.8686 C.ar    1  UNL1       -0.0071
      6 C          11.1894   40.7120   10.7527 C.3     1  UNL1        0.0324
      7 C          13.5788   40.2036   10.3393 C.ar    1  UNL1        0.0128
      8 C          10.1828   41.3576    7.3328 C.2     1  UNL1        0.2425
      9 N          11.1891   42.0390    8.0889 N.am    1  UNL1       -0.2830
     10 O          10.3815   40.1903    6.9018 O.2     1  UNL1       -0.2733
     11 H          11.0592   43.0003    8.2568 H       1  UNL1        0.1549
     12 C           8.9027   42.0677    6.9908 C.3     1  UNL1        0.1587
     13 C           6.5915   42.1920    7.6540 C.3     1  UNL1        0.0726
     14 C           5.8472   43.2754    8.3958 C.3     1  UNL1        0.0188
     15 C           6.9086   44.2827    8.7431 C.3     1  UNL1        0.0188
     16 C           8.1936   43.4844    8.8072 C.3     1  UNL1        0.0726
     17 N           7.9748   42.2108    8.1221 N.3     1  UNL1       -0.2650
     18 N          15.9536   39.7067   10.1049 N.pl3   1  UNL1       -0.2149
     19 H          16.8126   40.1353    9.8867 H       1  UNL1        0.1737
     20 S          15.9775   38.2803   11.0892 S.O2    1  UNL1        0.0763
     21 O          15.8070   38.6693   12.5309 O.2     1  UNL1       -0.1498
     22 O          17.2968   37.5815   10.9227 O.2     1  UNL1       -0.1498
     23 C          15.5904   36.4450    8.3224 C.3     1  UNL1        0.0554
     24 C          14.5972   36.4711    9.4306 C.ar    1  UNL1        0.0993
     25 C          11.5439   35.4858   10.9339 C.3     1  UNL1        0.1538
     26 C          13.5401   36.9106   11.3150 C.ar    1  UNL1        0.1165
     27 C          14.6870   37.1946   10.6016 C.ar    1  UNL1        0.1589
     28 N          13.4487   35.7737    9.4264 N.ar    1  UNL1       -0.1722
     29 N          12.8284   36.0483   10.5631 N.ar    1  UNL1       -0.2463
@<TRIPOS>BOND
     1    23    24    1
     2    25    29    1
     3    27    24   ar
     4     2     3   ar
     5     4     9    1
     6     4     5   ar
     7    12     8    1
     8    12    17    1
     9    13    17    1
    10    13    14    1
    11    14    15    1
    12    15    16    1
    13    16    17    1
    14     6     5    1
    15     7     1   ar
    16    29    28   ar
    17    29    26   ar
    18    18     1    1
    19     9     8   am
    20    20    27    1
    21    20    18    1
    22    24    28   ar
    23    26    27   ar
    24     1     2   ar
    25     3     4   ar
    26     8    10    2
    27     5     7   ar
    28    20    21    2
    29    20    22    2
    30    18    19    1
    31     9    11    1
@<TRIPOS>MOLECULE
MolPort-008-284-647 57823172 MCULE-2288730744 PubChem-46966760 ZINC000057823172
 29 31 0 0 0
SMALL
GASTEIGER

@<TRIPOS>ATOM
      1 C          11.8579   40.8686   10.1701 C.ar    1  UNL1        0.0645
      2 C          11.2677   41.3256    8.9853 C.ar    1  UNL1        0.0171
      3 C           9.9132   41.6621    8.9582 C.ar    1  UNL1        0.0157
      4 C           9.1263   41.5355   10.1075 C.ar    1  UNL1        0.0464
      5 C           9.7264   41.1046   11.3119 C.ar    1  UNL1       -0.0071
      6 C           8.9782   41.0655   12.6004 C.3     1  UNL1        0.0324
      7 C          11.0846   40.7716   11.3295 C.ar    1  UNL1        0.0128
      8 C           6.8147   41.4000    9.0630 C.2     1  UNL1        0.2425
      9 N           7.7443   41.9066   10.0261 N.am    1  UNL1       -0.2830
     10 O           7.2144   40.7320    8.0721 O.2     1  UNL1       -0.2733
     11 H           7.4091   42.5594   10.6824 H       1  UNL1        0.1549
     12 C           5.3536   41.7264    9.1980 C.3     1  UNL1        0.1587
     13 C           3.6767   43.4443    9.0135 C.3     1  UNL1        0.0726
     14 C           3.6571   44.7016    8.1787 C.3     1  UNL1        0.0188
     15 C           5.0053   44.7251    7.5128 C.3     1  UNL1        0.0188
     16 C           5.9106   43.9469    8.4443 C.3     1  UNL1        0.0726
     17 N           5.0701   43.1612    9.3472 N.3     1  UNL1       -0.2650
     18 N          13.2431   40.5180   10.2259 N.pl3   1  UNL1       -0.2149
     19 H          13.7007   40.5681   11.0962 H       1  UNL1        0.1737
     20 S          14.1613   40.0099    8.8466 S.O2    1  UNL1        0.0763
     21 O          13.2951   39.1605    7.9593 O.2     1  UNL1       -0.1498
     22 O          15.3399   39.1981    9.3034 O.2     1  UNL1       -0.1498
     23 C          17.0637   41.6598    9.0121 C.3     1  UNL1        0.0554
     24 C          15.9579   42.0427    8.0923 C.ar    1  UNL1        0.0993
     25 C          14.5209   44.1120    5.6011 C.3     1  UNL1        0.1538
     26 C          14.0432   42.1194    7.0017 C.ar    1  UNL1        0.1165
     27 C          14.7382   41.4118    7.9615 C.ar    1  UNL1        0.1589
     28 N          16.0098   43.0882    7.2499 N.ar    1  UNL1       -0.1722
     29 N          14.8547   43.1188    6.6040 N.ar    1  UNL1       -0.2463
@<TRIPOS>BOND
     1    23    24    1
     2    25    29    1
     3    27    24   ar
     4     2     3   ar
     5     4     9    1
     6     4     5   ar
     7    12     8    1
     8    12    17    1
     9    13    17    1
    10    13    14    1
    11    14    15    1
    12    15    16    1
    13    16    17    1
    14     6     5    1
    15     7     1   ar
    16    29    28   ar
    17    29    26   ar
    18    18     1    1
    19     9     8   am
    20    20    27    1
    21    20    18    1
    22    24    28   ar
    23    26    27   ar
    24     1     2   ar
    25     3     4   ar
    26     8    10    2
    27     5     7   ar
    28    20    21    2
    29    20    22    2
    30    18    19    1
    31     9    11    1
@<TRIPOS>MOLECULE
MolPort-008-284-647 57823172 MCULE-2288730744 PubChem-46966760 ZINC000057823172
 29 31 0 0 0
SMALL
GASTEIGER

@<TRIPOS>ATOM
      1 C          12.7368   39.9953   10.2653 C.ar    1  UNL1        0.0645
      2 C          12.0869   38.8759    9.7309 C.ar    1  UNL1        0.0171
      3 C          10.7953   38.9923    9.2143 C.ar    1  UNL1        0.0157
      4 C          10.1296   40.2221    9.2350 C.ar    1  UNL1        0.0464
      5 C          10.7949   41.3595    9.7449 C.ar    1  UNL1       -0.0071
      6 C          10.1944   42.7224    9.6844 C.3     1  UNL1        0.0324
      7 C          12.0896   41.2333   10.2586 C.ar    1  UNL1        0.0128
      8 C           8.5118   40.4715    7.2925 C.2     1  UNL1        0.2425
      9 N           8.8097   40.2870    8.6802 N.am    1  UNL1       -0.2830
     10 O           9.4154   40.8015    6.4785 O.2     1  UNL1       -0.2733
     11 H           8.0505   40.1980    9.3006 H       1  UNL1        0.1549
     12 C           7.0934   40.3371    6.8132 C.3     1  UNL1        0.1587
     13 C           7.0039   42.6987    6.3527 C.3     1  UNL1        0.0726
     14 C           6.8485   43.8698    7.2921 C.3     1  UNL1        0.0188
     15 C           6.6571   43.2378    8.6433 C.3     1  UNL1        0.0188
     16 C           6.0602   41.8769    8.3530 C.3     1  UNL1        0.0726
     17 N           6.2966   41.5657    6.9435 N.3     1  UNL1       -0.2650
     18 N          14.0599   39.9044   10.8001 N.pl3   1  UNL1       -0.2149
     19 H          14.1764   40.0062   11.7724 H       1  UNL1        0.1737
     20 S          15.4699   39.6247    9.8318 S.O2    1  UNL1        0.0763
     21 O          15.2061   38.4845    8.8888 O.2     1  UNL1       -0.1498
     22 O          16.6243   39.2661   10.7237 O.2     1  UNL1       -0.1498
     23 C          13.7807   41.2596    7.4555 C.3     1  UNL1        0.0554
     24 C          15.1174   41.6891    7.9496 C.ar    1  UNL1        0.0993
     25 C          17.9232   43.8527    7.9356 C.3     1  UNL1        0.1538
     26 C          17.0289   41.8182    9.0409 C.ar    1  UNL1        0.1165
     27 C          15.8721   41.0741    8.9268 C.ar    1  UNL1        0.1589
     28 N          15.7799   42.7626    7.4866 N.ar    1  UNL1       -0.1722
     29 N          16.9225   42.8251    8.1520 N.ar    1  UNL1       -0.2463
@<TRIPOS>BOND
     1    23    24    1
     2    25    29    1
     3    27    24   ar
     4     2     3   ar
     5     4     9    1
     6     4     5   ar
     7    12     8    1
     8    12    17    1
     9    13    17    1
    10    13    14    1
    11    14    15    1
    12    15    16    1
    13    16    17    1
    14     6     5    1
    15     7     1   ar
    16    29    28   ar
    17    29    26   ar
    18    18     1    1
    19     9     8   am
    20    20    27    1
    21    20    18    1
    22    24    28   ar
    23    26    27   ar
    24     1     2   ar
    25     3     4   ar
    26     8    10    2
    27     5     7   ar
    28    20    21    2
    29    20    22    2
    30    18    19    1
    31     9    11    1
@<TRIPOS>MOLECULE
MolPort-008-284-647 57823172 MCULE-2288730744 PubChem-46966760 ZINC000057823172
 29 31 0 0 0
SMALL
GASTEIGER

@<TRIPOS>ATOM
      1 C          10.6463   42.2082    9.0002 C.ar    1  UNL1        0.0645
      2 C           9.8989   42.1592   10.1834 C.ar    1  UNL1        0.0171
      3 C           8.5039   42.1745   10.1355 C.ar    1  UNL1        0.0157
      4 C           7.8356   42.2518    8.9093 C.ar    1  UNL1        0.0464
      5 C           8.5868   42.2696    7.7128 C.ar    1  UNL1       -0.0071
      6 C           7.9404   42.2262    6.3705 C.3     1  UNL1        0.0324
      7 C           9.9840   42.2521    7.7710 C.ar    1  UNL1        0.0128
      8 C           5.5825   43.4246    8.8859 C.2     1  UNL1        0.2425
      9 N           6.4024   42.2519    8.9181 N.am    1  UNL1       -0.2830
     10 O           6.0858   44.5669    9.0585 O.2     1  UNL1       -0.2733
     11 H           5.9475   41.3794    8.9487 H       1  UNL1        0.1549
     12 C           4.0956   43.2866    8.7126 C.3     1  UNL1        0.1587
     13 C           4.3553   42.4205   10.9441 C.3     1  UNL1        0.0726
     14 C           4.0778   41.0423   11.4932 C.3     1  UNL1        0.0188
     15 C           3.4861   40.2930   10.3312 C.3     1  UNL1        0.0188
     16 C           2.8554   41.3609    9.4628 C.3     1  UNL1        0.0726
     17 N           3.4143   42.6552    9.8521 N.3     1  UNL1       -0.2650
     18 N          12.0761   42.1930    9.0205 N.pl3   1  UNL1       -0.2149
     19 H          12.5413   42.8969    9.5278 H       1  UNL1        0.1737
     20 S          13.0355   41.0043    8.2018 S.O2    1  UNL1        0.0763
     21 O          13.7170   41.6422    7.0238 O.2     1  UNL1       -0.1498
     22 O          12.1466   39.8963    7.7129 O.2     1  UNL1       -0.1498
     23 C          12.6956   39.6128   11.2219 C.3     1  UNL1        0.0554
     24 C          14.0097   39.7819   10.5439 C.ar    1  UNL1        0.0993
     25 C          17.5361   39.4661   10.4083 C.3     1  UNL1        0.1538
     26 C          15.5952   40.2880    9.0977 C.ar    1  UNL1        0.1165
     27 C          14.2311   40.3385    9.3014 C.ar    1  UNL1        0.1589
     28 N          15.1840   39.4054   11.0775 N.ar    1  UNL1       -0.1722
     29 N          16.1228   39.7153   10.1973 N.ar    1  UNL1       -0.2463
@<TRIPOS>BOND
     1    23    24    1
     2    25    29    1
     3    27    24   ar
     4     2     3   ar
     5     4     9    1
     6     4     5   ar
     7    12     8    1
     8    12    17    1
     9    13    17    1
    10    13    14    1
    11    14    15    1
    12    15    16    1
    13    16    17    1
    14     6     5    1
    15     7     1   ar
    16    29    28   ar
    17    29    26   ar
    18    18     1    1
    19     9     8   am
    20    20    27    1
    21    20    18    1
    22    24    28   ar
    23    26    27   ar
    24     1     2   ar
    25     3     4   ar
    26     8    10    2
    27     5     7   ar
    28    20    21    2
    29    20    22    2
    30    18    19    1
    31     9    11    1
@<TRIPOS>MOLECULE
MolPort-008-284-647 57823172 MCULE-2288730744 PubChem-46966760 ZINC000057823172
 29 31 0 0 0
SMALL
GASTEIGER

@<TRIPOS>ATOM
      1 C          14.3458   40.2157    9.7281 C.ar    1  UNL1        0.0645
      2 C          13.4542   39.9732   10.7804 C.ar    1  UNL1        0.0171
      3 C          12.0974   40.2674   10.6349 C.ar    1  UNL1        0.0157
      4 C          11.6135   40.8188    9.4442 C.ar    1  UNL1        0.0464
      5 C          12.5055   41.0352    8.3700 C.ar    1  UNL1       -0.0071
      6 C          12.0386   41.5024    7.0339 C.3     1  UNL1        0.0324
      7 C          13.8628   40.7355    8.5248 C.ar    1  UNL1        0.0128
      8 C           9.5557   42.2387    9.8937 C.2     1  UNL1        0.2425
      9 N          10.2096   41.0899    9.3450 N.am    1  UNL1       -0.2830
     10 O          10.1588   43.0010   10.6956 O.2     1  UNL1       -0.2733
     11 H           9.6530   40.4364    8.8630 H       1  UNL1        0.1549
     12 C           8.1127   42.5004    9.5632 C.3     1  UNL1        0.1587
     13 C           6.0626   41.3700    9.0007 C.3     1  UNL1        0.0726
     14 C           4.8307   41.1135    9.8341 C.3     1  UNL1        0.0188
     15 C           5.1846   41.6509   11.1934 C.3     1  UNL1        0.0188
     16 C           6.6938   41.5547   11.2667 C.3     1  UNL1        0.0726
     17 N           7.2078   41.3939    9.9068 N.3     1  UNL1       -0.2650
     18 N          15.7402   39.9228    9.8501 N.pl3   1  UNL1       -0.2149
     19 H          16.3832   40.5402    9.4323 H       1  UNL1        0.1737
     20 S          16.3611   38.5412   10.6925 S.O2    1  UNL1        0.0763
     21 O          15.9018   38.5844   12.1228 O.2     1  UNL1       -0.1498
     22 O          17.8627   38.5698   10.6588 O.2     1  UNL1       -0.1498
     23 C          13.6108   36.7145   11.2144 C.3     1  UNL1        0.0554
     24 C          14.6434   36.3648   10.2010 C.ar    1  UNL1        0.0993
     25 C          15.9652   34.2868    7.6537 C.3     1  UNL1        0.1538
     26 C          16.4408   36.3655    8.9240 C.ar    1  UNL1        0.1165
     27 C          15.7974   37.0674    9.9231 C.ar    1  UNL1        0.1589
     28 N          14.5805   35.2823    9.4074 N.ar    1  UNL1       -0.1722
     29 N          15.6648   35.2990    8.6484 N.ar    1  UNL1       -0.2463
@<TRIPOS>BOND
     1    23    24    1
     2    25    29    1
     3    27    24   ar
     4     2     3   ar
     5     4     9    1
     6     4     5   ar
     7    12     8    1
     8    12    17    1
     9    13    17    1
    10    13    14    1
    11    14    15    1
    12    15    16    1
    13    16    17    1
    14     6     5    1
    15     7     1   ar
    16    29    28   ar
    17    29    26   ar
    18    18     1    1
    19     9     8   am
    20    20    27    1
    21    20    18    1
    22    24    28   ar
    23    26    27   ar
    24     1     2   ar
    25     3     4   ar
    26     8    10    2
    27     5     7   ar
    28    20    21    2
    29    20    22    2
    30    18    19    1
    31     9    11    1
@<TRIPOS>MOLECULE
MolPort-008-284-647 57823172 MCULE-2288730744 PubChem-46966760 ZINC000057823172
 29 31 0 0 0
SMALL
GASTEIGER

@<TRIPOS>ATOM
      1 C          13.1834   38.7086   10.6790 C.ar    1  UNL1        0.0645
      2 C          13.1423   38.2366    9.3612 C.ar    1  UNL1        0.0171
      3 C          12.1674   38.7023    8.4772 C.ar    1  UNL1        0.0157
      4 C          11.2132   39.6341    8.8980 C.ar    1  UNL1        0.0464
      5 C          11.2717   40.1353   10.2177 C.ar    1  UNL1       -0.0071
      6 C          10.3662   41.2188   10.6949 C.3     1  UNL1        0.0324
      7 C          12.2533   39.6641   11.0955 C.ar    1  UNL1        0.0128
      8 C           9.1823   39.2873    7.4122 C.2     1  UNL1        0.2425
      9 N          10.2429   40.0870    7.9453 N.am    1  UNL1       -0.2830
     10 O           9.1590   38.0414    7.5990 O.2     1  UNL1       -0.2733
     11 H          10.3110   41.0185    7.6341 H       1  UNL1        0.1549
     12 C           8.1220   39.9308    6.5627 C.3     1  UNL1        0.1587
     13 C           8.9665   39.0678    4.4796 C.3     1  UNL1        0.0726
     14 C          10.2408   39.3879    3.7370 C.3     1  UNL1        0.0188
     15 C          10.8778   40.4819    4.5490 C.3     1  UNL1        0.0188
     16 C           9.7232   41.1653    5.2507 C.3     1  UNL1        0.0726
     17 N           8.5664   40.2716    5.2034 N.3     1  UNL1       -0.2650
     18 N          14.1717   38.2492   11.6048 N.pl3   1  UNL1       -0.2149
     19 H          13.9735   38.3148   12.5669 H       1  UNL1        0.1737
     20 S          15.6989   37.5832   11.1273 S.O2    1  UNL1        0.0763
     21 O          15.4670   36.4364   10.1839 O.2     1  UNL1       -0.1498
     22 O          16.4251   37.0795   12.3420 O.2     1  UNL1       -0.1498
     23 C          18.9382   37.6179   10.3032 C.3     1  UNL1        0.0554
     24 C          18.0171   38.7578   10.0432 C.ar    1  UNL1        0.0993
     25 C          17.3164   42.0176    8.8447 C.3     1  UNL1        0.1538
     26 C          16.2423   40.0612    9.9305 C.ar    1  UNL1        0.1165
     27 C          16.6729   38.8177   10.3468 C.ar    1  UNL1        0.1589
     28 N          18.3937   39.9109    9.4654 N.ar    1  UNL1       -0.1722
     29 N          17.3178   40.6797    9.4052 N.ar    1  UNL1       -0.2463
@<TRIPOS>BOND
     1    23    24    1
     2    25    29    1
     3    27    24   ar
     4     2     3   ar
     5     4     9    1
     6     4     5   ar
     7    12     8    1
     8    12    17    1
     9    13    17    1
    10    13    14    1
    11    14    15    1
    12    15    16    1
    13    16    17    1
    14     6     5    1
    15     7     1   ar
    16    29    28   ar
    17    29    26   ar
    18    18     1    1
    19     9     8   am
    20    20    27    1
    21    20    18    1
    22    24    28   ar
    23    26    27   ar
    24     1     2   ar
    25     3     4   ar
    26     8    10    2
    27     5     7   ar
    28    20    21    2
    29    20    22    2
    30    18    19    1
    31     9    11    1
