@<TRIPOS>MOLECULE
MolPort-019-854-921 57279312 CSSS03437773826 MCULE-8688354168 PubChem-52422320 ZINC000057279312 ZINC57279312
 22 23 0 0 0
SMALL
GASTEIGER

@<TRIPOS>ATOM
      1 C           9.7797   41.7067    8.3878 C.ar    1  UNL1        0.1570
      2 C          11.3268   40.7019    5.3584 C.3     1  UNL1        0.1552
      3 C          11.8100   41.6107    7.6505 C.ar    1  UNL1        0.1330
      4 C          11.0828   42.0368    8.7436 C.ar    1  UNL1        0.0596
      5 N           9.7434   41.1662    7.1521 N.ar    1  UNL1       -0.1635
      6 N          10.9858   41.1063    6.7119 N.ar    1  UNL1       -0.2354
      7 C          13.8465   42.9373    6.9033 C.2     1  UNL1        0.2566
      8 N          13.2229   41.7990    7.5074 N.am    1  UNL1       -0.2656
      9 O          13.1762   43.7278    6.1862 O.2     1  UNL1       -0.2692
     10 H          13.8119   41.0892    7.8517 H       1  UNL1        0.1566
     11 C          15.2871   43.1544    7.0745 C.ar    1  UNL1        0.0831
     12 C          16.1346   42.3817    7.8529 C.ar    1  UNL1        0.0116
     13 C          17.4617   42.8347    7.8236 C.ar    1  UNL1        0.0076
     14 C          17.6696   43.9599    7.0285 C.ar    1  UNL1        0.0356
     15 S          16.1826   44.3817    6.3645 S.2     1  UNL1       -0.0819
     16 C           8.5652   41.9650    9.1874 C.2     1  UNL1        0.2686
     17 N           7.4296   42.6788    8.6565 N.am    1  UNL1       -0.2748
     18 O           8.5234   41.5305   10.3706 O.2     1  UNL1       -0.2682
     19 C           6.8799   43.1074    6.3140 C.3     1  UNL1        0.0233
     20 C           7.5505   43.6406    7.5675 C.3     1  UNL1        0.0938
     21 C           6.1213   42.5449    9.2833 C.3     1  UNL1        0.0938
     22 C           5.4919   41.2165    8.9057 C.3     1  UNL1        0.0233
@<TRIPOS>BOND
     1    19    20    1
     2    20    17    1
     3    21    17    1
     4    21    22    1
     5    16     1    1
     6     2     6    1
     7     3     8    1
     8     7    11    1
     9    11    15   ar
    10    12    13   ar
    11    14    15   ar
    12     4     1   ar
    13    17    16   am
    14     6     5   ar
    15     6     3   ar
    16     8     7   am
    17    16    18    2
    18     1     5   ar
    19     3     4   ar
    20     7     9    2
    21    11    12   ar
    22    13    14   ar
    23     8    10    1
@<TRIPOS>MOLECULE
MolPort-019-854-921 57279312 CSSS03437773826 MCULE-8688354168 PubChem-52422320 ZINC000057279312 ZINC57279312
 22 23 0 0 0
SMALL
GASTEIGER

@<TRIPOS>ATOM
      1 C           9.9009   41.4795    7.3725 C.ar    1  UNL1        0.1570
      2 C          11.9323   38.8466    8.6062 C.3     1  UNL1        0.1552
      3 C          11.9978   41.2394    7.8422 C.ar    1  UNL1        0.1330
      4 C          11.1153   42.1533    7.3025 C.ar    1  UNL1        0.0596
      5 N          10.0701   40.2395    7.8768 N.ar    1  UNL1       -0.1635
      6 N          11.3503   40.1032    8.1655 N.ar    1  UNL1       -0.2354
      7 C          14.1748   42.2916    7.0554 C.2     1  UNL1        0.2566
      8 N          13.4129   41.4467    7.9244 N.am    1  UNL1       -0.2656
      9 O          13.6884   42.6894    5.9628 O.2     1  UNL1       -0.2692
     10 H          13.9001   40.9704    8.6350 H       1  UNL1        0.1566
     11 C          15.5512   42.6512    7.4127 C.ar    1  UNL1        0.0831
     12 C          16.3387   42.0035    8.3517 C.ar    1  UNL1        0.0116
     13 C          17.6124   42.5766    8.4795 C.ar    1  UNL1        0.0076
     14 C          17.8378   43.6725    7.6493 C.ar    1  UNL1        0.0356
     15 S          16.4332   43.9176    6.7564 S.2     1  UNL1       -0.0819
     16 C           8.5955   41.9831    6.9001 C.2     1  UNL1        0.2686
     17 N           7.7848   42.8809    7.6862 N.am    1  UNL1       -0.2748
     18 O           8.1897   41.6208    5.7623 O.2     1  UNL1       -0.2682
     19 C           8.6452   44.1738    9.5733 C.3     1  UNL1        0.0233
     20 C           7.8712   42.9414    9.1402 C.3     1  UNL1        0.0938
     21 C           6.7519   43.6855    7.0472 C.3     1  UNL1        0.0938
     22 C           5.5197   43.7554    7.9304 C.3     1  UNL1        0.0233
@<TRIPOS>BOND
     1    19    20    1
     2    20    17    1
     3    21    17    1
     4    21    22    1
     5    16     1    1
     6     2     6    1
     7     3     8    1
     8     7    11    1
     9    11    15   ar
    10    12    13   ar
    11    14    15   ar
    12     4     1   ar
    13    17    16   am
    14     6     5   ar
    15     6     3   ar
    16     8     7   am
    17    16    18    2
    18     1     5   ar
    19     3     4   ar
    20     7     9    2
    21    11    12   ar
    22    13    14   ar
    23     8    10    1
@<TRIPOS>MOLECULE
MolPort-019-854-921 57279312 CSSS03437773826 MCULE-8688354168 PubChem-52422320 ZINC000057279312 ZINC57279312
 22 23 0 0 0
SMALL
GASTEIGER

@<TRIPOS>ATOM
      1 C          10.0337   41.5362    8.5459 C.ar    1  UNL1        0.1570
      2 C          12.2511   38.7684    8.4914 C.3     1  UNL1        0.1552
      3 C          12.1800   41.2800    8.4942 C.ar    1  UNL1        0.1330
      4 C          11.2139   42.2646    8.4445 C.ar    1  UNL1        0.0596
      5 N          10.2915   40.2132    8.6051 N.ar    1  UNL1       -0.1635
      6 N          11.6025   40.0659    8.5784 N.ar    1  UNL1       -0.2354
      7 C          14.1929   42.2189    7.2562 C.2     1  UNL1        0.2566
      8 N          13.5837   41.5292    8.3529 N.am    1  UNL1       -0.2656
      9 O          13.5569   42.4015    6.1835 O.2     1  UNL1       -0.2692
     10 H          14.1765   41.2001    9.0668 H       1  UNL1        0.1566
     11 C          15.5857   42.6669    7.3614 C.ar    1  UNL1        0.0831
     12 C          16.5411   42.1435    8.2185 C.ar    1  UNL1        0.0116
     13 C          17.7859   42.7779    8.0954 C.ar    1  UNL1        0.0076
     14 C          17.8218   43.7990    7.1481 C.ar    1  UNL1        0.0356
     15 S          16.2865   43.9009    6.4679 S.2     1  UNL1       -0.0819
     16 C           8.6637   42.0870    8.5180 C.2     1  UNL1        0.2686
     17 N           7.6285   41.5374    7.6770 N.am    1  UNL1       -0.2748
     18 O           8.3953   43.0636    9.2695 O.2     1  UNL1       -0.2682
     19 C           6.9748   39.6383    6.2845 C.3     1  UNL1        0.0233
     20 C           7.9236   40.8125    6.4470 C.3     1  UNL1        0.0938
     21 C           6.2264   41.7971    7.9759 C.3     1  UNL1        0.0938
     22 C           5.8444   41.1575    9.2981 C.3     1  UNL1        0.0233
@<TRIPOS>BOND
     1    19    20    1
     2    20    17    1
     3    21    17    1
     4    21    22    1
     5    16     1    1
     6     2     6    1
     7     3     8    1
     8     7    11    1
     9    11    15   ar
    10    12    13   ar
    11    14    15   ar
    12     4     1   ar
    13    17    16   am
    14     6     5   ar
    15     6     3   ar
    16     8     7   am
    17    16    18    2
    18     1     5   ar
    19     3     4   ar
    20     7     9    2
    21    11    12   ar
    22    13    14   ar
    23     8    10    1
@<TRIPOS>MOLECULE
MolPort-019-854-921 57279312 CSSS03437773826 MCULE-8688354168 PubChem-52422320 ZINC000057279312 ZINC57279312
 22 23 0 0 0
SMALL
GASTEIGER

@<TRIPOS>ATOM
      1 C          13.2433   40.2000   10.3325 C.ar    1  UNL1        0.1570
      2 C          12.2686   42.2238    7.5875 C.3     1  UNL1        0.1552
      3 C          11.4292   41.2088    9.7273 C.ar    1  UNL1        0.1330
      4 C          11.9108   40.3547   10.6988 C.ar    1  UNL1        0.0596
      5 N          13.5101   40.8811    9.1987 N.ar    1  UNL1       -0.1635
      6 N          12.4003   41.4976    8.8394 N.ar    1  UNL1       -0.2354
      7 C           9.5889   42.9629    9.7713 C.2     1  UNL1        0.2566
      8 N          10.0598   41.6184    9.6301 N.am    1  UNL1       -0.2656
      9 O          10.3250   43.8472   10.2859 O.2     1  UNL1       -0.2692
     10 H           9.3894   40.9198    9.4522 H       1  UNL1        0.1566
     11 C           8.2206   43.3013    9.3654 C.ar    1  UNL1        0.0831
     12 C           7.8048   44.5247    8.8637 C.ar    1  UNL1        0.0116
     13 C           6.4346   44.5515    8.5657 C.ar    1  UNL1        0.0076
     14 C           5.7638   43.3588    8.8284 C.ar    1  UNL1        0.0356
     15 S           6.8971   42.2737    9.4353 S.2     1  UNL1       -0.0819
     16 C          14.2433   39.3550   11.0159 C.2     1  UNL1        0.2686
     17 N          15.6468   39.4009   10.6857 N.am    1  UNL1       -0.2748
     18 O          13.8487   38.5790   11.9284 O.2     1  UNL1       -0.2682
     19 C          17.1387   40.9444    9.5174 C.3     1  UNL1        0.0233
     20 C          16.1279   39.8204    9.3749 C.3     1  UNL1        0.0938
     21 C          16.6389   38.9074   11.6316 C.3     1  UNL1        0.0938
     22 C          17.2235   37.5951   11.1423 C.3     1  UNL1        0.0233
@<TRIPOS>BOND
     1    19    20    1
     2    20    17    1
     3    21    17    1
     4    21    22    1
     5    16     1    1
     6     2     6    1
     7     3     8    1
     8     7    11    1
     9    11    15   ar
    10    12    13   ar
    11    14    15   ar
    12     4     1   ar
    13    17    16   am
    14     6     5   ar
    15     6     3   ar
    16     8     7   am
    17    16    18    2
    18     1     5   ar
    19     3     4   ar
    20     7     9    2
    21    11    12   ar
    22    13    14   ar
    23     8    10    1
@<TRIPOS>MOLECULE
MolPort-019-854-921 57279312 CSSS03437773826 MCULE-8688354168 PubChem-52422320 ZINC000057279312 ZINC57279312
 22 23 0 0 0
SMALL
GASTEIGER

@<TRIPOS>ATOM
      1 C           8.2209   40.7539    6.2881 C.ar    1  UNL1        0.1570
      2 C          10.7076   39.9869    3.8780 C.3     1  UNL1        0.1552
      3 C          10.2365   41.4242    5.8844 C.ar    1  UNL1        0.1330
      4 C           9.1641   41.6826    6.7142 C.ar    1  UNL1        0.0596
      5 N           8.6939   40.0331    5.2503 N.ar    1  UNL1       -0.1635
      6 N           9.9251   40.4443    5.0139 N.ar    1  UNL1       -0.2354
      7 C          12.4237   42.1800    6.9382 C.2     1  UNL1        0.2566
      8 N          11.4512   42.1837    5.8876 N.am    1  UNL1       -0.2656
      9 O          12.1328   41.7243    8.0767 O.2     1  UNL1       -0.2692
     10 H          11.6315   42.7534    5.1052 H       1  UNL1        0.1566
     11 C          13.7499   42.7613    6.7044 C.ar    1  UNL1        0.0831
     12 C          14.9257   42.3694    7.3252 C.ar    1  UNL1        0.0116
     13 C          16.0371   43.1118    6.9001 C.ar    1  UNL1        0.0076
     14 C          15.7490   44.0878    5.9485 C.ar    1  UNL1        0.0356
     15 S          14.0960   44.0140    5.6446 S.2     1  UNL1       -0.0819
     16 C           6.8512   40.5961    6.8175 C.2     1  UNL1        0.2686
     17 N           6.4561   41.1190    8.1026 N.am    1  UNL1       -0.2748
     18 O           6.0004   39.9934    6.1080 O.2     1  UNL1       -0.2682
     19 C           7.5324   42.8239    9.4839 C.3     1  UNL1        0.0233
     20 C           7.4097   41.3408    9.1828 C.3     1  UNL1        0.0938
     21 C           5.0472   41.3345    8.4045 C.3     1  UNL1        0.0938
     22 C           4.7331   40.8585    9.8110 C.3     1  UNL1        0.0233
@<TRIPOS>BOND
     1    19    20    1
     2    20    17    1
     3    21    17    1
     4    21    22    1
     5    16     1    1
     6     2     6    1
     7     3     8    1
     8     7    11    1
     9    11    15   ar
    10    12    13   ar
    11    14    15   ar
    12     4     1   ar
    13    17    16   am
    14     6     5   ar
    15     6     3   ar
    16     8     7   am
    17    16    18    2
    18     1     5   ar
    19     3     4   ar
    20     7     9    2
    21    11    12   ar
    22    13    14   ar
    23     8    10    1
@<TRIPOS>MOLECULE
MolPort-019-854-921 57279312 CSSS03437773826 MCULE-8688354168 PubChem-52422320 ZINC000057279312 ZINC57279312
 22 23 0 0 0
SMALL
GASTEIGER

@<TRIPOS>ATOM
      1 C          12.5599   42.3717    7.0168 C.ar    1  UNL1        0.1570
      2 C          10.3890   39.6175    6.4858 C.3     1  UNL1        0.1552
      3 C          10.7063   41.6784    7.8878 C.ar    1  UNL1        0.1330
      4 C          11.6659   42.6585    8.0426 C.ar    1  UNL1        0.0596
      5 N          12.1725   41.2720    6.3379 N.ar    1  UNL1       -0.1635
      6 N          11.0389   40.8587    6.8718 N.ar    1  UNL1       -0.2354
      7 C           8.3682   42.2498    8.7075 C.2     1  UNL1        0.2566
      8 N           9.5899   41.5061    8.7688 N.am    1  UNL1       -0.2656
      9 O           8.3046   43.3212    8.0468 O.2     1  UNL1       -0.2692
     10 H           9.6692   40.8219    9.4723 H       1  UNL1        0.1566
     11 C           7.1981   41.7911    9.4641 C.ar    1  UNL1        0.0831
     12 C           7.1300   41.6497   10.8412 C.ar    1  UNL1        0.0116
     13 C           5.8795   41.1886   11.2780 C.ar    1  UNL1        0.0076
     14 C           4.9588   40.9639   10.2567 C.ar    1  UNL1        0.0356
     15 S           5.7210   41.3462    8.8065 S.2     1  UNL1       -0.0819
     16 C          13.8128   43.0966    6.7238 C.2     1  UNL1        0.2686
     17 N          15.1047   42.5988    7.1292 N.am    1  UNL1       -0.2748
     18 O          13.7419   44.1813    6.0844 O.2     1  UNL1       -0.2682
     19 C          16.6991   41.7751    8.7882 C.3     1  UNL1        0.0233
     20 C          15.2752   41.7024    8.2662 C.3     1  UNL1        0.0938
     21 C          16.3140   43.0795    6.4741 C.3     1  UNL1        0.0938
     22 C          16.4833   44.5688    6.7124 C.3     1  UNL1        0.0233
@<TRIPOS>BOND
     1    19    20    1
     2    20    17    1
     3    21    17    1
     4    21    22    1
     5    16     1    1
     6     2     6    1
     7     3     8    1
     8     7    11    1
     9    11    15   ar
    10    12    13   ar
    11    14    15   ar
    12     4     1   ar
    13    17    16   am
    14     6     5   ar
    15     6     3   ar
    16     8     7   am
    17    16    18    2
    18     1     5   ar
    19     3     4   ar
    20     7     9    2
    21    11    12   ar
    22    13    14   ar
    23     8    10    1
@<TRIPOS>MOLECULE
MolPort-019-854-921 57279312 CSSS03437773826 MCULE-8688354168 PubChem-52422320 ZINC000057279312 ZINC57279312
 22 23 0 0 0
SMALL
GASTEIGER

@<TRIPOS>ATOM
      1 C          13.9220   38.5160   10.8258 C.ar    1  UNL1        0.1570
      2 C          10.8938   36.9830    9.7962 C.3     1  UNL1        0.1552
      3 C          11.9001   39.1880   10.4583 C.ar    1  UNL1        0.1330
      4 C          13.1178   39.6465   10.9192 C.ar    1  UNL1        0.0596
      5 N          13.2111   37.4581   10.3834 N.ar    1  UNL1       -0.1635
      6 N          11.9808   37.8776   10.1566 N.ar    1  UNL1       -0.2354
      7 C          10.1718   40.6226    9.2665 C.2     1  UNL1        0.2566
      8 N          10.7067   39.9800   10.4285 N.am    1  UNL1       -0.2656
      9 O          10.8825   40.7764    8.2370 O.2     1  UNL1       -0.2692
     10 H          10.2154   40.0912   11.2744 H       1  UNL1        0.1566
     11 C           8.8054   41.1553    9.2933 C.ar    1  UNL1        0.0831
     12 C           8.2106   41.8029   10.3649 C.ar    1  UNL1        0.0116
     13 C           6.8921   42.1981   10.0958 C.ar    1  UNL1        0.0076
     14 C           6.4398   41.8675    8.8201 C.ar    1  UNL1        0.0356
     15 S           7.7006   41.0785    8.0340 S.2     1  UNL1       -0.0819
     16 C          15.3424   38.4212   11.2190 C.2     1  UNL1        0.2686
     17 N          16.3547   39.2892   10.6686 N.am    1  UNL1       -0.2748
     18 O          15.6701   37.5569   12.0770 O.2     1  UNL1       -0.2682
     19 C          16.9261   41.2619    9.3438 C.3     1  UNL1        0.0233
     20 C          16.2171   39.9194    9.3612 C.3     1  UNL1        0.0938
     21 C          17.6212   39.4720   11.3650 C.3     1  UNL1        0.0938
     22 C          18.6937   38.5975   10.7419 C.3     1  UNL1        0.0233
@<TRIPOS>BOND
     1    19    20    1
     2    20    17    1
     3    21    17    1
     4    21    22    1
     5    16     1    1
     6     2     6    1
     7     3     8    1
     8     7    11    1
     9    11    15   ar
    10    12    13   ar
    11    14    15   ar
    12     4     1   ar
    13    17    16   am
    14     6     5   ar
    15     6     3   ar
    16     8     7   am
    17    16    18    2
    18     1     5   ar
    19     3     4   ar
    20     7     9    2
    21    11    12   ar
    22    13    14   ar
    23     8    10    1
@<TRIPOS>MOLECULE
MolPort-019-854-921 57279312 CSSS03437773826 MCULE-8688354168 PubChem-52422320 ZINC000057279312 ZINC57279312
 22 23 0 0 0
SMALL
GASTEIGER

@<TRIPOS>ATOM
      1 C          14.3828   41.1755    8.3804 C.ar    1  UNL1        0.1570
      2 C          12.8039   38.6035   10.2438 C.3     1  UNL1        0.1552
      3 C          12.3575   40.4509    8.6002 C.ar    1  UNL1        0.1330
      4 C          13.0785   41.4566    7.9886 C.ar    1  UNL1        0.0596
      5 N          14.4157   40.1055    9.2016 N.ar    1  UNL1       -0.1635
      6 N          13.1777   39.6665    9.3261 N.ar    1  UNL1       -0.2354
      7 C          10.0177   41.1985    9.2571 C.2     1  UNL1        0.2566
      8 N          10.9294   40.3485    8.5531 N.am    1  UNL1       -0.2656
      9 O          10.4217   41.9209   10.2077 O.2     1  UNL1       -0.2692
     10 H          10.5444   39.6371    7.9919 H       1  UNL1        0.1566
     11 C           8.5934   41.1872    8.9065 C.ar    1  UNL1        0.0831
     12 C           8.0532   40.6843    7.7332 C.ar    1  UNL1        0.0116
     13 C           6.6578   40.8148    7.6789 C.ar    1  UNL1        0.0076
     14 C           6.0908   41.4174    8.7999 C.ar    1  UNL1        0.0356
     15 S           7.3473   41.7845    9.8566 S.2     1  UNL1       -0.0819
     16 C          15.5858   41.9586    8.0331 C.2     1  UNL1        0.2686
     17 N          15.5158   43.1852    7.2769 N.am    1  UNL1       -0.2748
     18 O          16.7080   41.5395    8.4274 O.2     1  UNL1       -0.2682
     19 C          14.9580   44.0796    5.0720 C.3     1  UNL1        0.0233
     20 C          14.4221   43.4752    6.3576 C.3     1  UNL1        0.0938
     21 C          16.6174   44.1376    7.3216 C.3     1  UNL1        0.0938
     22 C          17.7687   43.6492    6.4617 C.3     1  UNL1        0.0233
@<TRIPOS>BOND
     1    19    20    1
     2    20    17    1
     3    21    17    1
     4    21    22    1
     5    16     1    1
     6     2     6    1
     7     3     8    1
     8     7    11    1
     9    11    15   ar
    10    12    13   ar
    11    14    15   ar
    12     4     1   ar
    13    17    16   am
    14     6     5   ar
    15     6     3   ar
    16     8     7   am
    17    16    18    2
    18     1     5   ar
    19     3     4   ar
    20     7     9    2
    21    11    12   ar
    22    13    14   ar
    23     8    10    1
@<TRIPOS>MOLECULE
MolPort-019-854-921 57279312 CSSS03437773826 MCULE-8688354168 PubChem-52422320 ZINC000057279312 ZINC57279312
 22 23 0 0 0
SMALL
GASTEIGER

@<TRIPOS>ATOM
      1 C          17.1960   36.6867    9.3771 C.ar    1  UNL1        0.1570
      2 C          16.5590   40.1286    9.9502 C.3     1  UNL1        0.1552
      3 C          15.4299   37.9262    9.5162 C.ar    1  UNL1        0.1330
      4 C          15.8142   36.6312    9.2324 C.ar    1  UNL1        0.0596
      5 N          17.5955   37.9393    9.6803 N.ar    1  UNL1       -0.1635
      6 N          16.5123   38.6875    9.7685 N.ar    1  UNL1       -0.2354
      7 C          13.3242   38.9402   10.5179 C.2     1  UNL1        0.2566
      8 N          14.0796   38.3968    9.4299 N.am    1  UNL1       -0.2656
      9 O          13.7043   38.7705   11.7075 O.2     1  UNL1       -0.2692
     10 H          13.6358   38.3421    8.5528 H       1  UNL1        0.1566
     11 C          12.0698   39.6515   10.2494 C.ar    1  UNL1        0.0831
     12 C          11.4238   40.5105   11.1247 C.ar    1  UNL1        0.0116
     13 C          10.2406   41.0410   10.5899 C.ar    1  UNL1        0.0076
     14 C           9.9461   40.6075    9.2989 C.ar    1  UNL1        0.0356
     15 S          11.1756   39.5577    8.8338 S.2     1  UNL1       -0.0819
     16 C          18.1410   35.5724    9.1619 C.2     1  UNL1        0.2686
     17 N          18.9975   35.0740   10.2103 N.am    1  UNL1       -0.2748
     18 O          18.1838   35.0349    8.0218 O.2     1  UNL1       -0.2682
     19 C          19.6523   35.0367   12.5647 C.3     1  UNL1        0.0233
     20 C          19.4132   35.8991   11.3381 C.3     1  UNL1        0.0938
     21 C          19.5793   33.7421   10.1105 C.3     1  UNL1        0.0938
     22 C          19.6498   33.0960   11.4820 C.3     1  UNL1        0.0233
@<TRIPOS>BOND
     1    19    20    1
     2    20    17    1
     3    21    17    1
     4    21    22    1
     5    16     1    1
     6     2     6    1
     7     3     8    1
     8     7    11    1
     9    11    15   ar
    10    12    13   ar
    11    14    15   ar
    12     4     1   ar
    13    17    16   am
    14     6     5   ar
    15     6     3   ar
    16     8     7   am
    17    16    18    2
    18     1     5   ar
    19     3     4   ar
    20     7     9    2
    21    11    12   ar
    22    13    14   ar
    23     8    10    1
@<TRIPOS>MOLECULE
MolPort-019-854-921 57279312 CSSS03437773826 MCULE-8688354168 PubChem-52422320 ZINC000057279312 ZINC57279312
 22 23 0 0 0
SMALL
GASTEIGER

@<TRIPOS>ATOM
      1 C          13.2676   41.6727    7.6965 C.ar    1  UNL1        0.1570
      2 C          10.2255   41.5023    5.8808 C.3     1  UNL1        0.1552
      3 C          11.1787   41.4421    8.2048 C.ar    1  UNL1        0.1330
      4 C          12.4313   41.4493    8.7848 C.ar    1  UNL1        0.0596
      5 N          12.5556   41.7457    6.5528 N.ar    1  UNL1       -0.1635
      6 N          11.2826   41.6095    6.8722 N.ar    1  UNL1       -0.2354
      7 C           9.1502   42.1595    9.5599 C.2     1  UNL1        0.2566
      8 N           9.9675   41.1729    8.9209 N.am    1  UNL1       -0.2656
      9 O           9.6014   43.3144    9.7857 O.2     1  UNL1       -0.2692
     10 H           9.6739   40.2350    8.9782 H       1  UNL1        0.1566
     11 C           7.7977   41.8070   10.0049 C.ar    1  UNL1        0.0831
     12 C           6.7339   41.4798    9.1787 C.ar    1  UNL1        0.0116
     13 C           5.5616   41.1911    9.8925 C.ar    1  UNL1        0.0076
     14 C           5.6903   41.2881   11.2764 C.ar    1  UNL1        0.0356
     15 S           7.2793   41.7370   11.5982 S.2     1  UNL1       -0.0819
     16 C          14.7421   41.7486    7.7308 C.2     1  UNL1        0.2686
     17 N          15.4745   42.8152    7.0928 N.am    1  UNL1       -0.2748
     18 O          15.3738   40.8522    8.3536 O.2     1  UNL1       -0.2682
     19 C          15.4383   44.9949    5.9880 C.3     1  UNL1        0.0233
     20 C          14.9408   43.5607    5.9594 C.3     1  UNL1        0.0938
     21 C          16.8443   43.1064    7.4948 C.3     1  UNL1        0.0938
     22 C          17.1833   42.3682    8.7767 C.3     1  UNL1        0.0233
@<TRIPOS>BOND
     1    19    20    1
     2    20    17    1
     3    21    17    1
     4    21    22    1
     5    16     1    1
     6     2     6    1
     7     3     8    1
     8     7    11    1
     9    11    15   ar
    10    12    13   ar
    11    14    15   ar
    12     4     1   ar
    13    17    16   am
    14     6     5   ar
    15     6     3   ar
    16     8     7   am
    17    16    18    2
    18     1     5   ar
    19     3     4   ar
    20     7     9    2
    21    11    12   ar
    22    13    14   ar
    23     8    10    1
