@<TRIPOS>MOLECULE
MolPort-010-852-196 41076408 ChemDiv-G952-1299 MCULE-1760288747 PubChem-52095940 ZINC000041076408 ZINC41076408
 25 27 0 0 0
SMALL
GASTEIGER

@<TRIPOS>ATOM
      1 C          11.2441   42.1811    9.5213 C.2     1  UNL1        0.2721
      2 N          12.0526   41.5540    8.5194 N.am    1  UNL1       -0.2597
      3 O          11.2068   43.4335    9.6428 O.2     1  UNL1       -0.2707
      4 H          12.0084   40.5720    8.4638 H       1  UNL1        0.1569
      5 C          15.8488   43.9143    6.6704 C.ar    1  UNL1        0.1643
      6 C          14.0643   43.2456    5.7877 C.ar    1  UNL1        0.2195
      7 C          12.9195   42.2151    7.5903 C.ar    1  UNL1        0.1880
      8 N          15.8828   44.2557    5.3535 N.ar    1  UNL1       -0.1310
      9 N          14.7447   43.8320    4.7881 N.ar    1  UNL1       -0.1202
     10 N          14.1249   42.7233    7.9740 N.ar    1  UNL1       -0.1400
     11 N          14.7047   43.2800    6.9235 N.ar    1  UNL1       -0.1881
     12 S          12.5843   42.4729    5.9095 S.2     1  UNL1       -0.0111
     13 C          16.9295   44.1793    7.6666 C.3     1  UNL1        0.0677
     14 C          18.0396   41.9706    8.0120 C.3     1  UNL1        0.0005
     15 C          17.1028   43.0019    8.6121 C.3     1  UNL1        0.0080
     16 C          10.4360   41.3346   10.4441 C.3     1  UNL1        0.2897
     17 O           9.3600   42.0890   10.9940 O.3     1  UNL1       -0.4656
     18 C           8.0694   42.0946   10.4534 C.ar    1  UNL1        0.1387
     19 C           7.8549   42.7188    9.2198 C.ar    1  UNL1        0.0326
     20 C           6.5771   42.7423    8.6526 C.ar    1  UNL1       -0.0192
     21 C           6.3586   43.4066    7.3416 C.3     1  UNL1        0.0311
     22 C           5.5053   42.1409    9.3183 C.ar    1  UNL1       -0.0083
     23 C           5.7106   41.5167   10.5517 C.ar    1  UNL1       -0.0192
     24 C           4.5719   40.8774   11.2603 C.3     1  UNL1        0.0311
     25 C           6.9879   41.4938   11.1188 C.ar    1  UNL1        0.0326
@<TRIPOS>BOND
     1    14    15    1
     2    15    13    1
     3    13     5    1
     4     6    12   ar
     5     7    12   ar
     6     7     2    1
     7    16     1    1
     8    16    17    1
     9    18    17    1
    10    19    20   ar
    11    21    20    1
    12    22    23   ar
    13    24    23    1
    14    25    18   ar
    15     8     9   ar
    16     2     1   am
    17    11    10   ar
    18    11     5   ar
    19    11     6   ar
    20     5     8   ar
    21     6     9   ar
    22     7    10   ar
    23     1     3    2
    24    18    19   ar
    25    20    22   ar
    26    23    25   ar
    27     2     4    1
@<TRIPOS>MOLECULE
MolPort-010-852-196 41076408 ChemDiv-G952-1299 MCULE-1760288747 PubChem-52095940 ZINC000041076408 ZINC41076408
 25 27 0 0 0
SMALL
GASTEIGER

@<TRIPOS>ATOM
      1 C          11.4030   41.8598    9.5027 C.2     1  UNL1        0.2721
      2 N          12.2017   41.3465    8.4306 N.am    1  UNL1       -0.2597
      3 O          11.3212   43.0963    9.7239 O.2     1  UNL1       -0.2707
      4 H          12.1937   40.3709    8.2988 H       1  UNL1        0.1569
      5 C          15.8603   43.9614    6.6482 C.ar    1  UNL1        0.1643
      6 C          14.0500   43.3366    5.7862 C.ar    1  UNL1        0.2195
      7 C          13.0110   42.1131    7.5312 C.ar    1  UNL1        0.1880
      8 N          15.8261   44.4265    5.3698 N.ar    1  UNL1       -0.1310
      9 N          14.6714   44.0311    4.8178 N.ar    1  UNL1       -0.1202
     10 N          14.2229   42.6115    7.9076 N.ar    1  UNL1       -0.1400
     11 N          14.7420   43.2788    6.8904 N.ar    1  UNL1       -0.1881
     12 S          12.5928   42.5206    5.8994 S.2     1  UNL1       -0.0111
     13 C          16.9809   44.1569    7.6160 C.3     1  UNL1        0.0677
     14 C          17.5046   41.9462    8.6496 C.3     1  UNL1        0.0005
     15 C          17.9250   42.9657    7.6079 C.3     1  UNL1        0.0080
     16 C          10.6592   40.9115   10.3794 C.3     1  UNL1        0.2897
     17 O          10.8007   39.5779    9.8990 O.3     1  UNL1       -0.4656
     18 C          11.8232   38.7163   10.3113 C.ar    1  UNL1        0.1387
     19 C          11.6955   37.3457   10.0610 C.ar    1  UNL1        0.0326
     20 C          12.6992   36.4581   10.4605 C.ar    1  UNL1       -0.0192
     21 C          12.5559   35.0042   10.1896 C.3     1  UNL1        0.0311
     22 C          13.8375   36.9379   11.1146 C.ar    1  UNL1       -0.0083
     23 C          13.9720   38.3052   11.3701 C.ar    1  UNL1       -0.0192
     24 C          15.1815   38.8163   12.0656 C.3     1  UNL1        0.0311
     25 C          12.9684   39.1924   10.9711 C.ar    1  UNL1        0.0326
@<TRIPOS>BOND
     1    14    15    1
     2    15    13    1
     3    13     5    1
     4     6    12   ar
     5     7    12   ar
     6     7     2    1
     7    16     1    1
     8    16    17    1
     9    18    17    1
    10    19    20   ar
    11    21    20    1
    12    22    23   ar
    13    24    23    1
    14    25    18   ar
    15     8     9   ar
    16     2     1   am
    17    11    10   ar
    18    11     5   ar
    19    11     6   ar
    20     5     8   ar
    21     6     9   ar
    22     7    10   ar
    23     1     3    2
    24    18    19   ar
    25    20    22   ar
    26    23    25   ar
    27     2     4    1
@<TRIPOS>MOLECULE
MolPort-010-852-196 41076408 ChemDiv-G952-1299 MCULE-1760288747 PubChem-52095940 ZINC000041076408 ZINC41076408
 25 27 0 0 0
SMALL
GASTEIGER

@<TRIPOS>ATOM
      1 C          11.9163   41.2710    6.5115 C.2     1  UNL1        0.2721
      2 N          12.5549   42.4073    5.9181 N.am    1  UNL1       -0.2597
      3 O          12.4682   40.6187    7.4359 O.2     1  UNL1       -0.2707
      4 H          12.0505   42.8865    5.2216 H       1  UNL1        0.1569
      5 C          16.9503   42.8417    7.8910 C.ar    1  UNL1        0.1643
      6 C          15.9119   44.0584    6.5302 C.ar    1  UNL1        0.2195
      7 C          13.8554   42.9149    6.2385 C.ar    1  UNL1        0.1880
      8 N          17.7518   43.8967    7.5809 N.ar    1  UNL1       -0.1310
      9 N          17.0913   44.6758    6.7143 N.ar    1  UNL1       -0.1202
     10 N          14.6818   42.2669    7.1079 N.ar    1  UNL1       -0.1400
     11 N          15.8041   42.9577    7.2216 N.ar    1  UNL1       -0.1881
     12 S          14.5494   44.3734    5.6099 S.2     1  UNL1       -0.0111
     13 C          17.3059   41.7184    8.8089 C.3     1  UNL1        0.0677
     14 C          16.4549   39.7422   10.0739 C.3     1  UNL1        0.0005
     15 C          16.0696   40.9360    9.2207 C.3     1  UNL1        0.0080
     16 C          10.5747   40.8470    6.0203 C.3     1  UNL1        0.2897
     17 O           9.8052   40.3030    7.0885 O.3     1  UNL1       -0.4656
     18 C           8.9868   41.0768    7.9187 C.ar    1  UNL1        0.1387
     19 C           7.6240   40.7710    8.0012 C.ar    1  UNL1        0.0326
     20 C           6.7792   41.5251    8.8213 C.ar    1  UNL1       -0.0192
     21 C           5.3333   41.1926    8.9037 C.3     1  UNL1        0.0311
     22 C           7.2942   42.5915    9.5637 C.ar    1  UNL1       -0.0083
     23 C           8.6539   42.9047    9.4857 C.ar    1  UNL1       -0.0192
     24 C           9.2023   44.0383   10.2743 C.3     1  UNL1        0.0311
     25 C           9.4982   42.1512    8.6655 C.ar    1  UNL1        0.0326
@<TRIPOS>BOND
     1    14    15    1
     2    15    13    1
     3    13     5    1
     4     6    12   ar
     5     7    12   ar
     6     7     2    1
     7    16     1    1
     8    16    17    1
     9    18    17    1
    10    19    20   ar
    11    21    20    1
    12    22    23   ar
    13    24    23    1
    14    25    18   ar
    15     8     9   ar
    16     2     1   am
    17    11    10   ar
    18    11     5   ar
    19    11     6   ar
    20     5     8   ar
    21     6     9   ar
    22     7    10   ar
    23     1     3    2
    24    18    19   ar
    25    20    22   ar
    26    23    25   ar
    27     2     4    1
@<TRIPOS>MOLECULE
MolPort-010-852-196 41076408 ChemDiv-G952-1299 MCULE-1760288747 PubChem-52095940 ZINC000041076408 ZINC41076408
 25 27 0 0 0
SMALL
GASTEIGER

@<TRIPOS>ATOM
      1 C           9.2971   40.9983    6.9016 C.2     1  UNL1        0.2721
      2 N          10.4635   40.2013    7.1366 N.am    1  UNL1       -0.2597
      3 O           9.3716   42.2498    6.7881 O.2     1  UNL1       -0.2707
      4 H          10.3330   39.2267    7.1839 H       1  UNL1        0.1569
      5 C          14.9989   40.6611    8.7551 C.ar    1  UNL1        0.1643
      6 C          13.9147   41.7577    7.3295 C.ar    1  UNL1        0.2195
      7 C          11.8013   40.6830    7.3095 C.ar    1  UNL1        0.1880
      8 N          15.8160   41.6355    8.2707 N.ar    1  UNL1       -0.1310
      9 N          15.1264   42.3380    7.3622 N.ar    1  UNL1       -0.1202
     10 N          12.6613   40.1033    8.1944 N.ar    1  UNL1       -0.1400
     11 N          13.8140   40.7507    8.1523 N.ar    1  UNL1       -0.1881
     12 S          12.5042   42.0255    6.4685 S.2     1  UNL1       -0.0111
     13 C          15.3750   39.6369    9.7751 C.3     1  UNL1        0.0677
     14 C          14.8044   38.6821   12.0095 C.3     1  UNL1        0.0005
     15 C          14.2969   39.5014   10.8379 C.3     1  UNL1        0.0080
     16 C           7.9670   40.3345    6.7965 C.3     1  UNL1        0.2897
     17 O           6.9320   41.2356    7.1786 O.3     1  UNL1       -0.4656
     18 C           6.4130   41.3052    8.4762 C.ar    1  UNL1        0.1387
     19 C           7.2961   41.4508    9.5515 C.ar    1  UNL1        0.0326
     20 C           6.8097   41.5230   10.8604 C.ar    1  UNL1       -0.0192
     21 C           7.7547   41.6787   11.9964 C.3     1  UNL1        0.0311
     22 C           5.4347   41.4489   11.1006 C.ar    1  UNL1       -0.0083
     23 C           4.5459   41.3018   10.0322 C.ar    1  UNL1       -0.0192
     24 C           3.0841   41.2227   10.2865 C.3     1  UNL1        0.0311
     25 C           5.0323   41.2291    8.7240 C.ar    1  UNL1        0.0326
@<TRIPOS>BOND
     1    14    15    1
     2    15    13    1
     3    13     5    1
     4     6    12   ar
     5     7    12   ar
     6     7     2    1
     7    16     1    1
     8    16    17    1
     9    18    17    1
    10    19    20   ar
    11    21    20    1
    12    22    23   ar
    13    24    23    1
    14    25    18   ar
    15     8     9   ar
    16     2     1   am
    17    11    10   ar
    18    11     5   ar
    19    11     6   ar
    20     5     8   ar
    21     6     9   ar
    22     7    10   ar
    23     1     3    2
    24    18    19   ar
    25    20    22   ar
    26    23    25   ar
    27     2     4    1
@<TRIPOS>MOLECULE
MolPort-010-852-196 41076408 ChemDiv-G952-1299 MCULE-1760288747 PubChem-52095940 ZINC000041076408 ZINC41076408
 25 27 0 0 0
SMALL
GASTEIGER

@<TRIPOS>ATOM
      1 C          10.0103   41.8279    7.3130 C.2     1  UNL1        0.2721
      2 N          11.1763   41.5401    6.5330 N.am    1  UNL1       -0.2597
      3 O          10.1016   42.2759    8.4859 O.2     1  UNL1       -0.2707
      4 H          11.0277   41.2213    5.6135 H       1  UNL1        0.1569
      5 C          15.3513   40.7617    8.8490 C.ar    1  UNL1        0.1643
      6 C          14.8015   42.2013    7.4222 C.ar    1  UNL1        0.2195
      7 C          12.5375   41.6706    6.9593 C.ar    1  UNL1        0.1880
      8 N          16.4362   41.5484    8.6128 N.ar    1  UNL1       -0.1310
      9 N          16.0879   42.4691    7.7042 N.ar    1  UNL1       -0.1202
     10 N          13.0808   40.8298    7.8848 N.ar    1  UNL1       -0.1400
     11 N          14.3384   41.1829    8.0928 N.ar    1  UNL1       -0.1881
     12 S          13.6565   42.8705    6.4008 S.2     1  UNL1       -0.0111
     13 C          15.3078   39.5958    9.7815 C.3     1  UNL1        0.0677
     14 C          14.3263   38.7410   11.9112 C.3     1  UNL1        0.0005
     15 C          14.1634   39.7302   10.7727 C.3     1  UNL1        0.0080
     16 C           8.6611   41.5856    6.7280 C.3     1  UNL1        0.2897
     17 O           7.8791   42.7751    6.7767 O.3     1  UNL1       -0.4656
     18 C           6.7663   42.9304    7.6106 C.ar    1  UNL1        0.1387
     19 C           5.8199   43.9131    7.3006 C.ar    1  UNL1        0.0326
     20 C           4.6970   44.0941    8.1138 C.ar    1  UNL1       -0.0192
     21 C           3.6963   45.1395    7.7764 C.3     1  UNL1        0.0311
     22 C           4.5153   43.2919    9.2439 C.ar    1  UNL1       -0.0083
     23 C           5.4567   42.3092    9.5617 C.ar    1  UNL1       -0.0192
     24 C           5.2646   41.4561   10.7630 C.3     1  UNL1        0.0311
     25 C           6.5794   42.1287    8.7490 C.ar    1  UNL1        0.0326
@<TRIPOS>BOND
     1    14    15    1
     2    15    13    1
     3    13     5    1
     4     6    12   ar
     5     7    12   ar
     6     7     2    1
     7    16     1    1
     8    16    17    1
     9    18    17    1
    10    19    20   ar
    11    21    20    1
    12    22    23   ar
    13    24    23    1
    14    25    18   ar
    15     8     9   ar
    16     2     1   am
    17    11    10   ar
    18    11     5   ar
    19    11     6   ar
    20     5     8   ar
    21     6     9   ar
    22     7    10   ar
    23     1     3    2
    24    18    19   ar
    25    20    22   ar
    26    23    25   ar
    27     2     4    1
@<TRIPOS>MOLECULE
MolPort-010-852-196 41076408 ChemDiv-G952-1299 MCULE-1760288747 PubChem-52095940 ZINC000041076408 ZINC41076408
 25 27 0 0 0
SMALL
GASTEIGER

@<TRIPOS>ATOM
      1 C           9.2382   41.7667    6.9018 C.2     1  UNL1        0.2721
      2 N           8.5397   42.0434    8.1210 N.am    1  UNL1       -0.2597
      3 O           8.7893   42.1482    5.7893 O.2     1  UNL1       -0.2707
      4 H           8.9659   41.7409    8.9553 H       1  UNL1        0.1569
      5 C           3.8759   42.9106    9.0689 C.ar    1  UNL1        0.1643
      6 C           5.3885   44.1437    8.2930 C.ar    1  UNL1        0.2195
      7 C           7.2817   42.7170    8.2457 C.ar    1  UNL1        0.1880
      8 N           3.3344   44.1373    8.8372 N.ar    1  UNL1       -0.1310
      9 N           4.2966   44.9257    8.3404 N.ar    1  UNL1       -0.1202
     10 N           6.1754   42.0826    8.7276 N.ar    1  UNL1       -0.1400
     11 N           5.1631   42.9340    8.7255 N.ar    1  UNL1       -0.1881
     12 S           6.9765   44.3673    7.8128 S.2     1  UNL1       -0.0111
     13 C           3.1552   41.7351    9.6429 C.3     1  UNL1        0.0677
     14 C           4.0684   40.2584   11.4360 C.3     1  UNL1        0.0005
     15 C           3.4281   41.5996   11.1320 C.3     1  UNL1        0.0080
     16 C          10.5185   41.0055    6.9493 C.3     1  UNL1        0.2897
     17 O          11.5322   41.6952    6.2241 O.3     1  UNL1       -0.4656
     18 C          12.8307   41.8855    6.7094 C.ar    1  UNL1        0.1387
     19 C          13.6184   42.9006    6.1556 C.ar    1  UNL1        0.0326
     20 C          14.9201   43.1164    6.6179 C.ar    1  UNL1       -0.0192
     21 C          15.7493   44.1974    6.0247 C.3     1  UNL1        0.0311
     22 C          15.4419   42.3158    7.6379 C.ar    1  UNL1       -0.0083
     23 C          14.6624   41.2986    8.1953 C.ar    1  UNL1       -0.0192
     24 C          15.2161   40.4468    9.2795 C.3     1  UNL1        0.0311
     25 C          13.3613   41.0826    7.7328 C.ar    1  UNL1        0.0326
@<TRIPOS>BOND
     1    14    15    1
     2    15    13    1
     3    13     5    1
     4     6    12   ar
     5     7    12   ar
     6     7     2    1
     7    16     1    1
     8    16    17    1
     9    18    17    1
    10    19    20   ar
    11    21    20    1
    12    22    23   ar
    13    24    23    1
    14    25    18   ar
    15     8     9   ar
    16     2     1   am
    17    11    10   ar
    18    11     5   ar
    19    11     6   ar
    20     5     8   ar
    21     6     9   ar
    22     7    10   ar
    23     1     3    2
    24    18    19   ar
    25    20    22   ar
    26    23    25   ar
    27     2     4    1
@<TRIPOS>MOLECULE
MolPort-010-852-196 41076408 ChemDiv-G952-1299 MCULE-1760288747 PubChem-52095940 ZINC000041076408 ZINC41076408
 25 27 0 0 0
SMALL
GASTEIGER

@<TRIPOS>ATOM
      1 C           9.3323   41.7361    6.7927 C.2     1  UNL1        0.2721
      2 N           8.6918   41.9313    8.0586 N.am    1  UNL1       -0.2597
      3 O           8.7864   42.1034    5.7195 O.2     1  UNL1       -0.2707
      4 H           9.1916   41.6467    8.8576 H       1  UNL1        0.1569
      5 C           3.9872   42.3580    9.1003 C.ar    1  UNL1        0.1643
      6 C           5.4182   43.7844    8.5275 C.ar    1  UNL1        0.2195
      7 C           7.3953   42.5000    8.2764 C.ar    1  UNL1        0.1880
      8 N           3.3704   43.5701    9.0531 N.ar    1  UNL1       -0.1310
      9 N           4.2805   44.4819    8.6861 N.ar    1  UNL1       -0.1202
     10 N           6.3319   41.7336    8.6510 N.ar    1  UNL1       -0.1400
     11 N           5.2692   42.5118    8.7716 N.ar    1  UNL1       -0.1881
     12 S           6.9876   44.1748    8.0953 S.2     1  UNL1       -0.0111
     13 C           3.3422   41.0675    9.4866 C.3     1  UNL1        0.0677
     14 C           4.8906   41.1565   11.4422 C.3     1  UNL1        0.0005
     15 C           3.4898   40.8064   10.9767 C.3     1  UNL1        0.0080
     16 C          10.6687   41.0784    6.7431 C.3     1  UNL1        0.2897
     17 O          11.6214   41.9380    6.1248 O.3     1  UNL1       -0.4656
     18 C          12.9251   42.1114    6.6026 C.ar    1  UNL1        0.1387
     19 C          13.3957   41.2613    7.6092 C.ar    1  UNL1        0.0326
     20 C          14.6934   41.4084    8.1086 C.ar    1  UNL1       -0.0192
     21 C          15.1854   40.5005    9.1769 C.3     1  UNL1        0.0311
     22 C          15.5280   42.4092    7.6031 C.ar    1  UNL1       -0.0083
     23 C          15.0651   43.2636    6.5988 C.ar    1  UNL1       -0.0192
     24 C          15.9515   44.3280    6.0610 C.3     1  UNL1        0.0311
     25 C          13.7678   43.1168    6.1000 C.ar    1  UNL1        0.0326
@<TRIPOS>BOND
     1    14    15    1
     2    15    13    1
     3    13     5    1
     4     6    12   ar
     5     7    12   ar
     6     7     2    1
     7    16     1    1
     8    16    17    1
     9    18    17    1
    10    19    20   ar
    11    21    20    1
    12    22    23   ar
    13    24    23    1
    14    25    18   ar
    15     8     9   ar
    16     2     1   am
    17    11    10   ar
    18    11     5   ar
    19    11     6   ar
    20     5     8   ar
    21     6     9   ar
    22     7    10   ar
    23     1     3    2
    24    18    19   ar
    25    20    22   ar
    26    23    25   ar
    27     2     4    1
@<TRIPOS>MOLECULE
MolPort-010-852-196 41076408 ChemDiv-G952-1299 MCULE-1760288747 PubChem-52095940 ZINC000041076408 ZINC41076408
 25 27 0 0 0
SMALL
GASTEIGER

@<TRIPOS>ATOM
      1 C          10.1728   41.6318   10.7472 C.2     1  UNL1        0.2721
      2 N          10.9228   40.4149   10.6615 N.am    1  UNL1       -0.2597
      3 O          10.7190   42.7514   10.5659 O.2     1  UNL1       -0.2707
      4 H          10.4230   39.5757   10.7848 H       1  UNL1        0.1569
      5 C          15.3160   41.1004    8.7560 C.ar    1  UNL1        0.1643
      6 C          14.6486   39.8253   10.2855 C.ar    1  UNL1        0.2195
      7 C          12.3289   40.2987   10.4140 C.ar    1  UNL1        0.1880
      8 N          16.3909   40.4033    9.2148 N.ar    1  UNL1       -0.1310
      9 N          15.9678   39.5875   10.1895 N.ar    1  UNL1       -0.1202
     10 N          12.9502   41.0428    9.4553 N.ar    1  UNL1       -0.1400
     11 N          14.2348   40.7281    9.4399 N.ar    1  UNL1       -0.1881
     12 S          13.4130   39.2340   11.2477 S.2     1  UNL1       -0.0111
     13 C          15.3450   42.1371    7.6812 C.3     1  UNL1        0.0677
     14 C          14.0573   43.2473    5.8539 C.3     1  UNL1        0.0005
     15 C          14.0576   42.1239    6.8734 C.3     1  UNL1        0.0080
     16 C           8.7179   41.5731   11.0646 C.3     1  UNL1        0.2897
     17 O           7.9460   41.6738    9.8716 O.3     1  UNL1       -0.4656
     18 C           6.6182   42.1148    9.8495 C.ar    1  UNL1        0.1387
     19 C           6.2408   43.0789    8.9086 C.ar    1  UNL1        0.0326
     20 C           4.9220   43.5409    8.8606 C.ar    1  UNL1       -0.0192
     21 C           4.5296   44.5643    7.8573 C.3     1  UNL1        0.0311
     22 C           3.9725   43.0404    9.7559 C.ar    1  UNL1       -0.0083
     23 C           4.3417   42.0784   10.7000 C.ar    1  UNL1       -0.0192
     24 C           3.3332   41.5459   11.6524 C.3     1  UNL1        0.0311
     25 C           5.6601   41.6170   10.7483 C.ar    1  UNL1        0.0326
@<TRIPOS>BOND
     1    14    15    1
     2    15    13    1
     3    13     5    1
     4     6    12   ar
     5     7    12   ar
     6     7     2    1
     7    16     1    1
     8    16    17    1
     9    18    17    1
    10    19    20   ar
    11    21    20    1
    12    22    23   ar
    13    24    23    1
    14    25    18   ar
    15     8     9   ar
    16     2     1   am
    17    11    10   ar
    18    11     5   ar
    19    11     6   ar
    20     5     8   ar
    21     6     9   ar
    22     7    10   ar
    23     1     3    2
    24    18    19   ar
    25    20    22   ar
    26    23    25   ar
    27     2     4    1
@<TRIPOS>MOLECULE
MolPort-010-852-196 41076408 ChemDiv-G952-1299 MCULE-1760288747 PubChem-52095940 ZINC000041076408 ZINC41076408
 25 27 0 0 0
SMALL
GASTEIGER

@<TRIPOS>ATOM
      1 C           9.9986   42.6920   10.2893 C.2     1  UNL1        0.2721
      2 N          10.5512   41.4731    9.7795 N.am    1  UNL1       -0.2597
      3 O          10.7252   43.6937   10.5202 O.2     1  UNL1       -0.2707
      4 H           9.9183   40.7421    9.5943 H       1  UNL1        0.1569
      5 C          15.0596   39.7683   10.1899 C.ar    1  UNL1        0.1643
      6 C          14.1750   41.0266    8.7600 C.ar    1  UNL1        0.2195
      7 C          11.9343   41.2132    9.5125 C.ar    1  UNL1        0.1880
      8 N          16.0117   40.0885    9.2719 N.ar    1  UNL1       -0.1310
      9 N          15.4507   40.8928    8.3593 N.ar    1  UNL1       -0.1202
     10 N          12.6837   40.4202   10.3299 N.ar    1  UNL1       -0.1400
     11 N          13.9156   40.3617    9.8518 N.ar    1  UNL1       -0.1881
     12 S          12.8374   41.8458    8.1753 S.2     1  UNL1       -0.0111
     13 C          15.2539   38.8733   11.3697 C.3     1  UNL1        0.0677
     14 C          14.0432   36.7129   11.0583 C.3     1  UNL1        0.0005
     15 C          13.9859   38.0952   11.6809 C.3     1  UNL1        0.0080
     16 C           8.5353   42.7747   10.5593 C.3     1  UNL1        0.2897
     17 O           7.8044   42.7601    9.3368 O.3     1  UNL1       -0.4656
     18 C           6.4070   42.7198    9.2766 C.ar    1  UNL1        0.1387
     19 C           5.7254   43.7731    8.6573 C.ar    1  UNL1        0.0326
     20 C           4.3293   43.7631    8.5810 C.ar    1  UNL1       -0.0192
     21 C           3.6136   44.8854    7.9205 C.3     1  UNL1        0.0311
     22 C           3.6066   42.6979    9.1256 C.ar    1  UNL1       -0.0083
     23 C           4.2796   41.6427    9.7474 C.ar    1  UNL1       -0.0192
     24 C           3.5123   40.5099   10.3268 C.3     1  UNL1        0.0311
     25 C           5.6751   41.6529    9.8241 C.ar    1  UNL1        0.0326
@<TRIPOS>BOND
     1    14    15    1
     2    15    13    1
     3    13     5    1
     4     6    12   ar
     5     7    12   ar
     6     7     2    1
     7    16     1    1
     8    16    17    1
     9    18    17    1
    10    19    20   ar
    11    21    20    1
    12    22    23   ar
    13    24    23    1
    14    25    18   ar
    15     8     9   ar
    16     2     1   am
    17    11    10   ar
    18    11     5   ar
    19    11     6   ar
    20     5     8   ar
    21     6     9   ar
    22     7    10   ar
    23     1     3    2
    24    18    19   ar
    25    20    22   ar
    26    23    25   ar
    27     2     4    1
@<TRIPOS>MOLECULE
MolPort-010-852-196 41076408 ChemDiv-G952-1299 MCULE-1760288747 PubChem-52095940 ZINC000041076408 ZINC41076408
 25 27 0 0 0
SMALL
GASTEIGER

@<TRIPOS>ATOM
      1 C           9.3344   41.5833   10.6842 C.2     1  UNL1        0.2721
      2 N           8.7018   41.7749    9.4138 N.am    1  UNL1       -0.2597
      3 O           8.8376   42.0548   11.7405 O.2     1  UNL1       -0.2707
      4 H           9.1315   41.3518    8.6357 H       1  UNL1        0.1569
      5 C           4.0299   43.0074    9.1783 C.ar    1  UNL1        0.1643
      6 C           5.7682   44.0325    8.5966 C.ar    1  UNL1        0.2195
      7 C           7.5053   42.5219    9.1641 C.ar    1  UNL1        0.1880
      8 N           3.6519   44.2109    8.6680 N.ar    1  UNL1       -0.1310
      9 N           4.7587   44.8664    8.2943 N.ar    1  UNL1       -0.1202
     10 N           6.2740   42.0233    9.4705 N.ar    1  UNL1       -0.1400
     11 N           5.3582   42.9143    9.1286 N.ar    1  UNL1       -0.1881
     12 S           7.4347   44.1015    8.4543 S.2     1  UNL1       -0.0111
     13 C           3.1104   41.9691    9.7325 C.3     1  UNL1        0.0677
     14 C           3.8650   40.5437   11.6374 C.3     1  UNL1        0.0005
     15 C           3.2437   41.8704   11.2434 C.3     1  UNL1        0.0080
     16 C          10.6104   40.8169   10.7575 C.3     1  UNL1        0.2897
     17 O          11.0875   40.5227    9.4479 O.3     1  UNL1       -0.4656
     18 C          12.3904   40.8046    9.0226 C.ar    1  UNL1        0.1387
     19 C          12.5767   41.6746    7.9429 C.ar    1  UNL1        0.0326
     20 C          13.8657   41.9766    7.4932 C.ar    1  UNL1       -0.0192
     21 C          14.0543   42.9025    6.3465 C.3     1  UNL1        0.0311
     22 C          14.9769   41.4079    8.1220 C.ar    1  UNL1       -0.0083
     23 C          14.7996   40.5365    9.2000 C.ar    1  UNL1       -0.0192
     24 C          15.9802   39.9312    9.8690 C.3     1  UNL1        0.0311
     25 C          13.5110   40.2343    9.6492 C.ar    1  UNL1        0.0326
@<TRIPOS>BOND
     1    14    15    1
     2    15    13    1
     3    13     5    1
     4     6    12   ar
     5     7    12   ar
     6     7     2    1
     7    16     1    1
     8    16    17    1
     9    18    17    1
    10    19    20   ar
    11    21    20    1
    12    22    23   ar
    13    24    23    1
    14    25    18   ar
    15     8     9   ar
    16     2     1   am
    17    11    10   ar
    18    11     5   ar
    19    11     6   ar
    20     5     8   ar
    21     6     9   ar
    22     7    10   ar
    23     1     3    2
    24    18    19   ar
    25    20    22   ar
    26    23    25   ar
    27     2     4    1
