@<TRIPOS>MOLECULE
MolPort-019-824-987 67983260 CSSS00159572308 MCULE-6825799324 PubChem-56723134 ZINC000067983260 ZINC67983260
 26 28 0 0 0
SMALL
GASTEIGER

@<TRIPOS>ATOM
      1 C          13.7518   41.9781    7.3002 C.ar    1  UNL1        0.0848
      2 C          13.3130   41.0149    8.2333 C.ar    1  UNL1        0.1535
      3 C          12.0251   40.4698    8.1026 C.ar    1  UNL1        0.0557
      4 C          11.1854   40.8418    7.0442 C.ar    1  UNL1        0.0686
      5 C          11.6456   41.7804    6.1118 C.ar    1  UNL1        0.0190
      6 C          12.9201   42.3345    6.2348 C.ar    1  UNL1        0.0192
      7 C           9.5587   39.1115    6.3695 C.ar    1  UNL1        0.1022
      8 C           8.2164   38.8611    6.5847 C.ar    1  UNL1        0.1196
      9 C           8.7034   40.7332    7.4916 C.ar    1  UNL1        0.1825
     10 N           9.8595   40.2896    6.9476 N.ar    1  UNL1       -0.2863
     11 N           7.6839   39.8774    7.2936 N.ar    1  UNL1       -0.2220
     12 C           8.5148   42.0234    8.1779 C.ar    1  UNL1        0.1790
     13 C           8.5392   43.5063    9.7141 C.ar    1  UNL1        0.1193
     14 C           7.8271   44.0099    8.6387 C.ar    1  UNL1        0.0981
     15 C           7.0825   43.1389    6.4355 C.3     1  UNL1        0.1321
     16 N           8.9585   42.2546    9.4269 N.ar    1  UNL1       -0.2223
     17 N           7.8219   43.0666    7.6849 N.ar    1  UNL1       -0.3058
     18 C          15.5743   43.5442    6.4562 C.2     1  UNL1        0.2262
     19 O          14.9947   43.7743    5.3618 O.2     1  UNL1       -0.2748
     20 N          15.0556   42.5691    7.3683 N.am    1  UNL1       -0.2815
     21 H          15.6438   42.2809    8.1033 H       1  UNL1        0.1549
     22 C          16.8324   44.2773    6.7831 C.3     1  UNL1        0.0854
     23 C          18.0528   42.5085    8.0540 C.3     1  UNL1        0.0005
     24 C          17.3758   43.8632    8.1416 C.3     1  UNL1        0.0096
     25 C          13.6968   39.9859   10.4545 C.3     1  UNL1        0.2525
     26 O          14.1677   40.5871    9.2560 O.3     1  UNL1       -0.4701
@<TRIPOS>BOND
     1    23    24    1
     2    24    22    1
     3    22    18    1
     4    18    20   am
     5     2    26    1
     6     2     3   ar
     7    25    26    1
     8     4     5   ar
     9     4    10    1
    10     6     1   ar
    11     8    11   ar
    12     9    12    1
    13     9    10   ar
    14    13    16   ar
    15    14    17   ar
    16    15    17    1
    17    20     1    1
    18    10     7   ar
    19    17    12   ar
    20    18    19    2
    21     1     2   ar
    22     3     4   ar
    23     5     6   ar
    24     7     8   ar
    25     9    11   ar
    26    12    16   ar
    27    13    14   ar
    28    20    21    1
@<TRIPOS>MOLECULE
MolPort-019-824-987 67983260 CSSS00159572308 MCULE-6825799324 PubChem-56723134 ZINC000067983260 ZINC67983260
 26 28 0 0 0
SMALL
GASTEIGER

@<TRIPOS>ATOM
      1 C           9.4438   42.1530    8.7616 C.ar    1  UNL1        0.0848
      2 C          10.0913   42.1264   10.0151 C.ar    1  UNL1        0.1535
      3 C          11.4444   41.7553   10.0807 C.ar    1  UNL1        0.0557
      4 C          12.1671   41.4450    8.9209 C.ar    1  UNL1        0.0686
      5 C          11.5165   41.5006    7.6817 C.ar    1  UNL1        0.0190
      6 C          10.1708   41.8609    7.6040 C.ar    1  UNL1        0.0192
      7 C          14.0084   40.0818    9.8411 C.ar    1  UNL1        0.1022
      8 C          15.3477   39.8873    9.5591 C.ar    1  UNL1        0.1196
      9 C          14.6038   41.4133    8.2620 C.ar    1  UNL1        0.1825
     10 N          13.5454   41.0406    9.0170 N.ar    1  UNL1       -0.2863
     11 N          15.7167   40.7198    8.5644 N.ar    1  UNL1       -0.2220
     12 C          14.6061   42.4890    7.2549 C.ar    1  UNL1        0.1790
     13 C          14.1207   43.5975    5.4958 C.ar    1  UNL1        0.1193
     14 C          15.1906   44.2195    6.1169 C.ar    1  UNL1        0.0981
     15 C          16.6155   43.7489    8.0956 C.3     1  UNL1        0.1321
     16 N          13.7644   42.5046    6.2054 N.ar    1  UNL1       -0.2223
     17 N          15.4814   43.5106    7.2181 N.ar    1  UNL1       -0.3058
     18 C           7.5666   43.8712    8.6582 C.2     1  UNL1        0.2262
     19 O           8.2879   44.8167    9.0733 O.2     1  UNL1       -0.2748
     20 N           8.0684   42.5301    8.6201 N.am    1  UNL1       -0.2815
     21 H           7.4139   41.8071    8.4855 H       1  UNL1        0.1549
     22 C           6.1645   44.1559    8.2339 C.3     1  UNL1        0.0854
     23 C           3.7520   43.8011    8.7693 C.3     1  UNL1        0.0005
     24 C           5.1684   43.3208    9.0229 C.3     1  UNL1        0.0096
     25 C           8.7625   41.5574   12.0276 C.3     1  UNL1        0.2525
     26 O           9.3972   42.4983   11.1723 O.3     1  UNL1       -0.4701
@<TRIPOS>BOND
     1    23    24    1
     2    24    22    1
     3    22    18    1
     4    18    20   am
     5     2    26    1
     6     2     3   ar
     7    25    26    1
     8     4     5   ar
     9     4    10    1
    10     6     1   ar
    11     8    11   ar
    12     9    12    1
    13     9    10   ar
    14    13    16   ar
    15    14    17   ar
    16    15    17    1
    17    20     1    1
    18    10     7   ar
    19    17    12   ar
    20    18    19    2
    21     1     2   ar
    22     3     4   ar
    23     5     6   ar
    24     7     8   ar
    25     9    11   ar
    26    12    16   ar
    27    13    14   ar
    28    20    21    1
@<TRIPOS>MOLECULE
MolPort-019-824-987 67983260 CSSS00159572308 MCULE-6825799324 PubChem-56723134 ZINC000067983260 ZINC67983260
 26 28 0 0 0
SMALL
GASTEIGER

@<TRIPOS>ATOM
      1 C          10.0856   41.9935    7.2585 C.ar    1  UNL1        0.0848
      2 C          10.9877   41.3284    6.4013 C.ar    1  UNL1        0.1535
      3 C          12.2829   41.0375    6.8604 C.ar    1  UNL1        0.0557
      4 C          12.6800   41.3664    8.1635 C.ar    1  UNL1        0.0686
      5 C          11.7644   42.0038    9.0105 C.ar    1  UNL1        0.0190
      6 C          10.4772   42.3045    8.5638 C.ar    1  UNL1        0.0192
      7 C          14.3584   40.0976    9.4550 C.ar    1  UNL1        0.1022
      8 C          15.7379   40.0538    9.5330 C.ar    1  UNL1        0.1196
      9 C          15.1916   41.6198    8.1864 C.ar    1  UNL1        0.1825
     10 N          14.0217   41.0828    8.6014 N.ar    1  UNL1       -0.2863
     11 N          16.2577   41.0060    8.7319 N.ar    1  UNL1       -0.2220
     12 C          15.3355   42.7807    7.2903 C.ar    1  UNL1        0.1790
     13 C          15.0872   44.0556    5.5956 C.ar    1  UNL1        0.1193
     14 C          16.0850   44.5881    6.3944 C.ar    1  UNL1        0.0981
     15 C          17.2507   43.9013    8.4769 C.3     1  UNL1        0.1321
     16 N          14.6277   42.9145    6.1539 N.ar    1  UNL1       -0.2223
     17 N          16.2272   43.7755    7.4523 N.ar    1  UNL1       -0.3058
     18 C           7.7212   42.8193    7.7212 C.2     1  UNL1        0.2262
     19 O           7.8580   42.7857    8.9729 O.2     1  UNL1       -0.2748
     20 N           8.7471   42.3136    6.8589 N.am    1  UNL1       -0.2815
     21 H           8.5132   42.1744    5.9128 H       1  UNL1        0.1549
     22 C           6.4592   43.3643    7.1402 C.3     1  UNL1        0.0854
     23 C           4.3795   44.6011    7.7551 C.3     1  UNL1        0.0005
     24 C           5.8632   44.4443    8.0294 C.3     1  UNL1        0.0096
     25 C          10.3505   39.5794    4.7658 C.3     1  UNL1        0.2525
     26 O          10.5805   40.9361    5.1208 O.3     1  UNL1       -0.4701
@<TRIPOS>BOND
     1    23    24    1
     2    24    22    1
     3    22    18    1
     4    18    20   am
     5     2    26    1
     6     2     3   ar
     7    25    26    1
     8     4     5   ar
     9     4    10    1
    10     6     1   ar
    11     8    11   ar
    12     9    12    1
    13     9    10   ar
    14    13    16   ar
    15    14    17   ar
    16    15    17    1
    17    20     1    1
    18    10     7   ar
    19    17    12   ar
    20    18    19    2
    21     1     2   ar
    22     3     4   ar
    23     5     6   ar
    24     7     8   ar
    25     9    11   ar
    26    12    16   ar
    27    13    14   ar
    28    20    21    1
@<TRIPOS>MOLECULE
MolPort-019-824-987 67983260 CSSS00159572308 MCULE-6825799324 PubChem-56723134 ZINC000067983260 ZINC67983260
 26 28 0 0 0
SMALL
GASTEIGER

@<TRIPOS>ATOM
      1 C          10.3643   41.8519    7.2137 C.ar    1  UNL1        0.0848
      2 C          10.6977   42.1620    8.5493 C.ar    1  UNL1        0.1535
      3 C          11.9926   41.8818    9.0160 C.ar    1  UNL1        0.0557
      4 C          12.9644   41.3325    8.1690 C.ar    1  UNL1        0.0686
      5 C          12.6248   41.0540    6.8389 C.ar    1  UNL1        0.0190
      6 C          11.3399   41.3210    6.3652 C.ar    1  UNL1        0.0192
      7 C          14.5548   40.0257    9.5321 C.ar    1  UNL1        0.1022
      8 C          15.9270   39.9677    9.6887 C.ar    1  UNL1        0.1196
      9 C          15.4724   41.5621    8.3413 C.ar    1  UNL1        0.1825
     10 N          14.2761   41.0288    8.6784 N.ar    1  UNL1       -0.2863
     11 N          16.5001   40.9290    8.9362 N.ar    1  UNL1       -0.2220
     12 C          15.6775   42.7371    7.4760 C.ar    1  UNL1        0.1790
     13 C          15.5327   44.0469    5.7959 C.ar    1  UNL1        0.1193
     14 C          16.4964   44.5495    6.6538 C.ar    1  UNL1        0.0981
     15 C          17.5460   43.8068    8.7784 C.3     1  UNL1        0.1321
     16 N          15.0297   42.9025    6.3084 N.ar    1  UNL1       -0.2223
     17 N          16.5738   43.7154    7.7016 N.ar    1  UNL1       -0.3058
     18 C           7.8722   41.3858    6.9705 C.2     1  UNL1        0.2262
     19 O           7.9307   40.2756    7.5628 O.2     1  UNL1       -0.2748
     20 N           9.0657   42.1183    6.6691 N.am    1  UNL1       -0.2815
     21 H           8.9874   42.8672    6.0349 H       1  UNL1        0.1549
     22 C           6.5428   41.9205    6.5536 C.3     1  UNL1        0.0854
     23 C           6.0538   44.0583    7.7467 C.3     1  UNL1        0.0005
     24 C           6.5628   43.4380    6.4594 C.3     1  UNL1        0.0096
     25 C          10.0885   43.8104   10.2961 C.3     1  UNL1        0.2525
     26 O           9.7550   42.7716    9.3853 O.3     1  UNL1       -0.4701
@<TRIPOS>BOND
     1    23    24    1
     2    24    22    1
     3    22    18    1
     4    18    20   am
     5     2    26    1
     6     2     3   ar
     7    25    26    1
     8     4     5   ar
     9     4    10    1
    10     6     1   ar
    11     8    11   ar
    12     9    12    1
    13     9    10   ar
    14    13    16   ar
    15    14    17   ar
    16    15    17    1
    17    20     1    1
    18    10     7   ar
    19    17    12   ar
    20    18    19    2
    21     1     2   ar
    22     3     4   ar
    23     5     6   ar
    24     7     8   ar
    25     9    11   ar
    26    12    16   ar
    27    13    14   ar
    28    20    21    1
@<TRIPOS>MOLECULE
MolPort-019-824-987 67983260 CSSS00159572308 MCULE-6825799324 PubChem-56723134 ZINC000067983260 ZINC67983260
 26 28 0 0 0
SMALL
GASTEIGER

@<TRIPOS>ATOM
      1 C           8.6687   41.3042    8.6711 C.ar    1  UNL1        0.0848
      2 C           9.5056   42.3675    9.0712 C.ar    1  UNL1        0.1535
      3 C          10.8761   42.1271    9.2630 C.ar    1  UNL1        0.0557
      4 C          11.4284   40.8602    9.0313 C.ar    1  UNL1        0.0686
      5 C          10.5884   39.8214    8.6101 C.ar    1  UNL1        0.0190
      6 C           9.2241   40.0457    8.4228 C.ar    1  UNL1        0.0192
      7 C          13.3303   39.8047   10.1991 C.ar    1  UNL1        0.1022
      8 C          14.7015   39.7493   10.0323 C.ar    1  UNL1        0.1196
      9 C          13.8987   41.0665    8.5543 C.ar    1  UNL1        0.1825
     10 N          12.8310   40.6321    9.2617 N.ar    1  UNL1       -0.2863
     11 N          15.0543   40.5373    8.9963 N.ar    1  UNL1       -0.2220
     12 C          13.8619   42.0505    7.4580 C.ar    1  UNL1        0.1790
     13 C          14.1925   43.8528    6.3619 C.ar    1  UNL1        0.1193
     14 C          13.3065   43.0671    5.6443 C.ar    1  UNL1        0.0981
     15 C          12.1583   40.8957    6.0104 C.3     1  UNL1        0.1321
     16 N          14.5293   43.2179    7.5057 N.ar    1  UNL1       -0.2223
     17 N          13.1108   41.9410    6.3468 N.ar    1  UNL1       -0.3058
     18 C           6.2719   41.6195    9.4728 C.2     1  UNL1        0.2262
     19 O           6.5421   41.3458   10.6722 O.2     1  UNL1       -0.2748
     20 N           7.2638   41.4799    8.4489 N.am    1  UNL1       -0.2815
     21 H           6.9547   41.5070    7.5145 H       1  UNL1        0.1549
     22 C           4.8914   42.0625    9.1193 C.3     1  UNL1        0.0854
     23 C           2.8299   41.8178   10.5061 C.3     1  UNL1        0.0005
     24 C           4.1414   42.5627   10.3438 C.3     1  UNL1        0.0096
     25 C           9.0955   44.3812   10.4556 C.3     1  UNL1        0.2525
     26 O           8.9765   43.6521    9.2415 O.3     1  UNL1       -0.4701
@<TRIPOS>BOND
     1    23    24    1
     2    24    22    1
     3    22    18    1
     4    18    20   am
     5     2    26    1
     6     2     3   ar
     7    25    26    1
     8     4     5   ar
     9     4    10    1
    10     6     1   ar
    11     8    11   ar
    12     9    12    1
    13     9    10   ar
    14    13    16   ar
    15    14    17   ar
    16    15    17    1
    17    20     1    1
    18    10     7   ar
    19    17    12   ar
    20    18    19    2
    21     1     2   ar
    22     3     4   ar
    23     5     6   ar
    24     7     8   ar
    25     9    11   ar
    26    12    16   ar
    27    13    14   ar
    28    20    21    1
@<TRIPOS>MOLECULE
MolPort-019-824-987 67983260 CSSS00159572308 MCULE-6825799324 PubChem-56723134 ZINC000067983260 ZINC67983260
 26 28 0 0 0
SMALL
GASTEIGER

@<TRIPOS>ATOM
      1 C          14.9585   41.4133    8.0467 C.ar    1  UNL1        0.0848
      2 C          15.4433   40.4947    9.0018 C.ar    1  UNL1        0.1535
      3 C          14.6168   39.4385    9.4192 C.ar    1  UNL1        0.0557
      4 C          13.3357   39.2646    8.8786 C.ar    1  UNL1        0.0686
      5 C          12.8789   40.1705    7.9128 C.ar    1  UNL1        0.0190
      6 C          13.6876   41.2279    7.4951 C.ar    1  UNL1        0.0192
      7 C          12.9482   37.0455    9.8889 C.ar    1  UNL1        0.1022
      8 C          11.8546   36.3219   10.3267 C.ar    1  UNL1        0.1196
      9 C          11.1499   38.1386    9.4506 C.ar    1  UNL1        0.1825
     10 N          12.4971   38.1905    9.3430 N.ar    1  UNL1       -0.2863
     11 N          10.7286   37.0127   10.0554 N.ar    1  UNL1       -0.2220
     12 C          10.2057   39.1424    8.9289 C.ar    1  UNL1        0.1790
     13 C           8.8721   40.1486    7.5991 C.ar    1  UNL1        0.1193
     14 C           9.0811   40.9628    8.6994 C.ar    1  UNL1        0.0981
     15 C          10.4953   40.8667   10.7385 C.3     1  UNL1        0.1321
     16 N           9.5893   39.0124    7.7400 N.ar    1  UNL1       -0.2223
     17 N           9.9199   40.3159    9.5226 N.ar    1  UNL1       -0.3058
     18 C          15.3510   43.4455    6.5625 C.2     1  UNL1        0.2262
     19 O          14.3483   43.2195    5.8345 O.2     1  UNL1       -0.2748
     20 N          15.7502   42.5087    7.5698 N.am    1  UNL1       -0.2815
     21 H          16.6429   42.6270    7.9677 H       1  UNL1        0.1549
     22 C          16.1446   44.6904    6.3443 C.3     1  UNL1        0.0854
     23 C          18.2841   44.1624    7.5176 C.3     1  UNL1        0.0005
     24 C          17.6228   44.3794    6.1697 C.3     1  UNL1        0.0096
     25 C          17.3788   39.6073   10.2692 C.3     1  UNL1        0.2525
     26 O          16.7455   40.6204    9.4995 O.3     1  UNL1       -0.4701
@<TRIPOS>BOND
     1    23    24    1
     2    24    22    1
     3    22    18    1
     4    18    20   am
     5     2    26    1
     6     2     3   ar
     7    25    26    1
     8     4     5   ar
     9     4    10    1
    10     6     1   ar
    11     8    11   ar
    12     9    12    1
    13     9    10   ar
    14    13    16   ar
    15    14    17   ar
    16    15    17    1
    17    20     1    1
    18    10     7   ar
    19    17    12   ar
    20    18    19    2
    21     1     2   ar
    22     3     4   ar
    23     5     6   ar
    24     7     8   ar
    25     9    11   ar
    26    12    16   ar
    27    13    14   ar
    28    20    21    1
@<TRIPOS>MOLECULE
MolPort-019-824-987 67983260 CSSS00159572308 MCULE-6825799324 PubChem-56723134 ZINC000067983260 ZINC67983260
 26 28 0 0 0
SMALL
GASTEIGER

@<TRIPOS>ATOM
      1 C           9.6228   41.9098    8.1075 C.ar    1  UNL1        0.0848
      2 C           9.1505   42.3817    9.3507 C.ar    1  UNL1        0.1535
      3 C           7.8739   42.9629    9.4239 C.ar    1  UNL1        0.0557
      4 C           7.0520   43.0501    8.2922 C.ar    1  UNL1        0.0686
      5 C           7.5257   42.5540    7.0708 C.ar    1  UNL1        0.0190
      6 C           8.7948   41.9810    6.9836 C.ar    1  UNL1        0.0192
      7 C           5.3762   44.7581    7.6845 C.ar    1  UNL1        0.1022
      8 C           4.0374   44.9842    7.9446 C.ar    1  UNL1        0.1196
      9 C           4.6578   43.2716    9.0610 C.ar    1  UNL1        0.1825
     10 N           5.7587   43.6751    8.3869 N.ar    1  UNL1       -0.2863
     11 N           3.5883   44.0469    8.8039 N.ar    1  UNL1       -0.2220
     12 C           4.5983   42.1570   10.0230 C.ar    1  UNL1        0.1790
     13 C           5.1645   40.8190   11.5877 C.ar    1  UNL1        0.1193
     14 C           4.0078   40.3336   11.0017 C.ar    1  UNL1        0.0981
     15 C           2.5812   40.9875    9.0769 C.3     1  UNL1        0.1321
     16 N           5.5399   41.9565   10.9630 N.ar    1  UNL1       -0.2223
     17 N           3.6674   41.1852   10.0226 N.ar    1  UNL1       -0.3058
     18 C          12.1688   41.9562    8.1540 C.2     1  UNL1        0.2262
     19 O          12.2340   43.2119    8.2276 O.2     1  UNL1       -0.2748
     20 N          10.9108   41.2986    7.9618 N.am    1  UNL1       -0.2815
     21 H          10.9329   40.3475    7.7086 H       1  UNL1        0.1549
     22 C          13.4251   41.1548    8.2366 C.3     1  UNL1        0.0854
     23 C          15.7941   41.9422    8.2173 C.3     1  UNL1        0.0005
     24 C          14.5306   41.7728    7.3952 C.3     1  UNL1        0.0096
     25 C           9.5560   41.4225   11.5990 C.3     1  UNL1        0.2525
     26 O           9.9361   42.2399   10.5004 O.3     1  UNL1       -0.4701
@<TRIPOS>BOND
     1    23    24    1
     2    24    22    1
     3    22    18    1
     4    18    20   am
     5     2    26    1
     6     2     3   ar
     7    25    26    1
     8     4     5   ar
     9     4    10    1
    10     6     1   ar
    11     8    11   ar
    12     9    12    1
    13     9    10   ar
    14    13    16   ar
    15    14    17   ar
    16    15    17    1
    17    20     1    1
    18    10     7   ar
    19    17    12   ar
    20    18    19    2
    21     1     2   ar
    22     3     4   ar
    23     5     6   ar
    24     7     8   ar
    25     9    11   ar
    26    12    16   ar
    27    13    14   ar
    28    20    21    1
@<TRIPOS>MOLECULE
MolPort-019-824-987 67983260 CSSS00159572308 MCULE-6825799324 PubChem-56723134 ZINC000067983260 ZINC67983260
 26 28 0 0 0
SMALL
GASTEIGER

@<TRIPOS>ATOM
      1 C          13.2983   41.4395    7.8435 C.ar    1  UNL1        0.0848
      2 C          12.3300   41.1330    8.8230 C.ar    1  UNL1        0.1535
      3 C          10.9683   41.1914    8.4834 C.ar    1  UNL1        0.0557
      4 C          10.5596   41.5152    7.1827 C.ar    1  UNL1        0.0686
      5 C          11.5341   41.7921    6.2154 C.ar    1  UNL1        0.0190
      6 C          12.8897   41.7444    6.5420 C.ar    1  UNL1        0.0192
      7 C           8.3030   42.4949    7.3896 C.ar    1  UNL1        0.1022
      8 C           7.0844   42.3449    6.7544 C.ar    1  UNL1        0.1196
      9 C           8.4469   40.9164    5.9376 C.ar    1  UNL1        0.1825
     10 N           9.1575   41.5955    6.8666 N.ar    1  UNL1       -0.2863
     11 N           7.1794   41.3579    5.8403 N.ar    1  UNL1       -0.2220
     12 C           8.9382   39.7781    5.1412 C.ar    1  UNL1        0.1790
     13 C           9.4843   38.5937    3.4506 C.ar    1  UNL1        0.1193
     14 C           9.5591   37.7956    4.5796 C.ar    1  UNL1        0.0981
     15 C           9.0431   38.0772    6.9924 C.3     1  UNL1        0.1321
     16 N           9.0819   39.8338    3.8045 N.ar    1  UNL1       -0.2223
     17 N           9.2132   38.5549    5.6301 N.ar    1  UNL1       -0.3058
     18 C          15.6306   42.4616    7.8961 C.2     1  UNL1        0.2262
     19 O          15.3067   43.4591    7.1985 O.2     1  UNL1       -0.2748
     20 N          14.7041   41.3919    8.1180 N.am    1  UNL1       -0.2815
     21 H          15.0631   40.5541    8.4902 H       1  UNL1        0.1549
     22 C          17.0075   42.3872    8.4668 C.3     1  UNL1        0.0854
     23 C          18.1348   44.0750    7.0131 C.3     1  UNL1        0.0005
     24 C          17.6960   43.7424    8.4265 C.3     1  UNL1        0.0096
     25 C          12.5910   39.4140   10.5883 C.3     1  UNL1        0.2525
     26 O          12.7284   40.7441   10.1072 O.3     1  UNL1       -0.4701
@<TRIPOS>BOND
     1    23    24    1
     2    24    22    1
     3    22    18    1
     4    18    20   am
     5     2    26    1
     6     2     3   ar
     7    25    26    1
     8     4     5   ar
     9     4    10    1
    10     6     1   ar
    11     8    11   ar
    12     9    12    1
    13     9    10   ar
    14    13    16   ar
    15    14    17   ar
    16    15    17    1
    17    20     1    1
    18    10     7   ar
    19    17    12   ar
    20    18    19    2
    21     1     2   ar
    22     3     4   ar
    23     5     6   ar
    24     7     8   ar
    25     9    11   ar
    26    12    16   ar
    27    13    14   ar
    28    20    21    1
@<TRIPOS>MOLECULE
MolPort-019-824-987 67983260 CSSS00159572308 MCULE-6825799324 PubChem-56723134 ZINC000067983260 ZINC67983260
 26 28 0 0 0
SMALL
GASTEIGER

@<TRIPOS>ATOM
      1 C           9.9894   40.5404    9.2556 C.ar    1  UNL1        0.0848
      2 C          10.6856   39.7250    8.3383 C.ar    1  UNL1        0.1535
      3 C          12.0605   39.5042    8.5226 C.ar    1  UNL1        0.0557
      4 C          12.7413   40.0519    9.6182 C.ar    1  UNL1        0.0686
      5 C          12.0303   40.8383   10.5336 C.ar    1  UNL1        0.0190
      6 C          10.6659   41.0709   10.3577 C.ar    1  UNL1        0.0192
      7 C          14.7076   38.8958   10.5627 C.ar    1  UNL1        0.1022
      8 C          16.0731   38.9045   10.3474 C.ar    1  UNL1        0.1196
      9 C          15.1878   40.3958    9.0998 C.ar    1  UNL1        0.1825
     10 N          14.1561   39.8340    9.7700 N.ar    1  UNL1       -0.2863
     11 N          16.3706   39.8425    9.4252 N.ar    1  UNL1       -0.2220
     12 C          15.0892   41.5249    8.1581 C.ar    1  UNL1        0.1790
     13 C          14.3877   42.7549    6.5600 C.ar    1  UNL1        0.1193
     14 C          15.5820   43.2835    7.0198 C.ar    1  UNL1        0.0981
     15 C          17.2838   42.6276    8.7054 C.3     1  UNL1        0.1321
     16 N          14.0876   41.6441    7.2677 N.ar    1  UNL1       -0.2223
     17 N          16.0073   42.4994    8.0218 N.ar    1  UNL1       -0.3058
     18 C           7.9937   41.7740    8.2645 C.2     1  UNL1        0.2262
     19 O           8.7005   42.6590    7.7132 O.2     1  UNL1       -0.2748
     20 N           8.5855   40.8010    9.1333 N.am    1  UNL1       -0.2815
     21 H           7.9770   40.2667    9.6932 H       1  UNL1        0.1549
     22 C           6.5200   41.7668    8.0295 C.3     1  UNL1        0.0854
     23 C           5.4870   44.0367    8.1458 C.3     1  UNL1        0.0005
     24 C           5.8135   42.7750    8.9221 C.3     1  UNL1        0.0096
     25 C           9.1700   37.9795    7.4461 C.3     1  UNL1        0.2525
     26 O          10.0023   39.1191    7.2776 O.3     1  UNL1       -0.4701
@<TRIPOS>BOND
     1    23    24    1
     2    24    22    1
     3    22    18    1
     4    18    20   am
     5     2    26    1
     6     2     3   ar
     7    25    26    1
     8     4     5   ar
     9     4    10    1
    10     6     1   ar
    11     8    11   ar
    12     9    12    1
    13     9    10   ar
    14    13    16   ar
    15    14    17   ar
    16    15    17    1
    17    20     1    1
    18    10     7   ar
    19    17    12   ar
    20    18    19    2
    21     1     2   ar
    22     3     4   ar
    23     5     6   ar
    24     7     8   ar
    25     9    11   ar
    26    12    16   ar
    27    13    14   ar
    28    20    21    1
@<TRIPOS>MOLECULE
MolPort-019-824-987 67983260 CSSS00159572308 MCULE-6825799324 PubChem-56723134 ZINC000067983260 ZINC67983260
 26 28 0 0 0
SMALL
GASTEIGER

@<TRIPOS>ATOM
      1 C          12.2601   41.4924    8.9128 C.ar    1  UNL1        0.0848
      2 C          13.3632   41.4407    8.0345 C.ar    1  UNL1        0.1535
      3 C          14.5071   40.7179    8.4113 C.ar    1  UNL1        0.0557
      4 C          14.5561   40.0221    9.6267 C.ar    1  UNL1        0.0686
      5 C          13.4430   40.0627   10.4762 C.ar    1  UNL1        0.0190
      6 C          12.3036   40.7830   10.1164 C.ar    1  UNL1        0.0192
      7 C          16.9467   39.8859   10.2279 C.ar    1  UNL1        0.1022
      8 C          17.8087   38.9091   10.6904 C.ar    1  UNL1        0.1196
      9 C          15.9076   38.0065   10.3220 C.ar    1  UNL1        0.1825
     10 N          15.7501   39.3113   10.0028 N.ar    1  UNL1       -0.2863
     11 N          17.1524   37.7326   10.7536 N.ar    1  UNL1       -0.2220
     12 C          14.8855   36.9553   10.1749 C.ar    1  UNL1        0.1790
     13 C          13.2982   35.6121   10.6602 C.ar    1  UNL1        0.1193
     14 C          13.7691   35.2869    9.3993 C.ar    1  UNL1        0.0981
     15 C          15.6138   36.0724    7.9339 C.3     1  UNL1        0.1321
     16 N          14.0094   36.6512   11.1497 N.ar    1  UNL1       -0.2223
     17 N          14.7642   36.1394    9.1115 N.ar    1  UNL1       -0.3058
     18 C           9.9153   41.6463    7.9305 C.2     1  UNL1        0.2262
     19 O           9.9849   40.5269    7.3573 O.2     1  UNL1       -0.2748
     20 N          11.0587   42.2036    8.5892 N.am    1  UNL1       -0.2815
     21 H          11.0156   43.1545    8.8407 H       1  UNL1        0.1549
     22 C           8.6324   42.4077    7.8899 C.3     1  UNL1        0.0854
     23 C           7.4809   44.4602    8.7230 C.3     1  UNL1        0.0005
     24 C           8.5673   43.4396    9.0048 C.3     1  UNL1        0.0096
     25 C          14.1743   43.1341    6.4175 C.3     1  UNL1        0.2525
     26 O          13.3002   42.0770    6.7893 O.3     1  UNL1       -0.4701
@<TRIPOS>BOND
     1    23    24    1
     2    24    22    1
     3    22    18    1
     4    18    20   am
     5     2    26    1
     6     2     3   ar
     7    25    26    1
     8     4     5   ar
     9     4    10    1
    10     6     1   ar
    11     8    11   ar
    12     9    12    1
    13     9    10   ar
    14    13    16   ar
    15    14    17   ar
    16    15    17    1
    17    20     1    1
    18    10     7   ar
    19    17    12   ar
    20    18    19    2
    21     1     2   ar
    22     3     4   ar
    23     5     6   ar
    24     7     8   ar
    25     9    11   ar
    26    12    16   ar
    27    13    14   ar
    28    20    21    1
