@<TRIPOS>MOLECULE
MolPort-020-281-700 MCULE-7223028372 PubChem-110257379
 21 23 0 0 0
SMALL
GASTEIGER

@<TRIPOS>ATOM
      1 C          11.4998   41.3578   10.0062 C.ar    1  UNL1       -0.0168
      2 C          11.9213   41.7898    8.7465 C.ar    1  UNL1        0.0302
      3 C          13.1007   41.2788    8.1989 C.ar    1  UNL1        0.1329
      4 C          13.4401   39.9272   10.1270 C.ar    1  UNL1        0.1000
      5 C          12.2675   40.4161   10.7043 C.ar    1  UNL1        0.0165
      6 N          13.8284   40.3640    8.8992 N.ar    1  UNL1       -0.2291
      7 C           6.8548   42.3441    9.1136 C.3     1  UNL1        0.0896
      8 C           7.4549   41.6202   11.2535 C.3     1  UNL1        0.0722
      9 C           8.4952   41.6740   12.3701 C.3     1  UNL1        0.0177
     10 C           9.8314   41.1556   11.8480 C.3     1  UNL1        0.0072
     11 C          10.2352   41.9119   10.5818 C.3     1  UNL1        0.0385
     12 C           9.0985   41.8653    9.5579 C.3     1  UNL1        0.0765
     13 N           7.8861   42.4489   10.1290 N.3     1  UNL1       -0.2712
     14 N          13.5204   41.7311    6.9060 N.pl3   1  UNL1       -0.2821
     15 H          13.1597   41.2488    6.1272 H       1  UNL1        0.1551
     16 C          14.4147   42.8176    6.6375 C.ar    1  UNL1        0.1526
     17 C          16.4125   44.0143    7.0870 C.ar    1  UNL1        0.1210
     18 C          16.0953   44.9244    6.0776 C.ar    1  UNL1        0.1196
     19 C          14.1002   43.7300    5.6281 C.ar    1  UNL1        0.1332
     20 N          15.5664   42.9823    7.3446 N.ar    1  UNL1       -0.2258
     21 N          14.9462   44.7623    5.3702 N.ar    1  UNL1       -0.2378
@<TRIPOS>BOND
     1     7    13    1
     2     8    13    1
     3     8     9    1
     4     9    10    1
     5    10    11    1
     6    11    12    1
     7    11     1    1
     8    12    13    1
     9     2     3   ar
    10     3    14    1
    11     4     6   ar
    12     5     1   ar
    13    17    20   ar
    14    18    21   ar
    15    19    16   ar
    16    14    16    1
    17     1     2   ar
    18     3     6   ar
    19     4     5   ar
    20    16    20   ar
    21    17    18   ar
    22    19    21   ar
    23    14    15    1
@<TRIPOS>MOLECULE
MolPort-020-281-700 MCULE-7223028372 PubChem-110257379
 21 23 0 0 0
SMALL
GASTEIGER

@<TRIPOS>ATOM
      1 C          12.3537   40.4500    9.9675 C.ar    1  UNL1       -0.0168
      2 C          13.0015   40.7236    8.7607 C.ar    1  UNL1        0.0302
      3 C          12.5456   41.7678    7.9520 C.ar    1  UNL1        0.1329
      4 C          10.8252   42.2633    9.5187 C.ar    1  UNL1        0.1000
      5 C          11.2534   41.2283   10.3510 C.ar    1  UNL1        0.0165
      6 N          11.4732   42.5092    8.3488 N.ar    1  UNL1       -0.2291
      7 C          12.6929   35.6484   10.3859 C.3     1  UNL1        0.0896
      8 C          14.4543   36.9683   11.1722 C.3     1  UNL1        0.0722
      9 C          14.8599   38.2612   11.8763 C.3     1  UNL1        0.0177
     10 C          14.3540   39.4578   11.0772 C.3     1  UNL1        0.0072
     11 C          12.8513   39.3297   10.8247 C.3     1  UNL1        0.0385
     12 C          12.5399   37.9719   10.1904 C.3     1  UNL1        0.0765
     13 N          12.9983   36.8940   11.0647 N.3     1  UNL1       -0.2712
     14 N          13.2199   42.0368    6.7171 N.pl3   1  UNL1       -0.2821
     15 H          12.9343   41.5164    5.9317 H       1  UNL1        0.1551
     16 C          14.2700   42.9902    6.5152 C.ar    1  UNL1        0.1526
     17 C          16.4419   43.8116    6.9987 C.ar    1  UNL1        0.1210
     18 C          16.2525   44.8508    6.0866 C.ar    1  UNL1        0.1196
     19 C          14.0838   44.0313    5.6032 C.ar    1  UNL1        0.1332
     20 N          15.4478   42.9053    7.1928 N.ar    1  UNL1       -0.2258
     21 N          15.0778   44.9379    5.4087 N.ar    1  UNL1       -0.2378
@<TRIPOS>BOND
     1     7    13    1
     2     8    13    1
     3     8     9    1
     4     9    10    1
     5    10    11    1
     6    11    12    1
     7    11     1    1
     8    12    13    1
     9     2     3   ar
    10     3    14    1
    11     4     6   ar
    12     5     1   ar
    13    17    20   ar
    14    18    21   ar
    15    19    16   ar
    16    14    16    1
    17     1     2   ar
    18     3     6   ar
    19     4     5   ar
    20    16    20   ar
    21    17    18   ar
    22    19    21   ar
    23    14    15    1
@<TRIPOS>MOLECULE
MolPort-020-281-700 MCULE-7223028372 PubChem-110257379
 21 23 0 0 0
SMALL
GASTEIGER

@<TRIPOS>ATOM
      1 C          13.4530   40.2729    9.6212 C.ar    1  UNL1       -0.0168
      2 C          14.2280   41.1068    8.8120 C.ar    1  UNL1        0.0302
      3 C          15.6217   41.0262    8.8697 C.ar    1  UNL1        0.1329
      4 C          15.4796   39.3119   10.5131 C.ar    1  UNL1        0.1000
      5 C          14.0855   39.3653   10.4813 C.ar    1  UNL1        0.0165
      6 N          16.2112   40.1347    9.7151 N.ar    1  UNL1       -0.2291
      7 C           9.4323   41.2105   12.1311 C.3     1  UNL1        0.0896
      8 C           9.5327   41.8681    9.8905 C.3     1  UNL1        0.0722
      9 C          10.0087   41.5197    8.4819 C.3     1  UNL1        0.0177
     10 C          11.5266   41.3688    8.4790 C.3     1  UNL1        0.0072
     11 C          11.9619   40.3682    9.5503 C.3     1  UNL1        0.0385
     12 C          11.3710   40.7613   10.9064 C.3     1  UNL1        0.0765
     13 N           9.9124   40.8077   10.8224 N.3     1  UNL1       -0.2712
     14 N          16.4035   41.8877    8.0338 N.pl3   1  UNL1       -0.2821
     15 H          17.3773   41.7425    8.0324 H       1  UNL1        0.1551
     16 C          15.9047   42.9403    7.1997 C.ar    1  UNL1        0.1526
     17 C          14.2168   43.8542    5.8064 C.ar    1  UNL1        0.1210
     18 C          14.9972   44.9940    5.6076 C.ar    1  UNL1        0.1196
     19 C          16.6830   44.0822    6.9988 C.ar    1  UNL1        0.1332
     20 N          14.6870   42.8536    6.5970 N.ar    1  UNL1       -0.2258
     21 N          16.2131   45.0831    6.2081 N.ar    1  UNL1       -0.2378
@<TRIPOS>BOND
     1     7    13    1
     2     8    13    1
     3     8     9    1
     4     9    10    1
     5    10    11    1
     6    11    12    1
     7    11     1    1
     8    12    13    1
     9     2     3   ar
    10     3    14    1
    11     4     6   ar
    12     5     1   ar
    13    17    20   ar
    14    18    21   ar
    15    19    16   ar
    16    14    16    1
    17     1     2   ar
    18     3     6   ar
    19     4     5   ar
    20    16    20   ar
    21    17    18   ar
    22    19    21   ar
    23    14    15    1
@<TRIPOS>MOLECULE
MolPort-020-281-700 MCULE-7223028372 PubChem-110257379
 21 23 0 0 0
SMALL
GASTEIGER

@<TRIPOS>ATOM
      1 C          12.0133   39.8953    8.9302 C.ar    1  UNL1       -0.0168
      2 C          13.2862   40.2090    8.4484 C.ar    1  UNL1        0.0302
      3 C          14.3688   40.2511    9.3307 C.ar    1  UNL1        0.1329
      4 C          12.9431   39.6779   11.1469 C.ar    1  UNL1        0.1000
      5 C          11.8395   39.6267   10.2944 C.ar    1  UNL1        0.0165
      6 N          14.1720   39.9858   10.6528 N.ar    1  UNL1       -0.2291
      7 C          10.7221   40.2080    4.2847 C.3     1  UNL1        0.0896
      8 C           9.5642   38.7251    5.6716 C.3     1  UNL1        0.0722
      9 C           8.9807   38.4733    7.0601 C.3     1  UNL1        0.0177
     10 C          10.0942   38.5366    8.1006 C.3     1  UNL1        0.0072
     11 C          10.8623   39.8530    7.9757 C.3     1  UNL1        0.0385
     12 C          11.3364   40.0489    6.5337 C.3     1  UNL1        0.0765
     13 N          10.1912   40.0449    5.6253 N.3     1  UNL1       -0.2712
     14 N          15.6685   40.5742    8.8223 N.pl3   1  UNL1       -0.2821
     15 H          16.3333   39.8482    8.8067 H       1  UNL1        0.1551
     16 C          16.0939   41.8522    8.3343 C.ar    1  UNL1        0.1526
     17 C          17.6295   43.6598    8.3285 C.ar    1  UNL1        0.1210
     18 C          16.8625   44.3091    7.3601 C.ar    1  UNL1        0.1196
     19 C          15.3287   42.5047    7.3652 C.ar    1  UNL1        0.1332
     20 N          17.2289   42.4472    8.7938 N.ar    1  UNL1       -0.2258
     21 N          15.7290   43.7174    6.8996 N.ar    1  UNL1       -0.2378
@<TRIPOS>BOND
     1     7    13    1
     2     8    13    1
     3     8     9    1
     4     9    10    1
     5    10    11    1
     6    11    12    1
     7    11     1    1
     8    12    13    1
     9     2     3   ar
    10     3    14    1
    11     4     6   ar
    12     5     1   ar
    13    17    20   ar
    14    18    21   ar
    15    19    16   ar
    16    14    16    1
    17     1     2   ar
    18     3     6   ar
    19     4     5   ar
    20    16    20   ar
    21    17    18   ar
    22    19    21   ar
    23    14    15    1
@<TRIPOS>MOLECULE
MolPort-020-281-700 MCULE-7223028372 PubChem-110257379
 21 23 0 0 0
SMALL
GASTEIGER

@<TRIPOS>ATOM
      1 C          10.5245   40.9131    8.7455 C.ar    1  UNL1       -0.0168
      2 C          11.5645   41.1334    7.8395 C.ar    1  UNL1        0.0302
      3 C          12.8887   41.0912    8.2829 C.ar    1  UNL1        0.1329
      4 C          12.1586   40.6177   10.4971 C.ar    1  UNL1        0.1000
      5 C          10.8245   40.6523   10.0891 C.ar    1  UNL1        0.0165
      6 N          13.1527   40.8355    9.5951 N.ar    1  UNL1       -0.2291
      7 C           5.9457   41.8169    9.9960 C.3     1  UNL1        0.0896
      8 C           6.6548   42.3972    7.8458 C.3     1  UNL1        0.0722
      9 C           7.5116   42.0135    6.6413 C.3     1  UNL1        0.0177
     10 C           8.9725   41.9088    7.0670 C.3     1  UNL1        0.0072
     11 C           9.1108   40.9606    8.2587 C.3     1  UNL1        0.0385
     12 C           8.1575   41.3835    9.3790 C.3     1  UNL1        0.0765
     13 N           6.7797   41.3826    8.8908 N.3     1  UNL1       -0.2712
     14 N          13.9449   41.3189    7.3423 N.pl3   1  UNL1       -0.2821
     15 H          14.3977   40.5232    6.9804 H       1  UNL1        0.1551
     16 C          14.4056   42.5934    6.8777 C.ar    1  UNL1        0.1526
     17 C          16.0446   44.3068    6.8188 C.ar    1  UNL1        0.1210
     18 C          15.2393   45.0482    5.9529 C.ar    1  UNL1        0.1196
     19 C          13.6023   43.3378    6.0111 C.ar    1  UNL1        0.1332
     20 N          15.6107   43.0973    7.2617 N.ar    1  UNL1       -0.2258
     21 N          14.0359   44.5475    5.5680 N.ar    1  UNL1       -0.2378
@<TRIPOS>BOND
     1     7    13    1
     2     8    13    1
     3     8     9    1
     4     9    10    1
     5    10    11    1
     6    11    12    1
     7    11     1    1
     8    12    13    1
     9     2     3   ar
    10     3    14    1
    11     4     6   ar
    12     5     1   ar
    13    17    20   ar
    14    18    21   ar
    15    19    16   ar
    16    14    16    1
    17     1     2   ar
    18     3     6   ar
    19     4     5   ar
    20    16    20   ar
    21    17    18   ar
    22    19    21   ar
    23    14    15    1
@<TRIPOS>MOLECULE
MolPort-020-281-700 MCULE-7223028372 PubChem-110257379
 21 23 0 0 0
SMALL
GASTEIGER

@<TRIPOS>ATOM
      1 C          10.8845   41.7895    9.0435 C.ar    1  UNL1       -0.0168
      2 C          12.0800   41.7048    8.3262 C.ar    1  UNL1        0.0302
      3 C          13.1622   41.0048    8.8654 C.ar    1  UNL1        0.1329
      4 C          11.8881   40.4790   10.8045 C.ar    1  UNL1        0.1000
      5 C          10.7872   41.1698   10.2965 C.ar    1  UNL1        0.0165
      6 N          13.0408   40.4114   10.0862 N.ar    1  UNL1       -0.2291
      7 C           6.9138   41.4291    6.3143 C.3     1  UNL1        0.0896
      8 C           6.9025   42.9169    8.1169 C.3     1  UNL1        0.0722
      9 C           7.7006   43.9267    8.9387 C.3     1  UNL1        0.0177
     10 C           8.9200   43.2404    9.5460 C.3     1  UNL1        0.0072
     11 C           9.7329   42.5415    8.4555 C.3     1  UNL1        0.0385
     12 C           8.8287   41.6133    7.6408 C.3     1  UNL1        0.0765
     13 N           7.7352   42.3775    7.0433 N.3     1  UNL1       -0.2712
     14 N          14.3820   40.9263    8.1183 N.pl3   1  UNL1       -0.2821
     15 H          14.5556   40.0852    7.6370 H       1  UNL1        0.1551
     16 C          15.3734   41.9542    8.0042 C.ar    1  UNL1        0.1526
     17 C          16.1032   44.0405    7.1437 C.ar    1  UNL1        0.1210
     18 C          17.3146   43.8969    7.8216 C.ar    1  UNL1        0.1196
     19 C          16.5867   41.8137    8.6812 C.ar    1  UNL1        0.1332
     20 N          15.1604   43.0672    7.2496 N.ar    1  UNL1       -0.2258
     21 N          17.5299   42.7869    8.5756 N.ar    1  UNL1       -0.2378
@<TRIPOS>BOND
     1     7    13    1
     2     8    13    1
     3     8     9    1
     4     9    10    1
     5    10    11    1
     6    11    12    1
     7    11     1    1
     8    12    13    1
     9     2     3   ar
    10     3    14    1
    11     4     6   ar
    12     5     1   ar
    13    17    20   ar
    14    18    21   ar
    15    19    16   ar
    16    14    16    1
    17     1     2   ar
    18     3     6   ar
    19     4     5   ar
    20    16    20   ar
    21    17    18   ar
    22    19    21   ar
    23    14    15    1
@<TRIPOS>MOLECULE
MolPort-020-281-700 MCULE-7223028372 PubChem-110257379
 21 23 0 0 0
SMALL
GASTEIGER

@<TRIPOS>ATOM
      1 C          14.0296   40.8949    8.2193 C.ar    1  UNL1       -0.0168
      2 C          12.7740   41.0114    7.6187 C.ar    1  UNL1        0.0302
      3 C          12.5480   42.0194    6.6780 C.ar    1  UNL1        0.1329
      4 C          14.7861   42.7871    6.9258 C.ar    1  UNL1        0.1000
      5 C          15.0471   41.7924    7.8692 C.ar    1  UNL1        0.0165
      6 N          13.5550   42.8791    6.3557 N.ar    1  UNL1       -0.2291
      7 C          17.3559   38.6315   10.8948 C.3     1  UNL1        0.0896
      8 C          15.2207   38.9450   11.7922 C.3     1  UNL1        0.0722
      9 C          13.7178   38.9695   11.5226 C.3     1  UNL1        0.0177
     10 C          13.4048   40.0317   10.4736 C.3     1  UNL1        0.0072
     11 C          14.2595   39.8115    9.2248 C.3     1  UNL1        0.0385
     12 C          15.7382   39.7236    9.6099 C.3     1  UNL1        0.0765
     13 N          15.9438   38.6326   10.5608 N.3     1  UNL1       -0.2712
     14 N          11.2552   42.1267    6.0702 N.pl3   1  UNL1       -0.2821
     15 H          10.8117   43.0043    6.1198 H       1  UNL1        0.1551
     16 C          10.5458   41.0798    5.3973 C.ar    1  UNL1        0.1526
     17 C          10.4812   39.2900    3.8423 C.ar    1  UNL1        0.1210
     18 C           9.1325   39.0832    4.1353 C.ar    1  UNL1        0.1196
     19 C           9.1961   40.8701    5.6882 C.ar    1  UNL1        0.1332
     20 N          11.1574   40.2824    4.4787 N.ar    1  UNL1       -0.2258
     21 N           8.5194   39.8777    5.0519 N.ar    1  UNL1       -0.2378
@<TRIPOS>BOND
     1     7    13    1
     2     8    13    1
     3     8     9    1
     4     9    10    1
     5    10    11    1
     6    11    12    1
     7    11     1    1
     8    12    13    1
     9     2     3   ar
    10     3    14    1
    11     4     6   ar
    12     5     1   ar
    13    17    20   ar
    14    18    21   ar
    15    19    16   ar
    16    14    16    1
    17     1     2   ar
    18     3     6   ar
    19     4     5   ar
    20    16    20   ar
    21    17    18   ar
    22    19    21   ar
    23    14    15    1
@<TRIPOS>MOLECULE
MolPort-020-281-700 MCULE-7223028372 PubChem-110257379
 21 23 0 0 0
SMALL
GASTEIGER

@<TRIPOS>ATOM
      1 C          13.4379   41.9712    7.1368 C.ar    1  UNL1       -0.0168
      2 C          12.3728   41.8772    6.2381 C.ar    1  UNL1        0.0302
      3 C          11.5571   40.7429    6.2484 C.ar    1  UNL1        0.1329
      4 C          12.8389   39.8064    8.0203 C.ar    1  UNL1        0.1000
      5 C          13.6738   40.9244    8.0380 C.ar    1  UNL1        0.0165
      6 N          11.8087   39.7394    7.1353 N.ar    1  UNL1       -0.2291
      7 C          17.8969   43.6612    7.9158 C.3     1  UNL1        0.0896
      8 C          16.6362   44.5863    6.1786 C.3     1  UNL1        0.0722
      9 C          15.2541   45.0327    5.7069 C.3     1  UNL1        0.0177
     10 C          14.2974   43.8450    5.7342 C.3     1  UNL1        0.0072
     11 C          14.3040   43.1906    7.1163 C.3     1  UNL1        0.0385
     12 C          15.7385   42.8531    7.5301 C.3     1  UNL1        0.0765
     13 N          16.5544   44.0659    7.5422 N.3     1  UNL1       -0.2712
     14 N          10.4684   40.6605    5.3209 N.pl3   1  UNL1       -0.2821
     15 H          10.6924   40.7287    4.3647 H       1  UNL1        0.1551
     16 C           9.0851   40.4884    5.6512 C.ar    1  UNL1        0.1526
     17 C           6.9805   41.3815    6.2823 C.ar    1  UNL1        0.1210
     18 C           6.4334   40.0976    6.2774 C.ar    1  UNL1        0.1196
     19 C           8.5345   39.2049    5.6471 C.ar    1  UNL1        0.1332
     20 N           8.2925   41.5486    5.9696 N.ar    1  UNL1       -0.2258
     21 N           7.2222   39.0375    5.9598 N.ar    1  UNL1       -0.2378
@<TRIPOS>BOND
     1     7    13    1
     2     8    13    1
     3     8     9    1
     4     9    10    1
     5    10    11    1
     6    11    12    1
     7    11     1    1
     8    12    13    1
     9     2     3   ar
    10     3    14    1
    11     4     6   ar
    12     5     1   ar
    13    17    20   ar
    14    18    21   ar
    15    19    16   ar
    16    14    16    1
    17     1     2   ar
    18     3     6   ar
    19     4     5   ar
    20    16    20   ar
    21    17    18   ar
    22    19    21   ar
    23    14    15    1
@<TRIPOS>MOLECULE
MolPort-020-281-700 MCULE-7223028372 PubChem-110257379
 21 23 0 0 0
SMALL
GASTEIGER

@<TRIPOS>ATOM
      1 C          12.6840   40.3712    9.5794 C.ar    1  UNL1       -0.0168
      2 C          13.9171   41.0002    9.3933 C.ar    1  UNL1        0.0302
      3 C          15.0526   40.2311    9.1263 C.ar    1  UNL1        0.1329
      4 C          13.7573   38.2382    9.2271 C.ar    1  UNL1        0.1000
      5 C          12.6028   38.9749    9.4954 C.ar    1  UNL1        0.0165
      6 N          14.9458   38.8747    9.0500 N.ar    1  UNL1       -0.2291
      7 C           8.5910   42.1539    7.7314 C.3     1  UNL1        0.0896
      8 C           8.6191   41.5127    9.9790 C.3     1  UNL1        0.0722
      9 C           9.4210   41.4600   11.2774 C.3     1  UNL1        0.0177
     10 C          10.6956   40.6515   11.0575 C.3     1  UNL1        0.0072
     11 C          11.4755   41.2053    9.8644 C.3     1  UNL1        0.0385
     12 C          10.5651   41.2916    8.6370 C.3     1  UNL1        0.0765
     13 N           9.4136   42.1442    8.9268 N.3     1  UNL1       -0.2712
     14 N          16.3106   40.8900    8.9376 N.pl3   1  UNL1       -0.2821
     15 H          17.0993   40.4700    9.3509 H       1  UNL1        0.1551
     16 C          16.5312   42.1014    8.2054 C.ar    1  UNL1        0.1526
     17 C          15.8535   43.6917    6.5814 C.ar    1  UNL1        0.1210
     18 C          17.0074   44.4369    6.8288 C.ar    1  UNL1        0.1196
     19 C          17.6847   42.8495    8.4505 C.ar    1  UNL1        0.1332
     20 N          15.6410   42.5418    7.2742 N.ar    1  UNL1       -0.2258
     21 N          17.8976   43.9996    7.7579 N.ar    1  UNL1       -0.2378
@<TRIPOS>BOND
     1     7    13    1
     2     8    13    1
     3     8     9    1
     4     9    10    1
     5    10    11    1
     6    11    12    1
     7    11     1    1
     8    12    13    1
     9     2     3   ar
    10     3    14    1
    11     4     6   ar
    12     5     1   ar
    13    17    20   ar
    14    18    21   ar
    15    19    16   ar
    16    14    16    1
    17     1     2   ar
    18     3     6   ar
    19     4     5   ar
    20    16    20   ar
    21    17    18   ar
    22    19    21   ar
    23    14    15    1
@<TRIPOS>MOLECULE
MolPort-020-281-700 MCULE-7223028372 PubChem-110257379
 21 23 0 0 0
SMALL
GASTEIGER

@<TRIPOS>ATOM
      1 C          14.9335   41.0065    8.8027 C.ar    1  UNL1       -0.0168
      2 C          13.5413   41.1074    8.7532 C.ar    1  UNL1        0.0302
      3 C          12.7616   40.3587    9.6384 C.ar    1  UNL1        0.1329
      4 C          14.7202   39.4209   10.6100 C.ar    1  UNL1        0.1000
      5 C          15.5298   40.1539    9.7414 C.ar    1  UNL1        0.0165
      6 N          13.3671   39.5371   10.5414 N.ar    1  UNL1       -0.2291
      7 C          14.8735   44.6705    5.6536 C.3     1  UNL1        0.0896
      8 C          16.7860   44.3454    6.9573 C.3     1  UNL1        0.0722
      9 C          17.7346   43.3328    7.5951 C.3     1  UNL1        0.0177
     10 C          16.9572   42.4426    8.5595 C.3     1  UNL1        0.0072
     11 C          15.7576   41.8133    7.8501 C.3     1  UNL1        0.0385
     12 C          14.9151   42.9009    7.1793 C.3     1  UNL1        0.0765
     13 N          15.7310   43.6482    6.2240 N.3     1  UNL1       -0.2712
     14 N          11.3349   40.4725    9.5760 N.pl3   1  UNL1       -0.2821
     15 H          10.8424   39.7006    9.2143 H       1  UNL1        0.1551
     16 C          10.5560   41.6015    9.9895 C.ar    1  UNL1        0.1526
     17 C           8.6286   42.5211   11.0214 C.ar    1  UNL1        0.1210
     18 C           9.1022   43.8078   10.7609 C.ar    1  UNL1        0.1196
     19 C          11.0271   42.8905    9.7305 C.ar    1  UNL1        0.1332
     20 N           9.3648   41.4476   10.6305 N.ar    1  UNL1       -0.2258
     21 N          10.2911   43.9643   10.1213 N.ar    1  UNL1       -0.2378
@<TRIPOS>BOND
     1     7    13    1
     2     8    13    1
     3     8     9    1
     4     9    10    1
     5    10    11    1
     6    11    12    1
     7    11     1    1
     8    12    13    1
     9     2     3   ar
    10     3    14    1
    11     4     6   ar
    12     5     1   ar
    13    17    20   ar
    14    18    21   ar
    15    19    16   ar
    16    14    16    1
    17     1     2   ar
    18     3     6   ar
    19     4     5   ar
    20    16    20   ar
    21    17    18   ar
    22    19    21   ar
    23    14    15    1
